23217
  -OEChem-11012401103D

 51 50  0     0  0  0  0  0  0999 V2000
   -1.2254   -0.4223    0.2505 C   0  0  0  0  0  0  0  0  0  0  0  0
    0.0345    0.4469    0.2496 C   0  0  0  0  0  0  0  0  0  0  0  0
   -2.5220    0.3914    0.1829 C   0  0  0  0  0  0  0  0  0  0  0  0
    1.3313   -0.3702    0.2379 C   0  0  0  0  0  0  0  0  0  0  0  0
   -3.8149   -0.4265    0.0916 C   0  0  0  0  0  0  0  0  0  0  0  0
    2.5897    0.4988    0.1592 C   0  0  0  0  0  0  0  0  0  0  0  0
   -5.1149    0.3850    0.0910 C   0  0  0  0  0  0  0  0  0  0  0  0
    3.8847   -0.3166    0.0867 C   0  0  0  0  0  0  0  0  0  0  0  0
   -6.3682   -0.4817   -0.0529 C   0  0  0  0  0  0  0  0  0  0  0  0
    5.1382    0.5477   -0.0673 C   0  0  0  0  0  0  0  0  0  0  0  0
   -7.6677    0.3296   -0.0462 C   0  0  0  0  0  0  0  0  0  0  0  0
    6.3937   -0.3172   -0.2067 C   0  0  0  0  0  0  0  0  0  0  0  0
   -8.9161   -0.5256   -0.2680 C   0  0  0  0  0  0  0  0  0  0  0  0
    7.6514    0.5457   -0.3284 C   0  0  0  0  0  0  0  0  0  0  0  0
  -10.1796    0.3209   -0.2420 C   0  0  0  0  0  0  0  0  0  0  0  0
    8.8786   -0.3006   -0.4967 C   0  0  0  0  0  0  0  0  0  0  0  0
    9.9068   -0.3053    0.3588 C   0  0  0  0  0  0  0  0  0  0  0  0
   -1.2372   -1.0470    1.1518 H   0  0  0  0  0  0  0  0  0  0  0  0
   -1.1913   -1.1047   -0.6076 H   0  0  0  0  0  0  0  0  0  0  0  0
    0.0256    1.1008    1.1302 H   0  0  0  0  0  0  0  0  0  0  0  0
    0.0173    1.1007   -0.6312 H   0  0  0  0  0  0  0  0  0  0  0  0
   -2.4760    1.0614   -0.6850 H   0  0  0  0  0  0  0  0  0  0  0  0
   -2.5762    1.0369    1.0686 H   0  0  0  0  0  0  0  0  0  0  0  0
    1.3754   -0.9928    1.1397 H   0  0  0  0  0  0  0  0  0  0  0  0
    1.3152   -1.0542   -0.6196 H   0  0  0  0  0  0  0  0  0  0  0  0
   -3.8428   -1.1312    0.9323 H   0  0  0  0  0  0  0  0  0  0  0  0
   -3.7765   -1.0353   -0.8206 H   0  0  0  0  0  0  0  0  0  0  0  0
    2.6280    1.1620    1.0319 H   0  0  0  0  0  0  0  0  0  0  0  0
    2.5238    1.1434   -0.7261 H   0  0  0  0  0  0  0  0  0  0  0  0
   -5.0823    1.1109   -0.7306 H   0  0  0  0  0  0  0  0  0  0  0  0
   -5.1770    0.9621    1.0217 H   0  0  0  0  0  0  0  0  0  0  0  0
    3.9741   -0.9311    0.9910 H   0  0  0  0  0  0  0  0  0  0  0  0
    3.8205   -1.0095   -0.7617 H   0  0  0  0  0  0  0  0  0  0  0  0
   -6.3982   -1.2152    0.7621 H   0  0  0  0  0  0  0  0  0  0  0  0
   -6.3042   -1.0502   -0.9890 H   0  0  0  0  0  0  0  0  0  0  0  0
    5.0358    1.1895   -0.9506 H   0  0  0  0  0  0  0  0  0  0  0  0
    5.2350    1.2073    0.8033 H   0  0  0  0  0  0  0  0  0  0  0  0
   -7.6149    1.0968   -0.8288 H   0  0  0  0  0  0  0  0  0  0  0  0
   -7.7533    0.8593    0.9108 H   0  0  0  0  0  0  0  0  0  0  0  0
    6.4823   -0.9781    0.6650 H   0  0  0  0  0  0  0  0  0  0  0  0
    6.2968   -0.9621   -1.0894 H   0  0  0  0  0  0  0  0  0  0  0  0
   -8.9807   -1.2957    0.5093 H   0  0  0  0  0  0  0  0  0  0  0  0
   -8.8460   -1.0419   -1.2323 H   0  0  0  0  0  0  0  0  0  0  0  0
    7.5648    1.2065   -1.1992 H   0  0  0  0  0  0  0  0  0  0  0  0
    7.7423    1.1915    0.5535 H   0  0  0  0  0  0  0  0  0  0  0  0
  -10.1582    1.0820   -1.0285 H   0  0  0  0  0  0  0  0  0  0  0  0
  -10.2939    0.8258    0.7225 H   0  0  0  0  0  0  0  0  0  0  0  0
  -11.0604   -0.3086   -0.4023 H   0  0  0  0  0  0  0  0  0  0  0  0
    8.9304   -0.9367   -1.3766 H   0  0  0  0  0  0  0  0  0  0  0  0
   10.7694   -0.9369    0.1772 H   0  0  0  0  0  0  0  0  0  0  0  0
    9.9076    0.3143    1.2487 H   0  0  0  0  0  0  0  0  0  0  0  0
  1  2  1  0  0  0  0
  1  3  1  0  0  0  0
  1 18  1  0  0  0  0
  1 19  1  0  0  0  0
  2  4  1  0  0  0  0
  2 20  1  0  0  0  0
  2 21  1  0  0  0  0
  3  5  1  0  0  0  0
  3 22  1  0  0  0  0
  3 23  1  0  0  0  0
  4  6  1  0  0  0  0
  4 24  1  0  0  0  0
  4 25  1  0  0  0  0
  5  7  1  0  0  0  0
  5 26  1  0  0  0  0
  5 27  1  0  0  0  0
  6  8  1  0  0  0  0
  6 28  1  0  0  0  0
  6 29  1  0  0  0  0
  7  9  1  0  0  0  0
  7 30  1  0  0  0  0
  7 31  1  0  0  0  0
  8 10  1  0  0  0  0
  8 32  1  0  0  0  0
  8 33  1  0  0  0  0
  9 11  1  0  0  0  0
  9 34  1  0  0  0  0
  9 35  1  0  0  0  0
 10 12  1  0  0  0  0
 10 36  1  0  0  0  0
 10 37  1  0  0  0  0
 11 13  1  0  0  0  0
 11 38  1  0  0  0  0
 11 39  1  0  0  0  0
 12 14  1  0  0  0  0
 12 40  1  0  0  0  0
 12 41  1  0  0  0  0
 13 15  1  0  0  0  0
 13 42  1  0  0  0  0
 13 43  1  0  0  0  0
 14 16  1  0  0  0  0
 14 44  1  0  0  0  0
 14 45  1  0  0  0  0
 15 46  1  0  0  0  0
 15 47  1  0  0  0  0
 15 48  1  0  0  0  0
 16 17  2  0  0  0  0
 16 49  1  0  0  0  0
 17 50  1  0  0  0  0
 17 51  1  0  0  0  0
M  END
> <PUBCHEM_COMPOUND_CID>
23217

> <PUBCHEM_CONFORMER_RMSD>
1.2

> <PUBCHEM_CONFORMER_DIVERSEORDER>
1
58
33
76
10
90
74
7
53
45
28
75
80
63
30
78
11
109
104
56
48
23
66
68
29
91
47
16
19
61
54
46
89
22
9
65
62
83
25
4
44
27
105
98
92
55
6
77
95
86
17
99
85
59
69
5
97
51
3
2
31
64
43
88
32
42
37
20
21
52
84
35
70
36
106
13
26
50
34
81
82
73
71
18
103
93
101
41
96
67
49
94
24
102
79
15
57
87
72
100
60
39
14
40
38
108
107
8
12

> <PUBCHEM_MMFF94_PARTIAL_CHARGES>
6
14 0.14
16 -0.29
17 -0.3
49 0.15
50 0.15
51 0.15

> <PUBCHEM_EFFECTIVE_ROTOR_COUNT>
14

> <PUBCHEM_PHARMACOPHORE_FEATURES>
2
1 15 hydrophobe
1 17 hydrophobe

> <PUBCHEM_HEAVY_ATOM_COUNT>
17

> <PUBCHEM_ATOM_DEF_STEREO_COUNT>
0

> <PUBCHEM_ATOM_UDEF_STEREO_COUNT>
0

> <PUBCHEM_BOND_DEF_STEREO_COUNT>
0

> <PUBCHEM_BOND_UDEF_STEREO_COUNT>
0

> <PUBCHEM_ISOTOPIC_ATOM_COUNT>
0

> <PUBCHEM_COMPONENT_COUNT>
1

> <PUBCHEM_CACTVS_TAUTO_COUNT>
1

> <PUBCHEM_CONFORMER_ID>
00005AB100000001

> <PUBCHEM_MMFF94_ENERGY>
-2.6109

> <PUBCHEM_FEATURE_SELFOVERLAP>
10.149

> <PUBCHEM_SHAPE_FINGERPRINT>
106641 1 10519985963158788098
11638347 137 11959739257001481972
14123256 10 18410293609707473822
14251764 46 17167863067249991931
15510794 2 15646775574270711409
155225 1 14057009339249332310
21150785 3 18410856559639789571
22224240 67 8862941667362508608
232437 2 18411981364377723855
23521765 1 18341895194640646144
23581129 1 18409448085244608518
246663 6 16200434675970167505
33684 2 18410855460128161794
4325135 7 18334295370353867735
59682541 35 10303809882673690558
67123 10 18410856568229724173
8209 1 18410575088958046208

> <PUBCHEM_SHAPE_MULTIPOLES>
349.85
39.29
0.79
0.67
4.97
0.01
0.01
-1.49
4.51
0.03
0
-0.19
0
-0.09

> <PUBCHEM_SHAPE_SELFOVERLAP>
625.059

> <PUBCHEM_SHAPE_VOLUME>
226.6

> <PUBCHEM_COORDINATE_TYPE>
2
5
10

$$$$
