74577
  -OEChem-11012400343D

 24 23  0     0  0  0  0  0  0999 V2000
    1.4361    0.0053    0.0006 Si  0  0  0  0  0  0  0  0  0  0  0  0
   -0.1187    0.6368    0.0041 O   0  0  0  0  0  0  0  0  0  0  0  0
    2.6943    1.4078    0.0164 C   0  0  0  0  0  0  0  0  0  0  0  0
    1.7448   -1.0348   -1.5360 C   0  0  0  0  0  0  0  0  0  0  0  0
    1.7390   -1.0640    1.5182 C   0  0  0  0  0  0  0  0  0  0  0  0
   -1.2339   -0.2422   -0.0064 C   0  0  0  0  0  0  0  0  0  0  0  0
   -2.5111    0.5838   -0.0006 C   0  0  0  0  0  0  0  0  0  0  0  0
   -3.7505   -0.2927    0.0038 C   0  0  0  0  0  0  0  0  0  0  0  0
    2.5663    2.0266    0.9093 H   0  0  0  0  0  0  0  0  0  0  0  0
    3.7134    1.0102    0.0145 H   0  0  0  0  0  0  0  0  0  0  0  0
    2.5696    2.0437   -0.8650 H   0  0  0  0  0  0  0  0  0  0  0  0
    1.5725   -0.4437   -2.4401 H   0  0  0  0  0  0  0  0  0  0  0  0
    2.7768   -1.3975   -1.5533 H   0  0  0  0  0  0  0  0  0  0  0  0
    1.0771   -1.9010   -1.5581 H   0  0  0  0  0  0  0  0  0  0  0  0
    2.7710   -1.4269    1.5326 H   0  0  0  0  0  0  0  0  0  0  0  0
    1.5633   -0.4902    2.4328 H   0  0  0  0  0  0  0  0  0  0  0  0
    1.0714   -1.9305    1.5212 H   0  0  0  0  0  0  0  0  0  0  0  0
   -1.2135   -0.8891    0.8799 H   0  0  0  0  0  0  0  0  0  0  0  0
   -1.2110   -0.8727   -0.9043 H   0  0  0  0  0  0  0  0  0  0  0  0
   -2.5193    1.2431    0.8757 H   0  0  0  0  0  0  0  0  0  0  0  0
   -2.5258    1.2451   -0.8754 H   0  0  0  0  0  0  0  0  0  0  0  0
   -3.7751   -0.9334    0.8910 H   0  0  0  0  0  0  0  0  0  0  0  0
   -4.6530    0.3266    0.0074 H   0  0  0  0  0  0  0  0  0  0  0  0
   -3.7817   -0.9328   -0.8836 H   0  0  0  0  0  0  0  0  0  0  0  0
  1  2  1  0  0  0  0
  1  3  1  0  0  0  0
  1  4  1  0  0  0  0
  1  5  1  0  0  0  0
  2  6  1  0  0  0  0
  3  9  1  0  0  0  0
  3 10  1  0  0  0  0
  3 11  1  0  0  0  0
  4 12  1  0  0  0  0
  4 13  1  0  0  0  0
  4 14  1  0  0  0  0
  5 15  1  0  0  0  0
  5 16  1  0  0  0  0
  5 17  1  0  0  0  0
  6  7  1  0  0  0  0
  6 18  1  0  0  0  0
  6 19  1  0  0  0  0
  7  8  1  0  0  0  0
  7 20  1  0  0  0  0
  7 21  1  0  0  0  0
  8 22  1  0  0  0  0
  8 23  1  0  0  0  0
  8 24  1  0  0  0  0
M  END
> <PUBCHEM_COMPOUND_CID>
74577

> <PUBCHEM_CONFORMER_RMSD>
0.6

> <PUBCHEM_CONFORMER_DIVERSEORDER>
1
2

> <PUBCHEM_MMFF94_PARTIAL_CHARGES>
6
1 0.54
2 -0.58
3 -0.08
4 -0.08
5 -0.08
6 0.28

> <PUBCHEM_EFFECTIVE_ROTOR_COUNT>
3

> <PUBCHEM_PHARMACOPHORE_FEATURES>
1
1 8 hydrophobe

> <PUBCHEM_HEAVY_ATOM_COUNT>
8

> <PUBCHEM_ATOM_DEF_STEREO_COUNT>
0

> <PUBCHEM_ATOM_UDEF_STEREO_COUNT>
0

> <PUBCHEM_BOND_DEF_STEREO_COUNT>
0

> <PUBCHEM_BOND_UDEF_STEREO_COUNT>
0

> <PUBCHEM_ISOTOPIC_ATOM_COUNT>
0

> <PUBCHEM_COMPONENT_COUNT>
1

> <PUBCHEM_CACTVS_TAUTO_COUNT>
1

> <PUBCHEM_CONFORMER_ID>
0001235100000001

> <PUBCHEM_MMFF94_ENERGY>
1.3588

> <PUBCHEM_FEATURE_SELFOVERLAP>
5.074

> <PUBCHEM_SHAPE_FINGERPRINT>
12932764 1 18041566845278745493
14325111 11 18409448085761664145
14390081 3 18260548930940852293
170605 34 18338800121190982176
23235685 24 17917988412305517468
23552333 60 18410008819232470752
23552423 10 17987810587645796999
23552449 11 18335132047263211338
3248919 1 18059850637027157193
5084963 1 17488749964858758199
8030462 33 17676495999334167893

> <PUBCHEM_SHAPE_MULTIPOLES>
176.98
5.2
1.25
1.22
5.82
0.11
0.02
0.46
-0.01
-0.92
-0.02
-0.96
-0.56
0

> <PUBCHEM_SHAPE_SELFOVERLAP>
295.548

> <PUBCHEM_SHAPE_VOLUME>
121.3

> <PUBCHEM_COORDINATE_TYPE>
2
5
10

$$$$
