12484759
  -OEChem-11012401253D

 31 31  0     0  0  0  0  0  0999 V2000
   -0.4598   -0.1733    1.0590 S   0  0  0  0  0  0  0  0  0  0  0  0
    2.3230   -0.0536   -0.0484 Si  0  0  0  0  0  0  0  0  0  0  0  0
    2.6830   -1.5500    0.6213 O   0  0  0  0  0  0  0  0  0  0  0  0
    2.7018    1.1499    1.0593 O   0  0  0  0  0  0  0  0  0  0  0  0
    3.2663    0.1471   -1.4223 O   0  0  0  0  0  0  0  0  0  0  0  0
    0.4880    0.0593   -0.4800 C   0  0  0  0  0  0  0  0  0  0  0  0
   -2.1391   -0.0257    0.4603 C   0  0  0  0  0  0  0  0  0  0  0  0
   -2.8209   -1.1594    0.0285 C   0  0  0  0  0  0  0  0  0  0  0  0
   -2.7547    1.2221    0.4297 C   0  0  0  0  0  0  0  0  0  0  0  0
    2.4483   -2.7319   -0.1312 C   0  0  0  0  0  0  0  0  0  0  0  0
    4.0349    1.2657    1.5371 C   0  0  0  0  0  0  0  0  0  0  0  0
    3.1755    1.3535   -2.1670 C   0  0  0  0  0  0  0  0  0  0  0  0
   -4.1303   -1.0444   -0.4383 C   0  0  0  0  0  0  0  0  0  0  0  0
   -4.0641    1.3370   -0.0370 C   0  0  0  0  0  0  0  0  0  0  0  0
   -4.7518    0.2038   -0.4710 C   0  0  0  0  0  0  0  0  0  0  0  0
    0.2589    1.0407   -0.9056 H   0  0  0  0  0  0  0  0  0  0  0  0
    0.2167   -0.7127   -1.2059 H   0  0  0  0  0  0  0  0  0  0  0  0
   -2.3517   -2.1399    0.0465 H   0  0  0  0  0  0  0  0  0  0  0  0
   -2.2335    2.1158    0.7635 H   0  0  0  0  0  0  0  0  0  0  0  0
    1.3814   -2.8625   -0.3416 H   0  0  0  0  0  0  0  0  0  0  0  0
    2.7808   -3.5861    0.4665 H   0  0  0  0  0  0  0  0  0  0  0  0
    3.0214   -2.7288   -1.0649 H   0  0  0  0  0  0  0  0  0  0  0  0
    4.3421    0.3611    2.0733 H   0  0  0  0  0  0  0  0  0  0  0  0
    4.0724    2.1044    2.2390 H   0  0  0  0  0  0  0  0  0  0  0  0
    4.7331    1.4769    0.7198 H   0  0  0  0  0  0  0  0  0  0  0  0
    3.4291    2.2234   -1.5515 H   0  0  0  0  0  0  0  0  0  0  0  0
    2.1769    1.4744   -2.6007 H   0  0  0  0  0  0  0  0  0  0  0  0
    3.8959    1.2997   -2.9890 H   0  0  0  0  0  0  0  0  0  0  0  0
   -4.6659   -1.9266   -0.7765 H   0  0  0  0  0  0  0  0  0  0  0  0
   -4.5483    2.3089   -0.0629 H   0  0  0  0  0  0  0  0  0  0  0  0
   -5.7713    0.2934   -0.8346 H   0  0  0  0  0  0  0  0  0  0  0  0
  1  6  1  0  0  0  0
  1  7  1  0  0  0  0
  2  3  1  0  0  0  0
  2  4  1  0  0  0  0
  2  5  1  0  0  0  0
  2  6  1  0  0  0  0
  3 10  1  0  0  0  0
  4 11  1  0  0  0  0
  5 12  1  0  0  0  0
  6 16  1  0  0  0  0
  6 17  1  0  0  0  0
  7  8  2  0  0  0  0
  7  9  1  0  0  0  0
  8 13  1  0  0  0  0
  8 18  1  0  0  0  0
  9 14  2  0  0  0  0
  9 19  1  0  0  0  0
 10 20  1  0  0  0  0
 10 21  1  0  0  0  0
 10 22  1  0  0  0  0
 11 23  1  0  0  0  0
 11 24  1  0  0  0  0
 11 25  1  0  0  0  0
 12 26  1  0  0  0  0
 12 27  1  0  0  0  0
 12 28  1  0  0  0  0
 13 15  2  0  0  0  0
 13 29  1  0  0  0  0
 14 15  1  0  0  0  0
 14 30  1  0  0  0  0
 15 31  1  0  0  0  0
M  END
> <PUBCHEM_COMPOUND_CID>
12484759

> <PUBCHEM_CONFORMER_RMSD>
0.6

> <PUBCHEM_CONFORMER_DIVERSEORDER>
3
21
12
10
7
11
6
17
9
15
14
19
4
2
20
18
8
16
13
5
1

> <PUBCHEM_MMFF94_PARTIAL_CHARGES>
20
1 -0.33
10 0.28
11 0.28
12 0.28
13 -0.15
14 -0.15
15 -0.15
18 0.15
19 0.15
2 0.97
29 0.15
3 -0.58
30 0.15
31 0.15
4 -0.58
5 -0.58
6 0.15
7 0.1
8 -0.15
9 -0.15

> <PUBCHEM_EFFECTIVE_ROTOR_COUNT>
6

> <PUBCHEM_PHARMACOPHORE_FEATURES>
1
6 7 8 9 13 14 15 rings

> <PUBCHEM_HEAVY_ATOM_COUNT>
15

> <PUBCHEM_ATOM_DEF_STEREO_COUNT>
0

> <PUBCHEM_ATOM_UDEF_STEREO_COUNT>
0

> <PUBCHEM_BOND_DEF_STEREO_COUNT>
0

> <PUBCHEM_BOND_UDEF_STEREO_COUNT>
0

> <PUBCHEM_ISOTOPIC_ATOM_COUNT>
0

> <PUBCHEM_COMPONENT_COUNT>
1

> <PUBCHEM_CACTVS_TAUTO_COUNT>
1

> <PUBCHEM_CONFORMER_ID>
00BE809700000003

> <PUBCHEM_MMFF94_ENERGY>
30.6034

> <PUBCHEM_FEATURE_SELFOVERLAP>
5.074

> <PUBCHEM_SHAPE_FINGERPRINT>
12173636 292 18410849924659064077
12616999 72 18187937200201074686
12932764 1 18272663341333638243
13296908 3 17132120134426977289
13533116 47 18340486660770550927
15239191 94 12895080599846389485
18186145 218 17917439721780584705
20279233 1 18342455967130096771
20645477 56 18408599250106068577
20645477 70 17346599668454605734
23557571 272 17988643029665042457
23559900 14 18272080561484601898
3082319 5 18408891719761057535
3248919 1 17894353297459380395
474 4 17749393667352670475
5104073 3 18412263896575747259
633830 44 17385730149585017617
81539 233 17774435105290322272
9709674 26 18412262843955798795
9971528 1 17895468146963866536

> <PUBCHEM_SHAPE_MULTIPOLES>
313.15
9.67
1.92
1.43
6.16
1.05
-0.4
-1.67
-0.92
-1.26
-0.04
-1.96
-0.65
-0.2

> <PUBCHEM_SHAPE_SELFOVERLAP>
594.344

> <PUBCHEM_SHAPE_VOLUME>
194.4

> <PUBCHEM_COORDINATE_TYPE>
2
5
10

$$$$
