139367
  -OEChem-11012400593D

 20 22  0     0  0  0  0  0  0999 V2000
    0.5495    0.7289    0.5356 C   0  0  0  0  0  0  0  0  0  0  0  0
    0.6032   -0.8027    0.4714 C   0  0  0  0  0  0  0  0  0  0  0  0
   -0.5495    0.7291   -0.5353 C   0  0  0  0  0  0  0  0  0  0  0  0
   -0.6033   -0.8025   -0.4715 C   0  0  0  0  0  0  0  0  0  0  0  0
    1.9705    0.7970   -0.0326 C   0  0  0  0  0  0  0  0  0  0  0  0
    1.9488   -0.7233   -0.2640 C   0  0  0  0  0  0  0  0  0  0  0  0
   -1.9706    0.7968    0.0325 C   0  0  0  0  0  0  0  0  0  0  0  0
   -1.9486   -0.7233    0.2640 C   0  0  0  0  0  0  0  0  0  0  0  0
    0.3532    1.1952    1.5018 H   0  0  0  0  0  0  0  0  0  0  0  0
    0.5620   -1.3542    1.4112 H   0  0  0  0  0  0  0  0  0  0  0  0
   -0.3532    1.1957   -1.5014 H   0  0  0  0  0  0  0  0  0  0  0  0
   -0.5621   -1.3536   -1.4115 H   0  0  0  0  0  0  0  0  0  0  0  0
    2.7172    1.1141    0.7039 H   0  0  0  0  0  0  0  0  0  0  0  0
    2.0936    1.4049   -0.9339 H   0  0  0  0  0  0  0  0  0  0  0  0
    1.9258   -1.0219   -1.3175 H   0  0  0  0  0  0  0  0  0  0  0  0
    2.7646   -1.2601    0.2305 H   0  0  0  0  0  0  0  0  0  0  0  0
   -2.7172    1.1137   -0.7042 H   0  0  0  0  0  0  0  0  0  0  0  0
   -2.0941    1.4048    0.9337 H   0  0  0  0  0  0  0  0  0  0  0  0
   -1.9254   -1.0219    1.3174 H   0  0  0  0  0  0  0  0  0  0  0  0
   -2.7643   -1.2604   -0.2304 H   0  0  0  0  0  0  0  0  0  0  0  0
  1  2  1  0  0  0  0
  1  3  1  0  0  0  0
  1  5  1  0  0  0  0
  1  9  1  0  0  0  0
  2  4  1  0  0  0  0
  2  6  1  0  0  0  0
  2 10  1  0  0  0  0
  3  4  1  0  0  0  0
  3  7  1  0  0  0  0
  3 11  1  0  0  0  0
  4  8  1  0  0  0  0
  4 12  1  0  0  0  0
  5  6  1  0  0  0  0
  5 13  1  0  0  0  0
  5 14  1  0  0  0  0
  6 15  1  0  0  0  0
  6 16  1  0  0  0  0
  7  8  1  0  0  0  0
  7 17  1  0  0  0  0
  7 18  1  0  0  0  0
  8 19  1  0  0  0  0
  8 20  1  0  0  0  0
M  END
> <PUBCHEM_COMPOUND_CID>
139367

> <PUBCHEM_CONFORMER_RMSD>
0.4

> <PUBCHEM_CONFORMER_DIVERSEORDER>
1

> <PUBCHEM_MMFF94_PARTIAL_CHARGES>
0

> <PUBCHEM_EFFECTIVE_ROTOR_COUNT>
0.8

> <PUBCHEM_PHARMACOPHORE_FEATURES>
2
6 1 2 3 4 5 6 rings
6 1 2 3 4 7 8 rings

> <PUBCHEM_HEAVY_ATOM_COUNT>
8

> <PUBCHEM_ATOM_DEF_STEREO_COUNT>
0

> <PUBCHEM_ATOM_UDEF_STEREO_COUNT>
0

> <PUBCHEM_BOND_DEF_STEREO_COUNT>
0

> <PUBCHEM_BOND_UDEF_STEREO_COUNT>
0

> <PUBCHEM_ISOTOPIC_ATOM_COUNT>
0

> <PUBCHEM_COMPONENT_COUNT>
1

> <PUBCHEM_CACTVS_TAUTO_COUNT>
1

> <PUBCHEM_CONFORMER_ID>
0002206700000001

> <PUBCHEM_MMFF94_ENERGY>
33.6311

> <PUBCHEM_FEATURE_SELFOVERLAP>
11.973

> <PUBCHEM_SHAPE_FINGERPRINT>
10857977 72 18115304625964060049
16945 1 18410577283686340966
20096714 4 18411696577970477072
21040471 1 18411694383210507832
23552423 10 18261114054126593934
24536 1 18338497699415902981
29004967 10 17846501426321818394
369184 2 15357968010248926812
5084963 1 18408040714682467801

> <PUBCHEM_SHAPE_MULTIPOLES>
164.64
2.7
1.2
0.76
0
0
0
-0.07
0
0
0
0
0
0.08

> <PUBCHEM_SHAPE_SELFOVERLAP>
358.958

> <PUBCHEM_SHAPE_VOLUME>
94.6

> <PUBCHEM_COORDINATE_TYPE>
2
5
10

$$$$
