13417703
  -OEChem-11012400413D

 43 45  0     0  0  0  0  0  0999 V2000
   -1.8731    0.6619   -0.0340 Si  0  0  0  0  0  0  0  0  0  0  0  0
   -3.2129    1.6686   -0.1341 O   0  0  0  0  0  0  0  0  0  0  0  0
   -1.9426   -0.4361   -1.3023 O   0  0  0  0  0  0  0  0  0  0  0  0
   -1.9622   -0.1924    1.4085 O   0  0  0  0  0  0  0  0  0  0  0  0
    0.9072    0.8634   -0.0578 O   0  0  0  0  0  0  0  0  0  0  0  0
    2.2088    2.7516   -0.2556 O   0  0  0  0  0  0  0  0  0  0  0  0
   -4.6602   -1.0970    0.1040 N   0  0  0  0  0  0  0  0  0  0  0  0
   -5.2347    0.2250   -0.1281 C   0  0  0  0  0  0  0  0  0  0  0  0
   -4.0231   -1.7653   -1.0270 C   0  0  0  0  0  0  0  0  0  0  0  0
   -4.1417   -1.3840    1.4383 C   0  0  0  0  0  0  0  0  0  0  0  0
   -4.3631    1.2540   -0.8666 C   0  0  0  0  0  0  0  0  0  0  0  0
   -2.4871   -1.7362   -1.0903 C   0  0  0  0  0  0  0  0  0  0  0  0
   -3.2134   -0.3368    2.0755 C   0  0  0  0  0  0  0  0  0  0  0  0
   -0.2955    1.6574   -0.1121 C   0  0  0  0  0  0  0  0  0  0  0  0
    2.0793    1.5428   -0.1406 C   0  0  0  0  0  0  0  0  0  0  0  0
    3.2262    0.6028   -0.0688 C   0  0  0  0  0  0  0  0  0  0  0  0
    4.4142    1.0404    0.4800 C   0  0  0  0  0  0  0  0  0  0  0  0
    3.0686   -0.6799   -0.5529 C   0  0  0  0  0  0  0  0  0  0  0  0
    5.3576   -1.1449    0.0650 C   0  0  0  0  0  0  0  0  0  0  0  0
    5.4917    0.1571    0.5474 C   0  0  0  0  0  0  0  0  0  0  0  0
    4.1460   -1.5633   -0.4852 C   0  0  0  0  0  0  0  0  0  0  0  0
    6.5100   -2.0890    0.1366 C   0  0  0  0  0  0  0  0  0  0  0  0
   -5.5799    0.6562    0.8199 H   0  0  0  0  0  0  0  0  0  0  0  0
   -6.1444    0.0817   -0.7252 H   0  0  0  0  0  0  0  0  0  0  0  0
   -4.4320   -1.3808   -1.9696 H   0  0  0  0  0  0  0  0  0  0  0  0
   -4.3266   -2.8195   -0.9923 H   0  0  0  0  0  0  0  0  0  0  0  0
   -3.6442   -2.3617    1.4458 H   0  0  0  0  0  0  0  0  0  0  0  0
   -5.0072   -1.4983    2.1037 H   0  0  0  0  0  0  0  0  0  0  0  0
   -4.0943    0.9257   -1.8785 H   0  0  0  0  0  0  0  0  0  0  0  0
   -4.9700    2.1566   -1.0099 H   0  0  0  0  0  0  0  0  0  0  0  0
   -2.0226   -2.2269   -0.2257 H   0  0  0  0  0  0  0  0  0  0  0  0
   -2.1821   -2.3351   -1.9575 H   0  0  0  0  0  0  0  0  0  0  0  0
   -3.7073    0.6337    2.2111 H   0  0  0  0  0  0  0  0  0  0  0  0
   -2.9757   -0.6815    3.0896 H   0  0  0  0  0  0  0  0  0  0  0  0
   -0.2804    2.3629    0.7265 H   0  0  0  0  0  0  0  0  0  0  0  0
   -0.2887    2.2314   -1.0459 H   0  0  0  0  0  0  0  0  0  0  0  0
    4.5296    2.0502    0.8624 H   0  0  0  0  0  0  0  0  0  0  0  0
    2.1409   -1.0268   -0.9982 H   0  0  0  0  0  0  0  0  0  0  0  0
    6.4298    0.4942    0.9805 H   0  0  0  0  0  0  0  0  0  0  0  0
    4.0298   -2.5747   -0.8658 H   0  0  0  0  0  0  0  0  0  0  0  0
    7.4636   -1.5550    0.0635 H   0  0  0  0  0  0  0  0  0  0  0  0
    6.4872   -2.6383    1.0830 H   0  0  0  0  0  0  0  0  0  0  0  0
    6.4826   -2.8093   -0.6881 H   0  0  0  0  0  0  0  0  0  0  0  0
  1  2  1  0  0  0  0
  1  3  1  0  0  0  0
  1  4  1  0  0  0  0
  1 14  1  0  0  0  0
  2 11  1  0  0  0  0
  3 12  1  0  0  0  0
  4 13  1  0  0  0  0
  5 14  1  0  0  0  0
  5 15  1  0  0  0  0
  6 15  2  0  0  0  0
  7  8  1  0  0  0  0
  7  9  1  0  0  0  0
  7 10  1  0  0  0  0
  8 11  1  0  0  0  0
  8 23  1  0  0  0  0
  8 24  1  0  0  0  0
  9 12  1  0  0  0  0
  9 25  1  0  0  0  0
  9 26  1  0  0  0  0
 10 13  1  0  0  0  0
 10 27  1  0  0  0  0
 10 28  1  0  0  0  0
 11 29  1  0  0  0  0
 11 30  1  0  0  0  0
 12 31  1  0  0  0  0
 12 32  1  0  0  0  0
 13 33  1  0  0  0  0
 13 34  1  0  0  0  0
 14 35  1  0  0  0  0
 14 36  1  0  0  0  0
 15 16  1  0  0  0  0
 16 17  2  0  0  0  0
 16 18  1  0  0  0  0
 17 20  1  0  0  0  0
 17 37  1  0  0  0  0
 18 21  2  0  0  0  0
 18 38  1  0  0  0  0
 19 20  2  0  0  0  0
 19 21  1  0  0  0  0
 19 22  1  0  0  0  0
 20 39  1  0  0  0  0
 21 40  1  0  0  0  0
 22 41  1  0  0  0  0
 22 42  1  0  0  0  0
 22 43  1  0  0  0  0
M  END
> <PUBCHEM_COMPOUND_CID>
13417703

> <PUBCHEM_CONFORMER_RMSD>
0.8

> <PUBCHEM_CONFORMER_DIVERSEORDER>
1
8
12
6
7
3
11
9
4
10
2
5

> <PUBCHEM_MMFF94_PARTIAL_CHARGES>
26
1 0.97
10 0.27
11 0.28
12 0.28
13 0.28
14 0.2
15 0.63
16 0.09
17 -0.15
18 -0.15
19 -0.14
2 -0.58
20 -0.15
21 -0.15
22 0.14
3 -0.58
37 0.15
38 0.15
39 0.15
4 -0.58
40 0.15
5 -0.43
6 -0.57
7 -0.81
8 0.27
9 0.27

> <PUBCHEM_EFFECTIVE_ROTOR_COUNT>
5.8

> <PUBCHEM_PHARMACOPHORE_FEATURES>
3
1 6 acceptor
1 7 cation
6 16 17 18 19 20 21 rings

> <PUBCHEM_HEAVY_ATOM_COUNT>
22

> <PUBCHEM_ATOM_DEF_STEREO_COUNT>
0

> <PUBCHEM_ATOM_UDEF_STEREO_COUNT>
0

> <PUBCHEM_BOND_DEF_STEREO_COUNT>
0

> <PUBCHEM_BOND_UDEF_STEREO_COUNT>
0

> <PUBCHEM_ISOTOPIC_ATOM_COUNT>
0

> <PUBCHEM_COMPONENT_COUNT>
1

> <PUBCHEM_CACTVS_TAUTO_COUNT>
1

> <PUBCHEM_CONFORMER_ID>
00CCBCE700000001

> <PUBCHEM_MMFF94_ENERGY>
69.0821

> <PUBCHEM_FEATURE_SELFOVERLAP>
15.223

> <PUBCHEM_SHAPE_FINGERPRINT>
11315181 36 18413389817440662272
11796584 16 17458061577836999986
12236239 1 17988925591183783723
12596602 18 17203607124911664570
12633257 1 17346606299836806657
13167823 11 18410570703923193524
13544653 18 18410577284219493664
14251751 18 18342736342579465458
14341114 176 18343303678047768164
14341114 328 15985101938194193664
14420673 8 18337674109435862878
15183329 4 13912321266512280466
15196674 1 18413384345989521646
15352361 1 18410855443391592740
15537594 2 18342749550104918062
15788980 27 18408885139955400172
15880784 105 18201999945488702898
17349148 13 17275387616286557893
17492 89 18265333000591229559
17780758 139 17703792500569540634
17844677 252 18413111658358220924
17857418 61 18272931647919513726
17870717 6 17167864166650921603
193927 3 18114470032203622896
200 152 18343018917294689777
20028762 73 18130784560474039094
20645477 70 18261107521745184716
23198884 109 16370728101831589445
23559900 14 18261107517197406153
3004659 81 17967534550211904988
339767 52 18131345302238548562
4214541 1 18412823564557170061
4921388 177 16443072724502692617
5104073 3 18272087189004385296
559249 180 18337105662166583861
9709674 26 18189056545866679721

> <PUBCHEM_SHAPE_MULTIPOLES>
436.63
14.69
2.26
1.24
12.98
0.21
0.45
-6.41
1.01
0.8
-0.36
-1.61
-0.38
0.33

> <PUBCHEM_SHAPE_SELFOVERLAP>
901.504

> <PUBCHEM_SHAPE_VOLUME>
248.8

> <PUBCHEM_COORDINATE_TYPE>
2
5
10

$$$$
