86142434
  -OEChem-11012400593D

 50 49  0     0  0  0  0  0  0999 V2000
   -0.0296   -0.3329   -0.0512 Si  0  0  0  0  0  0  0  0  0  0  0  0
    0.0829    1.2436   -1.0603 C   0  0  0  0  0  0  0  0  0  0  0  0
   -1.5598   -0.2751    1.0310 C   0  0  0  0  0  0  0  0  0  0  0  0
    1.4946   -0.4935    1.0295 C   0  0  0  0  0  0  0  0  0  0  0  0
   -0.1354   -1.8072   -1.2055 C   0  0  0  0  0  0  0  0  0  0  0  0
    0.1759    2.5391   -0.2465 C   0  0  0  0  0  0  0  0  0  0  0  0
   -2.8902   -0.1443    0.2811 C   0  0  0  0  0  0  0  0  0  0  0  0
    2.8293   -0.5531    0.2782 C   0  0  0  0  0  0  0  0  0  0  0  0
   -0.2327   -3.1726   -0.5188 C   0  0  0  0  0  0  0  0  0  0  0  0
    0.3109    3.7592   -1.1591 C   0  0  0  0  0  0  0  0  0  0  0  0
   -4.0754   -0.1538    1.2479 C   0  0  0  0  0  0  0  0  0  0  0  0
    4.0090   -0.6356    1.2483 C   0  0  0  0  0  0  0  0  0  0  0  0
   -0.3620   -4.2981   -1.5345 C   0  0  0  0  0  0  0  0  0  0  0  0
    0.4449    5.0434   -0.3564 C   0  0  0  0  0  0  0  0  0  0  0  0
   -5.3999   -0.0657    0.5065 C   0  0  0  0  0  0  0  0  0  0  0  0
    5.3377   -0.6535    0.5096 C   0  0  0  0  0  0  0  0  0  0  0  0
   -0.7923    1.2959   -1.7189 H   0  0  0  0  0  0  0  0  0  0  0  0
    0.9580    1.1671   -1.7166 H   0  0  0  0  0  0  0  0  0  0  0  0
   -1.4580    0.5639    1.7297 H   0  0  0  0  0  0  0  0  0  0  0  0
   -1.5796   -1.1847    1.6431 H   0  0  0  0  0  0  0  0  0  0  0  0
    1.3889   -1.3950    1.6449 H   0  0  0  0  0  0  0  0  0  0  0  0
    1.5106    0.3540    1.7251 H   0  0  0  0  0  0  0  0  0  0  0  0
    0.7435   -1.7969   -1.8611 H   0  0  0  0  0  0  0  0  0  0  0  0
   -1.0066   -1.6692   -1.8570 H   0  0  0  0  0  0  0  0  0  0  0  0
   -0.7147    2.6543    0.3841 H   0  0  0  0  0  0  0  0  0  0  0  0
    1.0402    2.4986    0.4283 H   0  0  0  0  0  0  0  0  0  0  0  0
   -3.0028   -0.9702   -0.4326 H   0  0  0  0  0  0  0  0  0  0  0  0
   -2.9054    0.7847   -0.3027 H   0  0  0  0  0  0  0  0  0  0  0  0
    2.9458    0.3367   -0.3533 H   0  0  0  0  0  0  0  0  0  0  0  0
    2.8480   -1.4225   -0.3910 H   0  0  0  0  0  0  0  0  0  0  0  0
    0.6550   -3.3527    0.0995 H   0  0  0  0  0  0  0  0  0  0  0  0
   -1.1003   -3.2038    0.1513 H   0  0  0  0  0  0  0  0  0  0  0  0
   -0.5649    3.8322   -1.8142 H   0  0  0  0  0  0  0  0  0  0  0  0
    1.1906    3.6471   -1.8036 H   0  0  0  0  0  0  0  0  0  0  0  0
   -3.9941    0.6890    1.9441 H   0  0  0  0  0  0  0  0  0  0  0  0
   -4.0611   -1.0723    1.8462 H   0  0  0  0  0  0  0  0  0  0  0  0
    3.9239   -1.5406    1.8610 H   0  0  0  0  0  0  0  0  0  0  0  0
    3.9910    0.2220    1.9309 H   0  0  0  0  0  0  0  0  0  0  0  0
   -1.2626   -4.1745   -2.1444 H   0  0  0  0  0  0  0  0  0  0  0  0
   -0.4277   -5.2638   -1.0236 H   0  0  0  0  0  0  0  0  0  0  0  0
    0.5051   -4.3251   -2.2021 H   0  0  0  0  0  0  0  0  0  0  0  0
    1.3322    5.0152    0.2841 H   0  0  0  0  0  0  0  0  0  0  0  0
    0.5383    5.9023   -1.0283 H   0  0  0  0  0  0  0  0  0  0  0  0
   -0.4327    5.2023    0.2784 H   0  0  0  0  0  0  0  0  0  0  0  0
   -5.5264   -0.9143   -0.1733 H   0  0  0  0  0  0  0  0  0  0  0  0
   -6.2328   -0.0722    1.2165 H   0  0  0  0  0  0  0  0  0  0  0  0
   -5.4603    0.8567   -0.0798 H   0  0  0  0  0  0  0  0  0  0  0  0
    5.4679    0.2557   -0.0860 H   0  0  0  0  0  0  0  0  0  0  0  0
    6.1665   -0.7146    1.2218 H   0  0  0  0  0  0  0  0  0  0  0  0
    5.4017   -1.5162   -0.1612 H   0  0  0  0  0  0  0  0  0  0  0  0
  1  2  1  0  0  0  0
  1  3  1  0  0  0  0
  1  4  1  0  0  0  0
  1  5  1  0  0  0  0
  2  6  1  0  0  0  0
  2 17  1  0  0  0  0
  2 18  1  0  0  0  0
  3  7  1  0  0  0  0
  3 19  1  0  0  0  0
  3 20  1  0  0  0  0
  4  8  1  0  0  0  0
  4 21  1  0  0  0  0
  4 22  1  0  0  0  0
  5  9  1  0  0  0  0
  5 23  1  0  0  0  0
  5 24  1  0  0  0  0
  6 10  1  0  0  0  0
  6 25  1  0  0  0  0
  6 26  1  0  0  0  0
  7 11  1  0  0  0  0
  7 27  1  0  0  0  0
  7 28  1  0  0  0  0
  8 12  1  0  0  0  0
  8 29  1  0  0  0  0
  8 30  1  0  0  0  0
  9 13  1  0  0  0  0
  9 31  1  0  0  0  0
  9 32  1  0  0  0  0
 10 14  1  0  0  0  0
 10 33  1  0  0  0  0
 10 34  1  0  0  0  0
 11 15  1  0  0  0  0
 11 35  1  0  0  0  0
 11 36  1  0  0  0  0
 12 16  1  0  0  0  0
 12 37  1  0  0  0  0
 12 38  1  0  0  0  0
 13 39  1  0  0  0  0
 13 40  1  0  0  0  0
 13 41  1  0  0  0  0
 14 42  1  0  0  0  0
 14 43  1  0  0  0  0
 14 44  1  0  0  0  0
 15 45  1  0  0  0  0
 15 46  1  0  0  0  0
 15 47  1  0  0  0  0
 16 48  1  0  0  0  0
 16 49  1  0  0  0  0
 16 50  1  0  0  0  0
M  END
> <PUBCHEM_COMPOUND_CID>
86142434

> <PUBCHEM_CONFORMER_RMSD>
1

> <PUBCHEM_CONFORMER_DIVERSEORDER>
1
66
50
10
56
75
15
28
89
39
63
77
24
36
12
80
38
33
57
46
62
2
88
55
82
61
27
47
18
70
74
34
67
54
53
65
31
83
32
87
4
72
71
86
37
49
52
48
14
3
35
45
40
78
64
84
5
16
25
20
59
58
44
19
7
21
69
51
81
42
22
23
30
26
6
85
68
17
60
76
13
73
79
41
11
8
90
29
9
43

> <PUBCHEM_MMFF94_PARTIAL_CHARGES>
5
1 0.32
2 -0.08
3 -0.08
4 -0.08
5 -0.08

> <PUBCHEM_EFFECTIVE_ROTOR_COUNT>
11

> <PUBCHEM_PHARMACOPHORE_FEATURES>
4
1 13 hydrophobe
1 14 hydrophobe
1 15 hydrophobe
1 16 hydrophobe

> <PUBCHEM_HEAVY_ATOM_COUNT>
16

> <PUBCHEM_ATOM_DEF_STEREO_COUNT>
0

> <PUBCHEM_ATOM_UDEF_STEREO_COUNT>
0

> <PUBCHEM_BOND_DEF_STEREO_COUNT>
0

> <PUBCHEM_BOND_UDEF_STEREO_COUNT>
0

> <PUBCHEM_ISOTOPIC_ATOM_COUNT>
0

> <PUBCHEM_COMPONENT_COUNT>
1

> <PUBCHEM_CACTVS_TAUTO_COUNT>
1

> <PUBCHEM_CONFORMER_ID>
05226DE200000001

> <PUBCHEM_MMFF94_ENERGY>
-7.8102

> <PUBCHEM_FEATURE_SELFOVERLAP>
20.3

> <PUBCHEM_SHAPE_FINGERPRINT>
10756046 70 18265898132176820023
11036077 51 16822779448661055096
12507560 14 18410015454941267805
12788726 201 17968938579036470992
13134695 92 18259985998288704013
13294875 104 17980493565281046721
14178342 30 18200050468797789515
14943834 7 17835238226532848503
14955137 171 18335995241031881651
15775530 1 17619068326336910535
20600515 1 18272373117803964180
20671657 1 18120099639207308081
20723712 36 18412271635652977241
21524375 3 17616281485826676841
229495 10 17627495043898096295
23402539 116 18409724033062789083
23419403 2 17750217231922474205
23557571 272 17899429588347895711
23558518 356 17256258561799306205
266924 1 17619908804265885735
3060560 45 18268450047615780727
3250762 1 17547292202985948727
59554788 170 18268433434577362558
6992083 37 18340762753710024114
81228 2 17910639328463329914
9981440 41 17333039228804802152
9999458 23 17632852032083942499

> <PUBCHEM_SHAPE_MULTIPOLES>
347.49
7.28
5.45
1.4
0.6
5.04
0.11
-2.26
-4.7
-0.74
3.84
0.04
-0.51
-0.6

> <PUBCHEM_SHAPE_SELFOVERLAP>
610.409

> <PUBCHEM_SHAPE_VOLUME>
227.4

> <PUBCHEM_COORDINATE_TYPE>
2
5
10

$$$$
