14222
  -OEChem-11012400503D

 40 39  0     0  0  0  0  0  0999 V2000
   -0.0135    0.0102   -0.1865 N   0  0  0  0  0  0  0  0  0  0  0  0
   -1.1321    0.8287   -0.6426 C   0  0  0  0  0  0  0  0  0  0  0  0
    1.2554    0.5608   -0.6648 C   0  0  0  0  0  0  0  0  0  0  0  0
   -0.1704   -1.3730   -0.6386 C   0  0  0  0  0  0  0  0  0  0  0  0
   -2.4839    0.3281   -0.1054 C   0  0  0  0  0  0  0  0  0  0  0  0
    1.5336    1.9668   -0.1061 C   0  0  0  0  0  0  0  0  0  0  0  0
    0.9511   -2.2907   -0.1222 C   0  0  0  0  0  0  0  0  0  0  0  0
   -2.4553    0.3064    1.4253 C   0  0  0  0  0  0  0  0  0  0  0  0
   -3.6597    1.1825   -0.5859 C   0  0  0  0  0  0  0  0  0  0  0  0
    1.5385    1.9229    1.4243 C   0  0  0  0  0  0  0  0  0  0  0  0
    2.8583    2.5469   -0.6083 C   0  0  0  0  0  0  0  0  0  0  0  0
    0.9861   -2.2526    1.4081 C   0  0  0  0  0  0  0  0  0  0  0  0
    0.7918   -3.7372   -0.5973 C   0  0  0  0  0  0  0  0  0  0  0  0
   -1.1700    0.8627   -1.7399 H   0  0  0  0  0  0  0  0  0  0  0  0
   -1.0414    1.8632   -0.2985 H   0  0  0  0  0  0  0  0  0  0  0  0
    1.2782    0.5923   -1.7625 H   0  0  0  0  0  0  0  0  0  0  0  0
    2.1098   -0.0438   -0.3500 H   0  0  0  0  0  0  0  0  0  0  0  0
   -0.2038   -1.4233   -1.7354 H   0  0  0  0  0  0  0  0  0  0  0  0
   -1.1006   -1.8160   -0.2720 H   0  0  0  0  0  0  0  0  0  0  0  0
   -2.7045   -0.6802   -0.4691 H   0  0  0  0  0  0  0  0  0  0  0  0
    0.7691    2.6781   -0.4342 H   0  0  0  0  0  0  0  0  0  0  0  0
    1.9274   -1.9807   -0.5062 H   0  0  0  0  0  0  0  0  0  0  0  0
   -2.2319    1.2981    1.8338 H   0  0  0  0  0  0  0  0  0  0  0  0
   -3.4278   -0.0046    1.8230 H   0  0  0  0  0  0  0  0  0  0  0  0
   -1.7129   -0.3975    1.8133 H   0  0  0  0  0  0  0  0  0  0  0  0
   -3.5622    2.2188   -0.2449 H   0  0  0  0  0  0  0  0  0  0  0  0
   -4.6099    0.7893   -0.2093 H   0  0  0  0  0  0  0  0  0  0  0  0
   -3.7089    1.1897   -1.6799 H   0  0  0  0  0  0  0  0  0  0  0  0
    2.2874    1.2176    1.8010 H   0  0  0  0  0  0  0  0  0  0  0  0
    1.7765    2.9101    1.8358 H   0  0  0  0  0  0  0  0  0  0  0  0
    0.5635    1.6355    1.8297 H   0  0  0  0  0  0  0  0  0  0  0  0
    3.7058    1.9250   -0.3005 H   0  0  0  0  0  0  0  0  0  0  0  0
    3.0180    3.5567   -0.2155 H   0  0  0  0  0  0  0  0  0  0  0  0
    2.8624    2.6070   -1.7016 H   0  0  0  0  0  0  0  0  0  0  0  0
    0.0247   -2.5568    1.8365 H   0  0  0  0  0  0  0  0  0  0  0  0
    1.7510   -2.9371    1.7915 H   0  0  0  0  0  0  0  0  0  0  0  0
    1.2299   -1.2568    1.7899 H   0  0  0  0  0  0  0  0  0  0  0  0
   -0.1467   -4.1718   -0.2370 H   0  0  0  0  0  0  0  0  0  0  0  0
    1.6157   -4.3618   -0.2359 H   0  0  0  0  0  0  0  0  0  0  0  0
    0.7887   -3.7852   -1.6913 H   0  0  0  0  0  0  0  0  0  0  0  0
  1  2  1  0  0  0  0
  1  3  1  0  0  0  0
  1  4  1  0  0  0  0
  2  5  1  0  0  0  0
  2 14  1  0  0  0  0
  2 15  1  0  0  0  0
  3  6  1  0  0  0  0
  3 16  1  0  0  0  0
  3 17  1  0  0  0  0
  4  7  1  0  0  0  0
  4 18  1  0  0  0  0
  4 19  1  0  0  0  0
  5  8  1  0  0  0  0
  5  9  1  0  0  0  0
  5 20  1  0  0  0  0
  6 10  1  0  0  0  0
  6 11  1  0  0  0  0
  6 21  1  0  0  0  0
  7 12  1  0  0  0  0
  7 13  1  0  0  0  0
  7 22  1  0  0  0  0
  8 23  1  0  0  0  0
  8 24  1  0  0  0  0
  8 25  1  0  0  0  0
  9 26  1  0  0  0  0
  9 27  1  0  0  0  0
  9 28  1  0  0  0  0
 10 29  1  0  0  0  0
 10 30  1  0  0  0  0
 10 31  1  0  0  0  0
 11 32  1  0  0  0  0
 11 33  1  0  0  0  0
 11 34  1  0  0  0  0
 12 35  1  0  0  0  0
 12 36  1  0  0  0  0
 12 37  1  0  0  0  0
 13 38  1  0  0  0  0
 13 39  1  0  0  0  0
 13 40  1  0  0  0  0
M  END
> <PUBCHEM_COMPOUND_CID>
14222

> <PUBCHEM_CONFORMER_RMSD>
0.6

> <PUBCHEM_CONFORMER_DIVERSEORDER>
1

> <PUBCHEM_MMFF94_PARTIAL_CHARGES>
4
1 -0.81
2 0.27
3 0.27
4 0.27

> <PUBCHEM_EFFECTIVE_ROTOR_COUNT>
6

> <PUBCHEM_PHARMACOPHORE_FEATURES>
4
1 1 cation
3 5 8 9 hydrophobe
3 6 10 11 hydrophobe
3 7 12 13 hydrophobe

> <PUBCHEM_HEAVY_ATOM_COUNT>
13

> <PUBCHEM_ATOM_DEF_STEREO_COUNT>
0

> <PUBCHEM_ATOM_UDEF_STEREO_COUNT>
0

> <PUBCHEM_BOND_DEF_STEREO_COUNT>
0

> <PUBCHEM_BOND_UDEF_STEREO_COUNT>
0

> <PUBCHEM_ISOTOPIC_ATOM_COUNT>
0

> <PUBCHEM_COMPONENT_COUNT>
1

> <PUBCHEM_CACTVS_TAUTO_COUNT>
1

> <PUBCHEM_CONFORMER_ID>
0000378E00000001

> <PUBCHEM_MMFF94_ENERGY>
19.2126

> <PUBCHEM_FEATURE_SELFOVERLAP>
20.297

> <PUBCHEM_SHAPE_FINGERPRINT>
1 1 18410011030913774804
13681431 1 18122344575367387506
14817 1 9924666872615173882
15906896 17 17755862266041789834
16945 1 18266476324874079719
18410436 195 17836637535673424885
20645476 183 18118403084196963780
20645477 70 18336257939387332143
20711985 344 17471848581628569928
21524375 3 18338796848204278733
21930827 45 17910114947210413400
23419403 2 17395916063896455362
2748010 2 18263942092358828351
305870 269 18410566305818913437
528862 383 18337380552668207899
68419 9 17557669660238242279
7364860 26 18340201878251758389
7615 1 17773588326960997257
81228 2 17474106982448234541
81539 233 18334008415299788669

> <PUBCHEM_SHAPE_MULTIPOLES>
262.55
4.05
3.97
1.27
3.58
3.49
0.55
-3.53
-0.23
-3.52
-0.28
-0.02
-0.01
-0.01

> <PUBCHEM_SHAPE_SELFOVERLAP>
478.513

> <PUBCHEM_SHAPE_VOLUME>
171.5

> <PUBCHEM_COORDINATE_TYPE>
2
5
10

$$$$
