20556344
  -OEChem-11012401273D

 42 41  0     0  0  0  0  0  0999 V2000
   -0.1331   -1.8206   -0.4537 Si  0  0  0  0  0  0  0  0  0  0  0  0
    2.3389    0.1192   -0.0504 Si  0  0  0  0  0  0  0  0  0  0  0  0
   -2.2472    0.4892   -0.0268 Si  0  0  0  0  0  0  0  0  0  0  0  0
    1.1976   -0.8612   -0.7792 O   0  0  0  0  0  0  0  0  0  0  0  0
   -1.3023   -0.8625    0.2691 O   0  0  0  0  0  0  0  0  0  0  0  0
    0.3275   -3.0245    0.6181 O   0  0  0  0  0  0  0  0  0  0  0  0
    1.5701    1.0334    1.1266 O   0  0  0  0  0  0  0  0  0  0  0  0
    3.0026    1.1402   -1.2043 O   0  0  0  0  0  0  0  0  0  0  0  0
   -2.7535    1.1394    1.4348 O   0  0  0  0  0  0  0  0  0  0  0  0
   -1.3175    1.6454   -0.8103 O   0  0  0  0  0  0  0  0  0  0  0  0
   -0.8013   -2.5757   -2.0383 C   0  0  0  0  0  0  0  0  0  0  0  0
    3.6927   -0.9320    0.7178 C   0  0  0  0  0  0  0  0  0  0  0  0
   -3.7243    0.0139   -1.0837 C   0  0  0  0  0  0  0  0  0  0  0  0
   -0.6382   -3.9614    1.0731 C   0  0  0  0  0  0  0  0  0  0  0  0
    2.3202    1.9636    1.8942 C   0  0  0  0  0  0  0  0  0  0  0  0
    2.1561    2.0311   -1.9177 C   0  0  0  0  0  0  0  0  0  0  0  0
   -1.7924    1.5673    2.3886 C   0  0  0  0  0  0  0  0  0  0  0  0
   -1.8958    2.8952   -1.1578 C   0  0  0  0  0  0  0  0  0  0  0  0
   -1.0400   -1.7947   -2.7662 H   0  0  0  0  0  0  0  0  0  0  0  0
   -0.0611   -3.2455   -2.4856 H   0  0  0  0  0  0  0  0  0  0  0  0
   -1.7113   -3.1499   -1.8419 H   0  0  0  0  0  0  0  0  0  0  0  0
    3.2827   -1.5754    1.5019 H   0  0  0  0  0  0  0  0  0  0  0  0
    4.1596   -1.5686   -0.0395 H   0  0  0  0  0  0  0  0  0  0  0  0
    4.4694   -0.3020    1.1608 H   0  0  0  0  0  0  0  0  0  0  0  0
   -4.3050   -0.7756   -0.5975 H   0  0  0  0  0  0  0  0  0  0  0  0
   -4.3820    0.8737   -1.2412 H   0  0  0  0  0  0  0  0  0  0  0  0
   -3.3979   -0.3527   -2.0613 H   0  0  0  0  0  0  0  0  0  0  0  0
   -0.1501   -4.6323    1.7866 H   0  0  0  0  0  0  0  0  0  0  0  0
   -1.0201   -4.5691    0.2456 H   0  0  0  0  0  0  0  0  0  0  0  0
   -1.4649   -3.4617    1.5902 H   0  0  0  0  0  0  0  0  0  0  0  0
    1.6305    2.4810    2.5681 H   0  0  0  0  0  0  0  0  0  0  0  0
    2.7969    2.7156    1.2560 H   0  0  0  0  0  0  0  0  0  0  0  0
    3.0720    1.4541    2.5067 H   0  0  0  0  0  0  0  0  0  0  0  0
    2.7757    2.6037   -2.6146 H   0  0  0  0  0  0  0  0  0  0  0  0
    1.6649    2.7391   -1.2411 H   0  0  0  0  0  0  0  0  0  0  0  0
    1.4075    1.4837   -2.5010 H   0  0  0  0  0  0  0  0  0  0  0  0
   -2.3276    1.9505    3.2628 H   0  0  0  0  0  0  0  0  0  0  0  0
   -1.1713    2.3768    1.9902 H   0  0  0  0  0  0  0  0  0  0  0  0
   -1.1620    0.7332    2.7161 H   0  0  0  0  0  0  0  0  0  0  0  0
   -1.1177    3.5120   -1.6180 H   0  0  0  0  0  0  0  0  0  0  0  0
   -2.2669    3.4242   -0.2732 H   0  0  0  0  0  0  0  0  0  0  0  0
   -2.7013    2.7673   -1.8889 H   0  0  0  0  0  0  0  0  0  0  0  0
  1  4  1  0  0  0  0
  1  5  1  0  0  0  0
  1  6  1  0  0  0  0
  1 11  1  0  0  0  0
  2  4  1  0  0  0  0
  2  7  1  0  0  0  0
  2  8  1  0  0  0  0
  2 12  1  0  0  0  0
  3  5  1  0  0  0  0
  3  9  1  0  0  0  0
  3 10  1  0  0  0  0
  3 13  1  0  0  0  0
  6 14  1  0  0  0  0
  7 15  1  0  0  0  0
  8 16  1  0  0  0  0
  9 17  1  0  0  0  0
 10 18  1  0  0  0  0
 11 19  1  0  0  0  0
 11 20  1  0  0  0  0
 11 21  1  0  0  0  0
 12 22  1  0  0  0  0
 12 23  1  0  0  0  0
 12 24  1  0  0  0  0
 13 25  1  0  0  0  0
 13 26  1  0  0  0  0
 13 27  1  0  0  0  0
 14 28  1  0  0  0  0
 14 29  1  0  0  0  0
 14 30  1  0  0  0  0
 15 31  1  0  0  0  0
 15 32  1  0  0  0  0
 15 33  1  0  0  0  0
 16 34  1  0  0  0  0
 16 35  1  0  0  0  0
 16 36  1  0  0  0  0
 17 37  1  0  0  0  0
 17 38  1  0  0  0  0
 17 39  1  0  0  0  0
 18 40  1  0  0  0  0
 18 41  1  0  0  0  0
 18 42  1  0  0  0  0
M  END
> <PUBCHEM_COMPOUND_CID>
20556344

> <PUBCHEM_CONFORMER_RMSD>
0.8

> <PUBCHEM_CONFORMER_DIVERSEORDER>
1
153
152
177
196
34
98
216
188
158
223
168
118
128
131
46
74
225
5
115
106
226
47
125
213
143
8
171
103
55
137
92
217
199
107
179
180
154
145
175
149
227
195
84
211
162
174
19
21
119
17
49
221
52
146
220
184
176
9
95
7
215
76
198
182
170
210
4
80
10
82
222
186
133
117
202
73
79
13
32
18
130
100
40
219
205
160
50
96
191
159
200
164
89
132
165
185
87
229
28
68
102
190
51
228
16
204
150
39
129
120
212
90
69
44
169
138
224
183
77
45
178
29
59
218
173
126
140
161
86
83
207
209
163
208
70
197
156
3
38
206
66
101
15
48
75
105
6
61
22
194
97
85
78
64
111
36
192
114
147
99
136
2
33
155
67
23
123
31
71
166
214
42
148
187
203
122
91
116
27
230
110
172
124
35
62
93
193
104
157
201
139
113
20
181
142
189
167
60
53
12
72
141
135
127
65
11
43
144
94
26
121
151
57
24
88
81
41
30
63
25
58
134
14
37
54
56
109
112
108

> <PUBCHEM_MMFF94_PARTIAL_CHARGES>
18
1 0.97
10 -0.58
11 -0.08
12 -0.08
13 -0.08
14 0.28
15 0.28
16 0.28
17 0.28
18 0.28
2 0.97
3 0.97
4 -0.59
5 -0.59
6 -0.58
7 -0.58
8 -0.58
9 -0.58

> <PUBCHEM_EFFECTIVE_ROTOR_COUNT>
9

> <PUBCHEM_PHARMACOPHORE_FEATURES>
0

> <PUBCHEM_HEAVY_ATOM_COUNT>
18

> <PUBCHEM_ATOM_DEF_STEREO_COUNT>
0

> <PUBCHEM_ATOM_UDEF_STEREO_COUNT>
0

> <PUBCHEM_BOND_DEF_STEREO_COUNT>
0

> <PUBCHEM_BOND_UDEF_STEREO_COUNT>
0

> <PUBCHEM_ISOTOPIC_ATOM_COUNT>
0

> <PUBCHEM_COMPONENT_COUNT>
1

> <PUBCHEM_CACTVS_TAUTO_COUNT>
1

> <PUBCHEM_CONFORMER_ID>
0139AA3800000001

> <PUBCHEM_MMFF94_ENERGY>
16.6578

> <PUBCHEM_FEATURE_SELFOVERLAP>
0

> <PUBCHEM_SHAPE_FINGERPRINT>
15775835 57 18342175535751414925
16945 1 18116166466791723183
192875 21 18188193343318405037
20600515 1 17330256781165007474
20645476 183 18114744952944247262
20905425 154 17761480401018652454
21524375 3 18341892965648078463
229495 10 14580628398979550975
23419403 2 15749418420681710074
23557571 272 17840301452257086332
238 59 18052514617873896773
2748010 2 17626387083932453290
2803657 2 17195445183578738904
31174 14 17613469669595586739
3286 77 18059848463341325252
539174 4 17839191709648121921
5845 1 7835960376073408255
81228 2 18051969513372257731

> <PUBCHEM_SHAPE_MULTIPOLES>
383.98
5.1
3.94
2.09
0.96
2.83
-0.29
-2.41
0.05
-0.75
-0.25
-0.09
-0.84
-0.42

> <PUBCHEM_SHAPE_SELFOVERLAP>
681.197

> <PUBCHEM_SHAPE_VOLUME>
251.1

> <PUBCHEM_COORDINATE_TYPE>
2
5
10

$$$$
