139495
  -OEChem-11012401173D

 31 32  0     0  0  0  0  0  0999 V2000
   -0.9201   -0.4657   -0.5044 C   0  0  0  0  0  0  0  0  0  0  0  0
    0.3829   -0.9881   -1.0753 C   0  0  0  0  0  0  0  0  0  0  0  0
   -1.8274   -1.3391    0.0693 C   0  0  0  0  0  0  0  0  0  0  0  0
    1.5992   -0.4119   -0.4326 C   0  0  0  0  0  0  0  0  0  0  0  0
   -1.1692    0.8942   -0.5764 C   0  0  0  0  0  0  0  0  0  0  0  0
   -2.3634    1.3957   -0.0583 C   0  0  0  0  0  0  0  0  0  0  0  0
   -3.0215   -0.8375    0.5872 C   0  0  0  0  0  0  0  0  0  0  0  0
   -3.2894    0.5297    0.5234 C   0  0  0  0  0  0  0  0  0  0  0  0
   -1.5626   -2.8069    0.1484 C   0  0  0  0  0  0  0  0  0  0  0  0
    1.6708   -0.3073    0.9565 C   0  0  0  0  0  0  0  0  0  0  0  0
    2.6654    0.0221   -1.2206 C   0  0  0  0  0  0  0  0  0  0  0  0
   -2.6503    2.8576   -0.1259 C   0  0  0  0  0  0  0  0  0  0  0  0
    2.8083    0.2313    1.5578 C   0  0  0  0  0  0  0  0  0  0  0  0
    3.8030    0.5607   -0.6191 C   0  0  0  0  0  0  0  0  0  0  0  0
    3.8743    0.6652    0.7701 C   0  0  0  0  0  0  0  0  0  0  0  0
    0.3714   -0.7510   -2.1486 H   0  0  0  0  0  0  0  0  0  0  0  0
    0.4732   -2.0773   -1.0300 H   0  0  0  0  0  0  0  0  0  0  0  0
   -0.4536    1.5695   -1.0382 H   0  0  0  0  0  0  0  0  0  0  0  0
   -3.7543   -1.4979    1.0432 H   0  0  0  0  0  0  0  0  0  0  0  0
   -4.2240    0.9081    0.9289 H   0  0  0  0  0  0  0  0  0  0  0  0
   -1.4726   -3.2400   -0.8532 H   0  0  0  0  0  0  0  0  0  0  0  0
   -0.6552   -3.0088    0.7271 H   0  0  0  0  0  0  0  0  0  0  0  0
   -2.3809   -3.3358    0.6503 H   0  0  0  0  0  0  0  0  0  0  0  0
    0.8614   -0.6523    1.5940 H   0  0  0  0  0  0  0  0  0  0  0  0
    2.6249   -0.0544   -2.3038 H   0  0  0  0  0  0  0  0  0  0  0  0
   -3.3028    3.1722    0.6957 H   0  0  0  0  0  0  0  0  0  0  0  0
   -1.7285    3.4438   -0.0449 H   0  0  0  0  0  0  0  0  0  0  0  0
   -3.1396    3.1008   -1.0742 H   0  0  0  0  0  0  0  0  0  0  0  0
    2.8656    0.3095    2.6395 H   0  0  0  0  0  0  0  0  0  0  0  0
    4.6335    0.8981   -1.2322 H   0  0  0  0  0  0  0  0  0  0  0  0
    4.7605    1.0837    1.2383 H   0  0  0  0  0  0  0  0  0  0  0  0
  1  2  1  0  0  0  0
  1  3  2  0  0  0  0
  1  5  1  0  0  0  0
  2  4  1  0  0  0  0
  2 16  1  0  0  0  0
  2 17  1  0  0  0  0
  3  7  1  0  0  0  0
  3  9  1  0  0  0  0
  4 10  2  0  0  0  0
  4 11  1  0  0  0  0
  5  6  2  0  0  0  0
  5 18  1  0  0  0  0
  6  8  1  0  0  0  0
  6 12  1  0  0  0  0
  7  8  2  0  0  0  0
  7 19  1  0  0  0  0
  8 20  1  0  0  0  0
  9 21  1  0  0  0  0
  9 22  1  0  0  0  0
  9 23  1  0  0  0  0
 10 13  1  0  0  0  0
 10 24  1  0  0  0  0
 11 14  2  0  0  0  0
 11 25  1  0  0  0  0
 12 26  1  0  0  0  0
 12 27  1  0  0  0  0
 12 28  1  0  0  0  0
 13 15  2  0  0  0  0
 13 29  1  0  0  0  0
 14 15  1  0  0  0  0
 14 30  1  0  0  0  0
 15 31  1  0  0  0  0
M  END
> <PUBCHEM_COMPOUND_CID>
139495

> <PUBCHEM_CONFORMER_RMSD>
0.6

> <PUBCHEM_CONFORMER_DIVERSEORDER>
6
5
3
2
4
1

> <PUBCHEM_MMFF94_PARTIAL_CHARGES>
23
1 -0.14
10 -0.15
11 -0.15
12 0.14
13 -0.15
14 -0.15
15 -0.15
18 0.15
19 0.15
2 0.29
20 0.15
24 0.15
25 0.15
29 0.15
3 -0.14
30 0.15
31 0.15
4 -0.14
5 -0.15
6 -0.14
7 -0.15
8 -0.15
9 0.14

> <PUBCHEM_EFFECTIVE_ROTOR_COUNT>
2

> <PUBCHEM_PHARMACOPHORE_FEATURES>
2
6 1 3 5 6 7 8 rings
6 4 10 11 13 14 15 rings

> <PUBCHEM_HEAVY_ATOM_COUNT>
15

> <PUBCHEM_ATOM_DEF_STEREO_COUNT>
0

> <PUBCHEM_ATOM_UDEF_STEREO_COUNT>
0

> <PUBCHEM_BOND_DEF_STEREO_COUNT>
0

> <PUBCHEM_BOND_UDEF_STEREO_COUNT>
0

> <PUBCHEM_ISOTOPIC_ATOM_COUNT>
0

> <PUBCHEM_COMPONENT_COUNT>
1

> <PUBCHEM_CACTVS_TAUTO_COUNT>
1

> <PUBCHEM_CONFORMER_ID>
000220E700000006

> <PUBCHEM_MMFF94_ENERGY>
43.12

> <PUBCHEM_FEATURE_SELFOVERLAP>
10.149

> <PUBCHEM_SHAPE_FINGERPRINT>
10608611 8 18272371949335580164
11132069 177 18271812349672765095
12173636 292 18410008793520715109
12251169 10 18260547839876513532
12500047 106 18411697647702248414
12824470 246 16372137834963899363
12932764 1 17846778520463698318
13134695 92 16128378134748022328
13380536 127 18259983794790756198
13538477 17 18114461257448358518
13764800 53 18341897368047325753
13965767 371 17536597300633097428
14289901 80 18334013934427553642
14787075 74 16526120186231356926
15219456 202 18130794425601694422
15375462 189 17459757110371295315
15653759 3 18130509720915000554
15669948 3 18334295417524979599
16945 1 18410012165048910799
17844478 74 17988086724036362778
18186145 218 16917351433204731228
18219364 16 16988561363722738586
19049666 15 18059023761053964942
200 152 15719384079305387179
20510252 161 18341620287143905873
20645477 70 16558479612801661246
21486144 27 17060339651552347794
21524375 3 18054782889018692757
21639500 275 15841544185133264770
21650355 55 18192428786931843643
22445834 79 17531239552458806802
23175994 123 17200534926404916086
23402539 116 18270675485094743975
23419403 2 17197385118044635191
23493267 7 18412829053873059810
23557571 272 18201169852495114030
23559900 14 18341059518785990382
25 1 17489311823943220882
27216 239 17845076540698298720
2748010 2 18120670041192433655
6049 1 17845945129446681920
7097593 13 17896586315766306298
7364860 26 17620190932531403319
77492 1 17530686536785853046
81228 2 18340488992763667327
84936 182 17549818885429307017
90316 7 17676483904437809301

> <PUBCHEM_SHAPE_MULTIPOLES>
308.69
6.65
2.21
1.18
3.72
0.08
0.12
2.23
1.12
-2.81
-0.04
0.94
-0.02
0.32

> <PUBCHEM_SHAPE_SELFOVERLAP>
660.123

> <PUBCHEM_SHAPE_VOLUME>
163.8

> <PUBCHEM_COORDINATE_TYPE>
2
5
10

$$$$
