70719
  -OEChem-11012400423D

 15 15  0     0  0  0  0  0  0999 V2000
    1.6965    1.4866   -0.0008 O   0  0  0  0  0  0  0  0  0  0  0  0
   -0.5143   -1.4211   -0.0002 N   0  0  0  0  0  0  0  0  0  0  0  0
    0.5892   -0.6402    0.0005 C   0  0  0  0  0  0  0  0  0  0  0  0
    0.5593    0.7450    0.0006 C   0  0  0  0  0  0  0  0  0  0  0  0
    1.8978   -1.3598    0.0000 C   0  0  0  0  0  0  0  0  0  0  0  0
   -0.6831    1.3690    0.0004 C   0  0  0  0  0  0  0  0  0  0  0  0
   -1.8414    0.5996   -0.0001 C   0  0  0  0  0  0  0  0  0  0  0  0
   -1.7040   -0.7791   -0.0005 C   0  0  0  0  0  0  0  0  0  0  0  0
    2.4778   -1.1112    0.8947 H   0  0  0  0  0  0  0  0  0  0  0  0
    1.7441   -2.4446    0.0006 H   0  0  0  0  0  0  0  0  0  0  0  0
    2.4767   -1.1119   -0.8954 H   0  0  0  0  0  0  0  0  0  0  0  0
   -0.7556    2.4530    0.0002 H   0  0  0  0  0  0  0  0  0  0  0  0
   -2.8206    1.0644   -0.0003 H   0  0  0  0  0  0  0  0  0  0  0  0
   -2.5765   -1.4242   -0.0009 H   0  0  0  0  0  0  0  0  0  0  0  0
    2.4827    0.9186   -0.0007 H   0  0  0  0  0  0  0  0  0  0  0  0
  1  4  1  0  0  0  0
  1 15  1  0  0  0  0
  2  3  1  0  0  0  0
  2  8  2  0  0  0  0
  3  4  2  0  0  0  0
  3  5  1  0  0  0  0
  4  6  1  0  0  0  0
  5  9  1  0  0  0  0
  5 10  1  0  0  0  0
  5 11  1  0  0  0  0
  6  7  2  0  0  0  0
  6 12  1  0  0  0  0
  7  8  1  0  0  0  0
  7 13  1  0  0  0  0
  8 14  1  0  0  0  0
M  END
> <PUBCHEM_COMPOUND_CID>
70719

> <PUBCHEM_CONFORMER_RMSD>
0.4

> <PUBCHEM_CONFORMER_DIVERSEORDER>
1

> <PUBCHEM_MMFF94_PARTIAL_CHARGES>
12
1 -0.53
12 0.15
13 0.15
14 0.15
15 0.45
2 -0.62
3 0.17
4 0.08
5 0.14
6 -0.15
7 -0.15
8 0.16

> <PUBCHEM_EFFECTIVE_ROTOR_COUNT>
0

> <PUBCHEM_PHARMACOPHORE_FEATURES>
3
1 1 donor
1 2 acceptor
6 2 3 4 6 7 8 rings

> <PUBCHEM_HEAVY_ATOM_COUNT>
8

> <PUBCHEM_ATOM_DEF_STEREO_COUNT>
0

> <PUBCHEM_ATOM_UDEF_STEREO_COUNT>
0

> <PUBCHEM_BOND_DEF_STEREO_COUNT>
0

> <PUBCHEM_BOND_UDEF_STEREO_COUNT>
0

> <PUBCHEM_ISOTOPIC_ATOM_COUNT>
0

> <PUBCHEM_COMPONENT_COUNT>
1

> <PUBCHEM_CACTVS_TAUTO_COUNT>
3

> <PUBCHEM_CONFORMER_ID>
0001143F00000001

> <PUBCHEM_MMFF94_ENERGY>
19.1307

> <PUBCHEM_FEATURE_SELFOVERLAP>
15.223

> <PUBCHEM_SHAPE_FINGERPRINT>
16714656 1 17979077076539467270
18185500 45 18048878489807351755
21040471 1 18338516464228401889
23552423 10 18261396675811950502
29004967 10 18121506751833774635

> <PUBCHEM_SHAPE_MULTIPOLES>
153.79
2.39
1.74
0.59
0.25
0.26
0
-0.33
0
0.3
0
-0.01
-0.01
0

> <PUBCHEM_SHAPE_SELFOVERLAP>
317.652

> <PUBCHEM_SHAPE_VOLUME>
88.2

> <PUBCHEM_COORDINATE_TYPE>
2
5
10

$$$$
