142790
  -OEChem-11012400313D

 21 24  0     0  0  0  0  0  0999 V2000
    0.0000   -0.5174    0.0001 C   0  0  0  0  0  0  0  0  0  0  0  0
    1.3271   -0.0391    0.1438 C   0  0  0  0  0  0  0  0  0  0  0  0
   -1.3271   -0.0391   -0.1437 C   0  0  0  0  0  0  0  0  0  0  0  0
    0.8437   -1.0939    1.0750 C   0  0  0  0  0  0  0  0  0  0  0  0
   -0.8434   -1.0934   -1.0753 C   0  0  0  0  0  0  0  0  0  0  0  0
    2.5156    0.1565   -0.6748 C   0  0  0  0  0  0  0  0  0  0  0  0
    2.0169    1.2350    0.2976 C   0  0  0  0  0  0  0  0  0  0  0  0
   -2.5160    0.1561    0.6746 C   0  0  0  0  0  0  0  0  0  0  0  0
   -2.0168    1.2352   -0.2971 C   0  0  0  0  0  0  0  0  0  0  0  0
    1.2182   -2.1005    0.9437 H   0  0  0  0  0  0  0  0  0  0  0  0
    0.6302   -0.8104    2.0973 H   0  0  0  0  0  0  0  0  0  0  0  0
   -1.2180   -2.1001   -0.9446 H   0  0  0  0  0  0  0  0  0  0  0  0
   -0.6296   -0.8094   -2.0974 H   0  0  0  0  0  0  0  0  0  0  0  0
    2.3873    0.3436   -1.7331 H   0  0  0  0  0  0  0  0  0  0  0  0
    3.4187   -0.3770   -0.4082 H   0  0  0  0  0  0  0  0  0  0  0  0
    2.5953    1.4027    1.1967 H   0  0  0  0  0  0  0  0  0  0  0  0
    1.5649    2.1203   -0.1306 H   0  0  0  0  0  0  0  0  0  0  0  0
   -2.3881    0.3426    1.7330 H   0  0  0  0  0  0  0  0  0  0  0  0
   -3.4189   -0.3773    0.4072 H   0  0  0  0  0  0  0  0  0  0  0  0
   -2.5948    1.4034   -1.1964 H   0  0  0  0  0  0  0  0  0  0  0  0
   -1.5650    2.1203    0.1316 H   0  0  0  0  0  0  0  0  0  0  0  0
  1  2  1  0  0  0  0
  1  3  1  0  0  0  0
  1  4  1  0  0  0  0
  1  5  1  0  0  0  0
  2  4  1  0  0  0  0
  2  6  1  0  0  0  0
  2  7  1  0  0  0  0
  3  5  1  0  0  0  0
  3  8  1  0  0  0  0
  3  9  1  0  0  0  0
  4 10  1  0  0  0  0
  4 11  1  0  0  0  0
  5 12  1  0  0  0  0
  5 13  1  0  0  0  0
  6  7  1  0  0  0  0
  6 14  1  0  0  0  0
  6 15  1  0  0  0  0
  7 16  1  0  0  0  0
  7 17  1  0  0  0  0
  8  9  1  0  0  0  0
  8 18  1  0  0  0  0
  8 19  1  0  0  0  0
  9 20  1  0  0  0  0
  9 21  1  0  0  0  0
M  END
> <PUBCHEM_COMPOUND_CID>
142790

> <PUBCHEM_CONFORMER_RMSD>
0.4

> <PUBCHEM_CONFORMER_DIVERSEORDER>
1

> <PUBCHEM_MMFF94_PARTIAL_CHARGES>
18
10 0.1
11 0.1
12 0.1
13 0.1
14 0.1
15 0.1
16 0.1
17 0.1
18 0.1
19 0.1
20 0.1
21 0.1
4 -0.2
5 -0.2
6 -0.2
7 -0.2
8 -0.2
9 -0.2

> <PUBCHEM_EFFECTIVE_ROTOR_COUNT>
1.2

> <PUBCHEM_PHARMACOPHORE_FEATURES>
0

> <PUBCHEM_HEAVY_ATOM_COUNT>
9

> <PUBCHEM_ATOM_DEF_STEREO_COUNT>
0

> <PUBCHEM_ATOM_UDEF_STEREO_COUNT>
0

> <PUBCHEM_BOND_DEF_STEREO_COUNT>
0

> <PUBCHEM_BOND_UDEF_STEREO_COUNT>
0

> <PUBCHEM_ISOTOPIC_ATOM_COUNT>
0

> <PUBCHEM_COMPONENT_COUNT>
1

> <PUBCHEM_CACTVS_TAUTO_COUNT>
1

> <PUBCHEM_CONFORMER_ID>
00022DC600000001

> <PUBCHEM_MMFF94_ENERGY>
47.6272

> <PUBCHEM_FEATURE_SELFOVERLAP>
0

> <PUBCHEM_SHAPE_FINGERPRINT>
10857977 72 17458634461896971041
11062470 55 8430316801258331051
14390081 3 18409727357045845937
15310529 11 15123507055414568229
16945 1 18410856559639789574
20653085 51 18200891672048618944
21040471 1 17774710979175900543
29004967 10 8358250441039086838
369184 2 13406783454494842621
5084963 1 18336275595027305249

> <PUBCHEM_SHAPE_MULTIPOLES>
185.22
3.48
1.26
1
0
0.11
0
1.15
0
0
0
0
-0.24
-0.12

> <PUBCHEM_SHAPE_SELFOVERLAP>
397.889

> <PUBCHEM_SHAPE_VOLUME>
109.5

> <PUBCHEM_COORDINATE_TYPE>
2
5
10

$$$$
