101681594
  -OEChem-11012401013D

 39 41  0     0  0  0  0  0  0999 V2000
   -1.6108    2.2547    2.0609 O   0  0  0  0  0  0  0  0  0  0  0  0
   -0.4549    0.7993   -2.2748 O   0  0  0  0  0  0  0  0  0  0  0  0
   -0.4525    1.4863    0.0614 C   0  0  0  0  0  0  0  0  0  0  0  0
    0.1610    0.2383    0.6815 C   0  0  0  0  0  0  0  0  0  0  0  0
   -1.6507    1.9494    0.8756 C   0  0  0  0  0  0  0  0  0  0  0  0
   -1.0805    1.1512   -1.2827 C   0  0  0  0  0  0  0  0  0  0  0  0
   -2.8955    2.0497    0.0273 C   0  0  0  0  0  0  0  0  0  0  0  0
   -2.5864    1.2436   -1.2325 C   0  0  0  0  0  0  0  0  0  0  0  0
    0.5517    2.6207   -0.0895 C   0  0  0  0  0  0  0  0  0  0  0  0
    1.6507    0.0582    0.3915 C   0  0  0  0  0  0  0  0  0  0  0  0
   -0.6239   -1.0324    0.3613 C   0  0  0  0  0  0  0  0  0  0  0  0
    2.4670   -0.5954    1.3145 C   0  0  0  0  0  0  0  0  0  0  0  0
   -1.6520   -1.4491    1.2070 C   0  0  0  0  0  0  0  0  0  0  0  0
    2.1938    0.5475   -0.7963 C   0  0  0  0  0  0  0  0  0  0  0  0
   -0.3125   -1.7760   -0.7768 C   0  0  0  0  0  0  0  0  0  0  0  0
    3.8268   -0.7596    1.0498 C   0  0  0  0  0  0  0  0  0  0  0  0
   -2.3686   -2.6096    0.9144 C   0  0  0  0  0  0  0  0  0  0  0  0
    3.5534    0.3834   -1.0612 C   0  0  0  0  0  0  0  0  0  0  0  0
   -1.0289   -2.9365   -1.0694 C   0  0  0  0  0  0  0  0  0  0  0  0
    4.3700   -0.2701   -0.1381 C   0  0  0  0  0  0  0  0  0  0  0  0
   -2.0570   -3.3533   -0.2237 C   0  0  0  0  0  0  0  0  0  0  0  0
    0.1181    0.3644    1.7751 H   0  0  0  0  0  0  0  0  0  0  0  0
   -3.7612    1.6451    0.5575 H   0  0  0  0  0  0  0  0  0  0  0  0
   -3.0645    3.1030   -0.2168 H   0  0  0  0  0  0  0  0  0  0  0  0
   -2.9722    1.7418   -2.1255 H   0  0  0  0  0  0  0  0  0  0  0  0
   -3.0038    0.2349   -1.1644 H   0  0  0  0  0  0  0  0  0  0  0  0
    1.3447    2.6180    0.6666 H   0  0  0  0  0  0  0  0  0  0  0  0
    0.0361    3.5768    0.0885 H   0  0  0  0  0  0  0  0  0  0  0  0
    0.9639    2.7618   -1.0922 H   0  0  0  0  0  0  0  0  0  0  0  0
    2.0568   -0.9831    2.2432 H   0  0  0  0  0  0  0  0  0  0  0  0
   -1.9055   -0.8808    2.0977 H   0  0  0  0  0  0  0  0  0  0  0  0
    1.6330    0.9744   -1.6081 H   0  0  0  0  0  0  0  0  0  0  0  0
    0.4797   -1.4940   -1.4617 H   0  0  0  0  0  0  0  0  0  0  0  0
    4.4621   -1.2700    1.7677 H   0  0  0  0  0  0  0  0  0  0  0  0
   -3.1690   -2.9341    1.5728 H   0  0  0  0  0  0  0  0  0  0  0  0
    3.9737    0.7442   -1.9956 H   0  0  0  0  0  0  0  0  0  0  0  0
   -0.7864   -3.5162   -1.9553 H   0  0  0  0  0  0  0  0  0  0  0  0
    5.4275   -0.4027   -0.3468 H   0  0  0  0  0  0  0  0  0  0  0  0
   -2.6148   -4.2569   -0.4515 H   0  0  0  0  0  0  0  0  0  0  0  0
  1  5  2  0  0  0  0
  2  6  2  0  0  0  0
  3  4  1  0  0  0  0
  3  5  1  0  0  0  0
  3  6  1  0  0  0  0
  3  9  1  0  0  0  0
  4 10  1  0  0  0  0
  4 11  1  0  0  0  0
  4 22  1  0  0  0  0
  5  7  1  0  0  0  0
  6  8  1  0  0  0  0
  7  8  1  0  0  0  0
  7 23  1  0  0  0  0
  7 24  1  0  0  0  0
  8 25  1  0  0  0  0
  8 26  1  0  0  0  0
  9 27  1  0  0  0  0
  9 28  1  0  0  0  0
  9 29  1  0  0  0  0
 10 12  2  0  0  0  0
 10 14  1  0  0  0  0
 11 13  2  0  0  0  0
 11 15  1  0  0  0  0
 12 16  1  0  0  0  0
 12 30  1  0  0  0  0
 13 17  1  0  0  0  0
 13 31  1  0  0  0  0
 14 18  2  0  0  0  0
 14 32  1  0  0  0  0
 15 19  2  0  0  0  0
 15 33  1  0  0  0  0
 16 20  2  0  0  0  0
 16 34  1  0  0  0  0
 17 21  2  0  0  0  0
 17 35  1  0  0  0  0
 18 20  1  0  0  0  0
 18 36  1  0  0  0  0
 19 21  1  0  0  0  0
 19 37  1  0  0  0  0
 20 38  1  0  0  0  0
 21 39  1  0  0  0  0
M  END
> <PUBCHEM_COMPOUND_CID>
101681594

> <PUBCHEM_CONFORMER_RMSD>
0.6

> <PUBCHEM_CONFORMER_DIVERSEORDER>
1
5
7
8
9
2
6
3
4

> <PUBCHEM_MMFF94_PARTIAL_CHARGES>
30
1 -0.57
10 -0.14
11 -0.14
12 -0.15
13 -0.15
14 -0.15
15 -0.15
16 -0.15
17 -0.15
18 -0.15
19 -0.15
2 -0.57
20 -0.15
21 -0.15
3 0.12
30 0.15
31 0.15
32 0.15
33 0.15
34 0.15
35 0.15
36 0.15
37 0.15
38 0.15
39 0.15
4 0.29
5 0.45
6 0.45
7 0.06
8 0.06

> <PUBCHEM_EFFECTIVE_ROTOR_COUNT>
3.6

> <PUBCHEM_PHARMACOPHORE_FEATURES>
5
1 1 acceptor
1 2 acceptor
5 3 5 6 7 8 rings
6 10 12 14 16 18 20 rings
6 11 13 15 17 19 21 rings

> <PUBCHEM_HEAVY_ATOM_COUNT>
21

> <PUBCHEM_ATOM_DEF_STEREO_COUNT>
0

> <PUBCHEM_ATOM_UDEF_STEREO_COUNT>
0

> <PUBCHEM_BOND_DEF_STEREO_COUNT>
0

> <PUBCHEM_BOND_UDEF_STEREO_COUNT>
0

> <PUBCHEM_ISOTOPIC_ATOM_COUNT>
0

> <PUBCHEM_COMPONENT_COUNT>
1

> <PUBCHEM_CACTVS_TAUTO_COUNT>
9

> <PUBCHEM_CONFORMER_ID>
060F89BA00000001

> <PUBCHEM_MMFF94_ENERGY>
79.076

> <PUBCHEM_FEATURE_SELFOVERLAP>
25.373

> <PUBCHEM_SHAPE_FINGERPRINT>
104564 63 18335703896331308879
11322862 65 18339088064346509230
11578080 2 17914327128901027041
12173636 292 18269275673194859512
12403814 3 17313104111898383068
12422481 6 18047787899522943795
12553582 1 18122064466607755514
12592029 89 17679856012295033441
12714826 92 18339365270252133130
12788726 201 18336265751004883394
13083527 12 17618475007181241080
13140716 1 18196659711928191379
13149001 5 18123437666193655797
133893 2 17328854405697064105
13538477 17 18260827073344447888
13583140 156 16878237367692869816
13681431 1 17542496588605924287
14817 1 18057913353051753319
15309172 13 18191868911963905792
16752209 62 18337098038415361403
16945 1 18262507195630667241
17357779 13 18197482133667149399
17492 54 18041826347223843461
20645476 183 18189045421885292620
20905425 154 17836934764490177964
21731516 1 18193837282706895978
22112679 90 17766871645921913555
22907989 373 18411708715616731820
23419403 2 17043110441773833129
23557571 272 18270672199412516360
23559900 14 18342166732244695618
23598288 3 18334580157056805698
404807 78 13800233074059315598
427121 178 17340729264611189385
4340502 62 18122916326564003577
5845 1 17908123718487690003
7364860 26 17047117173835749563
81228 2 18337101366983159770
8272917 22 17689998934342813085
90525 40 18335988588507471618

> <PUBCHEM_SHAPE_MULTIPOLES>
420.43
5.29
3.47
1.59
6.25
1.37
0.1
0.81
-0.25
-3.78
-0.07
-0.28
-0.3
-0.36

> <PUBCHEM_SHAPE_SELFOVERLAP>
923.594

> <PUBCHEM_SHAPE_VOLUME>
225.8

> <PUBCHEM_COORDINATE_TYPE>
2
5
10

$$$$
