138515
  -OEChem-11012401043D

 34 35  0     0  0  0  0  0  0999 V2000
    0.4888    0.0770    0.3253 C   0  0  0  0  0  0  0  0  0  0  0  0
    0.7239    1.5540    0.5206 C   0  0  0  0  0  0  0  0  0  0  0  0
    2.2042    1.9282    0.5678 C   0  0  0  0  0  0  0  0  0  0  0  0
    2.9581    1.2636   -0.5769 C   0  0  0  0  0  0  0  0  0  0  0  0
    1.4980   -0.7691   -0.1707 C   0  0  0  0  0  0  0  0  0  0  0  0
    2.8892   -0.2572   -0.4497 C   0  0  0  0  0  0  0  0  0  0  0  0
   -0.7836   -0.4512    0.5908 C   0  0  0  0  0  0  0  0  0  0  0  0
   -1.9019    0.4113    1.0841 C   0  0  0  0  0  0  0  0  0  0  0  0
   -2.7637    1.0389   -0.0367 C   0  0  0  0  0  0  0  0  0  0  0  0
    1.2240   -2.1326   -0.3564 C   0  0  0  0  0  0  0  0  0  0  0  0
   -1.0460   -1.8063    0.3922 C   0  0  0  0  0  0  0  0  0  0  0  0
   -0.0421   -2.6470   -0.0790 C   0  0  0  0  0  0  0  0  0  0  0  0
   -1.9149    1.8420   -1.0257 C   0  0  0  0  0  0  0  0  0  0  0  0
   -3.5340   -0.0514   -0.7857 C   0  0  0  0  0  0  0  0  0  0  0  0
    0.3530    2.1028   -0.3384 H   0  0  0  0  0  0  0  0  0  0  0  0
    0.2720    1.9406    1.4363 H   0  0  0  0  0  0  0  0  0  0  0  0
    2.3141    3.0173    0.5094 H   0  0  0  0  0  0  0  0  0  0  0  0
    2.6388    1.6128    1.5249 H   0  0  0  0  0  0  0  0  0  0  0  0
    4.0055    1.5852   -0.5770 H   0  0  0  0  0  0  0  0  0  0  0  0
    2.5253    1.5784   -1.5350 H   0  0  0  0  0  0  0  0  0  0  0  0
    3.5410   -0.5815    0.3714 H   0  0  0  0  0  0  0  0  0  0  0  0
    3.2734   -0.7050   -1.3740 H   0  0  0  0  0  0  0  0  0  0  0  0
   -2.5559   -0.1908    1.7316 H   0  0  0  0  0  0  0  0  0  0  0  0
   -1.5488    1.1973    1.7574 H   0  0  0  0  0  0  0  0  0  0  0  0
   -3.4949    1.7105    0.4302 H   0  0  0  0  0  0  0  0  0  0  0  0
    1.9998   -2.8024   -0.7196 H   0  0  0  0  0  0  0  0  0  0  0  0
   -2.0257   -2.2258    0.6047 H   0  0  0  0  0  0  0  0  0  0  0  0
   -0.2434   -3.7036   -0.2293 H   0  0  0  0  0  0  0  0  0  0  0  0
   -1.1647    1.2455   -1.5493 H   0  0  0  0  0  0  0  0  0  0  0  0
   -1.4927    2.7245   -0.5398 H   0  0  0  0  0  0  0  0  0  0  0  0
   -2.5704    2.2395   -1.8117 H   0  0  0  0  0  0  0  0  0  0  0  0
   -4.2658    0.4048   -1.4621 H   0  0  0  0  0  0  0  0  0  0  0  0
   -2.8807   -0.6787   -1.3999 H   0  0  0  0  0  0  0  0  0  0  0  0
   -4.0882   -0.6934   -0.0930 H   0  0  0  0  0  0  0  0  0  0  0  0
  1  2  1  0  0  0  0
  1  5  2  0  0  0  0
  1  7  1  0  0  0  0
  2  3  1  0  0  0  0
  2 15  1  0  0  0  0
  2 16  1  0  0  0  0
  3  4  1  0  0  0  0
  3 17  1  0  0  0  0
  3 18  1  0  0  0  0
  4  6  1  0  0  0  0
  4 19  1  0  0  0  0
  4 20  1  0  0  0  0
  5  6  1  0  0  0  0
  5 10  1  0  0  0  0
  6 21  1  0  0  0  0
  6 22  1  0  0  0  0
  7  8  1  0  0  0  0
  7 11  2  0  0  0  0
  8  9  1  0  0  0  0
  8 23  1  0  0  0  0
  8 24  1  0  0  0  0
  9 13  1  0  0  0  0
  9 14  1  0  0  0  0
  9 25  1  0  0  0  0
 10 12  2  0  0  0  0
 10 26  1  0  0  0  0
 11 12  1  0  0  0  0
 11 27  1  0  0  0  0
 12 28  1  0  0  0  0
 13 29  1  0  0  0  0
 13 30  1  0  0  0  0
 13 31  1  0  0  0  0
 14 32  1  0  0  0  0
 14 33  1  0  0  0  0
 14 34  1  0  0  0  0
M  END
> <PUBCHEM_COMPOUND_CID>
138515

> <PUBCHEM_CONFORMER_RMSD>
0.6

> <PUBCHEM_CONFORMER_DIVERSEORDER>
1
2

> <PUBCHEM_MMFF94_PARTIAL_CHARGES>
12
1 -0.14
10 -0.15
11 -0.15
12 -0.15
2 0.14
26 0.15
27 0.15
28 0.15
5 -0.14
6 0.14
7 -0.14
8 0.14

> <PUBCHEM_EFFECTIVE_ROTOR_COUNT>
2.8

> <PUBCHEM_PHARMACOPHORE_FEATURES>
3
3 9 13 14 hydrophobe
6 1 2 3 4 5 6 rings
6 1 5 7 10 11 12 rings

> <PUBCHEM_HEAVY_ATOM_COUNT>
14

> <PUBCHEM_ATOM_DEF_STEREO_COUNT>
0

> <PUBCHEM_ATOM_UDEF_STEREO_COUNT>
0

> <PUBCHEM_BOND_DEF_STEREO_COUNT>
0

> <PUBCHEM_BOND_UDEF_STEREO_COUNT>
0

> <PUBCHEM_ISOTOPIC_ATOM_COUNT>
0

> <PUBCHEM_COMPONENT_COUNT>
1

> <PUBCHEM_CACTVS_TAUTO_COUNT>
1

> <PUBCHEM_CONFORMER_ID>
00021D1300000001

> <PUBCHEM_MMFF94_ENERGY>
35.5163

> <PUBCHEM_FEATURE_SELFOVERLAP>
15.244

> <PUBCHEM_SHAPE_FINGERPRINT>
1 1 18410292471593991878
10967382 1 18411704283205038258
11206711 2 18125448763165415478
12138202 97 18263923409208808070
12730499 353 18335140839773637009
13299463 15 18341045238177862797
13380535 76 18411133666787981450
13897977 150 18410578391988376473
14181834 199 18189618241927183502
14614273 12 17980760755290612520
15775835 57 18412547583117645365
16945 1 18340779147547159746
17775402 16 18122630439937844200
18186145 218 18343305833752345301
21501502 16 18410008866245079987
21524375 3 18408321094511369122
21639500 275 18340198609681516725
21947302 44 18261950735135472835
2334 1 18196379340726206058
23388829 49 17835236749401890874
23493267 7 17531263728982683896
23559900 14 18200896041032627444
23598291 2 17772472288013891901
238 59 18047720790221236741
25 1 18338240353676321985
257057 1 17255389427922397978
2748010 2 18196666296081212322
3060560 45 18411689981127544717
3071541 158 18046069250757618742
5255222 1 18054236702264482072
63268167 104 18269839709605747025
6333449 129 18266180710854526417
7832392 63 17765714620614072889
81228 2 17762053646008870675

> <PUBCHEM_SHAPE_MULTIPOLES>
288.11
4.59
2.62
0.96
1.03
1.02
0
-1.96
-1.13
-0.55
-0.13
0.3
-0.22
0.43

> <PUBCHEM_SHAPE_SELFOVERLAP>
598.912

> <PUBCHEM_SHAPE_VOLUME>
159.4

> <PUBCHEM_COORDINATE_TYPE>
2
5
10

$$$$
