138495
  -OEChem-11012400323D

 35 35  0     0  0  0  0  0  0999 V2000
    3.2172    0.1025   -0.1591 O   0  0  0  0  0  0  0  0  0  0  0  0
   -3.5322    0.4816   -0.0061 O   0  0  0  0  0  0  0  0  0  0  0  0
    1.6489    2.7240   -0.5698 O   0  0  0  0  0  0  0  0  0  0  0  0
    2.6514   -1.9879    0.5932 O   0  0  0  0  0  0  0  0  0  0  0  0
   -3.1497   -1.7501   -0.3654 O   0  0  0  0  0  0  0  0  0  0  0  0
   -0.8306    0.9410    0.2963 N   0  0  0  0  0  0  0  0  0  0  0  0
   -0.2295   -1.1726   -0.0247 C   0  0  0  0  0  0  0  0  0  0  0  0
    0.9363   -0.4013    0.2063 C   0  0  0  0  0  0  0  0  0  0  0  0
    0.5353    0.9017    0.4022 C   0  0  0  0  0  0  0  0  0  0  0  0
   -1.3075   -0.3172    0.0368 C   0  0  0  0  0  0  0  0  0  0  0  0
    1.3097    2.1268    0.6812 C   0  0  0  0  0  0  0  0  0  0  0  0
   -0.2784   -2.6270   -0.2843 C   0  0  0  0  0  0  0  0  0  0  0  0
    2.3000   -0.8492    0.2399 C   0  0  0  0  0  0  0  0  0  0  0  0
   -2.6963   -0.6133   -0.1291 C   0  0  0  0  0  0  0  0  0  0  0  0
    4.5977   -0.2782   -0.1494 C   0  0  0  0  0  0  0  0  0  0  0  0
   -4.9379    0.2559   -0.1613 C   0  0  0  0  0  0  0  0  0  0  0  0
    5.4355    0.8933   -0.6155 C   0  0  0  0  0  0  0  0  0  0  0  0
   -5.6700    1.5699    0.0086 C   0  0  0  0  0  0  0  0  0  0  0  0
   -1.4002    1.7706    0.3943 H   0  0  0  0  0  0  0  0  0  0  0  0
    0.7134    2.8518    1.2451 H   0  0  0  0  0  0  0  0  0  0  0  0
    2.2215    1.9407    1.2558 H   0  0  0  0  0  0  0  0  0  0  0  0
   -0.6245   -3.1623    0.6057 H   0  0  0  0  0  0  0  0  0  0  0  0
   -0.9563   -2.8576   -1.1125 H   0  0  0  0  0  0  0  0  0  0  0  0
    0.6961   -3.0344   -0.5663 H   0  0  0  0  0  0  0  0  0  0  0  0
    4.8890   -0.5615    0.8679 H   0  0  0  0  0  0  0  0  0  0  0  0
    4.7443   -1.1307   -0.8215 H   0  0  0  0  0  0  0  0  0  0  0  0
   -5.1321   -0.1515   -1.1594 H   0  0  0  0  0  0  0  0  0  0  0  0
   -5.2766   -0.4591    0.5965 H   0  0  0  0  0  0  0  0  0  0  0  0
    2.2843    2.1356   -1.0130 H   0  0  0  0  0  0  0  0  0  0  0  0
    6.4986    0.6374   -0.6194 H   0  0  0  0  0  0  0  0  0  0  0  0
    5.1411    1.1997   -1.6247 H   0  0  0  0  0  0  0  0  0  0  0  0
    5.2820    1.7597    0.0363 H   0  0  0  0  0  0  0  0  0  0  0  0
   -6.7492    1.4337   -0.1040 H   0  0  0  0  0  0  0  0  0  0  0  0
   -5.4685    1.9984    0.9959 H   0  0  0  0  0  0  0  0  0  0  0  0
   -5.3265    2.3007   -0.7310 H   0  0  0  0  0  0  0  0  0  0  0  0
  1 13  1  0  0  0  0
  1 15  1  0  0  0  0
  2 14  1  0  0  0  0
  2 16  1  0  0  0  0
  3 11  1  0  0  0  0
  3 29  1  0  0  0  0
  4 13  2  0  0  0  0
  5 14  2  0  0  0  0
  6  9  1  0  0  0  0
  6 10  1  0  0  0  0
  6 19  1  0  0  0  0
  7  8  1  0  0  0  0
  7 10  2  0  0  0  0
  7 12  1  0  0  0  0
  8  9  2  0  0  0  0
  8 13  1  0  0  0  0
  9 11  1  0  0  0  0
 10 14  1  0  0  0  0
 11 20  1  0  0  0  0
 11 21  1  0  0  0  0
 12 22  1  0  0  0  0
 12 23  1  0  0  0  0
 12 24  1  0  0  0  0
 15 17  1  0  0  0  0
 15 25  1  0  0  0  0
 15 26  1  0  0  0  0
 16 18  1  0  0  0  0
 16 27  1  0  0  0  0
 16 28  1  0  0  0  0
 17 30  1  0  0  0  0
 17 31  1  0  0  0  0
 17 32  1  0  0  0  0
 18 33  1  0  0  0  0
 18 34  1  0  0  0  0
 18 35  1  0  0  0  0
M  END
> <PUBCHEM_COMPOUND_CID>
138495

> <PUBCHEM_CONFORMER_RMSD>
0.8

> <PUBCHEM_CONFORMER_DIVERSEORDER>
1
30
48
38
31
12
34
21
40
24
25
47
19
36
20
29
26
11
7
8
44
39
33
6
28
41
4
35
37
17
46
16
42
27
45
22
32
5
43
49
15
10
23
3
13
14
2
9
18

> <PUBCHEM_MMFF94_PARTIAL_CHARGES>
18
1 -0.43
10 -0.24
11 0.46
12 0.18
13 0.81
14 0.81
15 0.28
16 0.28
19 0.27
2 -0.43
29 0.4
3 -0.68
4 -0.57
5 -0.57
6 0.03
7 -0.18
8 -0.09
9 -0.33

> <PUBCHEM_EFFECTIVE_ROTOR_COUNT>
7

> <PUBCHEM_PHARMACOPHORE_FEATURES>
7
1 3 acceptor
1 3 donor
1 4 acceptor
1 5 acceptor
1 6 cation
1 6 donor
5 6 7 8 9 10 rings

> <PUBCHEM_HEAVY_ATOM_COUNT>
18

> <PUBCHEM_ATOM_DEF_STEREO_COUNT>
0

> <PUBCHEM_ATOM_UDEF_STEREO_COUNT>
0

> <PUBCHEM_BOND_DEF_STEREO_COUNT>
0

> <PUBCHEM_BOND_UDEF_STEREO_COUNT>
0

> <PUBCHEM_ISOTOPIC_ATOM_COUNT>
0

> <PUBCHEM_COMPONENT_COUNT>
1

> <PUBCHEM_CACTVS_TAUTO_COUNT>
3

> <PUBCHEM_CONFORMER_ID>
00021CFF00000001

> <PUBCHEM_MMFF94_ENERGY>
21.4812

> <PUBCHEM_FEATURE_SELFOVERLAP>
35.522

> <PUBCHEM_SHAPE_FINGERPRINT>
10967382 1 18339921519850779395
11401426 45 18343299275416236690
11471102 20 18339355271768474695
13760787 19 18408039615213499243
14790565 3 18339649944673907465
14911166 2 18342459257233274782
14993402 34 18343303669273385962
15048467 5 18114183029472205116
15099037 51 18413108368075077591
15196674 1 18340205301435677656
15242433 33 18410855438690612375
15475509 8 17772776916769256044
15536298 74 18129659850103623864
1601671 61 18410291384925119876
16945 1 18337658815236442458
18186145 218 18338504331198842517
20671657 1 18193278721935887765
21029758 11 18202284714695007400
21304253 335 18335706087165699852
21709351 56 18412535527592799701
23402539 116 18272364278919726102
23402655 69 18413103953080877327
23558518 356 17974000953360827074
23559900 14 18272651277635569378
25 1 18409161091731041519
2748010 2 18196365927585655446
293599 30 18410857654856456567
335352 9 18411699885432834036
34934 24 18411414034116836346
350125 39 18338520867155540227
4340502 62 16660648435997979482
5104073 3 18337668727867734810
537710 114 18410294701230618640
7364860 26 17985262121846465952

> <PUBCHEM_SHAPE_MULTIPOLES>
336.1
10.1
2.39
0.7
3.99
0.03
-0.01
3.64
1.64
-0.24
0.06
-0.23
0.07
-0.45

> <PUBCHEM_SHAPE_SELFOVERLAP>
687.441

> <PUBCHEM_SHAPE_VOLUME>
196.4

> <PUBCHEM_COORDINATE_TYPE>
2
5
10

$$$$
