139157
  -OEChem-11012401163D

 22 23  0     0  0  0  0  0  0999 V2000
    1.5450    0.7989   -0.0001 N   0  0  0  0  0  0  0  0  0  0  0  0
    0.3609    0.1358    0.0000 N   0  0  0  0  0  0  0  0  0  0  0  0
    2.9873   -1.1257   -0.0015 N   0  0  0  0  0  0  0  0  0  0  0  0
    4.3276   -1.1105   -0.0005 N   0  0  0  0  0  0  0  0  0  0  0  0
    3.8864    0.9526    0.0011 N   0  0  0  0  0  0  0  0  0  0  0  0
    4.9036    0.0997    0.0007 N   0  0  0  0  0  0  0  0  0  0  0  0
   -2.0483    0.3701    0.0003 C   0  0  0  0  0  0  0  0  0  0  0  0
   -3.1389    1.2396   -0.0006 C   0  0  0  0  0  0  0  0  0  0  0  0
   -2.2561   -1.0092    0.0011 C   0  0  0  0  0  0  0  0  0  0  0  0
   -4.4372    0.7299   -0.0007 C   0  0  0  0  0  0  0  0  0  0  0  0
   -3.5544   -1.5191    0.0007 C   0  0  0  0  0  0  0  0  0  0  0  0
   -0.6946    0.9013    0.0001 C   0  0  0  0  0  0  0  0  0  0  0  0
   -4.6451   -0.6495   -0.0002 C   0  0  0  0  0  0  0  0  0  0  0  0
    2.7638    0.1861   -0.0003 C   0  0  0  0  0  0  0  0  0  0  0  0
   -2.9933    2.3168   -0.0012 H   0  0  0  0  0  0  0  0  0  0  0  0
   -1.4260   -1.7107    0.0018 H   0  0  0  0  0  0  0  0  0  0  0  0
   -0.5939    2.0027   -0.0001 H   0  0  0  0  0  0  0  0  0  0  0  0
   -5.2866    1.4068   -0.0014 H   0  0  0  0  0  0  0  0  0  0  0  0
   -3.7165   -2.5930    0.0012 H   0  0  0  0  0  0  0  0  0  0  0  0
   -5.6561   -1.0465   -0.0004 H   0  0  0  0  0  0  0  0  0  0  0  0
    1.5093    1.8158    0.0011 H   0  0  0  0  0  0  0  0  0  0  0  0
    4.8743   -1.9649   -0.0012 H   0  0  0  0  0  0  0  0  0  0  0  0
  1  2  1  0  0  0  0
  1 14  1  0  0  0  0
  1 21  1  0  0  0  0
  2 12  2  3  0  0  0
  3  4  1  0  0  0  0
  3 14  2  0  0  0  0
  4  6  1  0  0  0  0
  4 22  1  0  0  0  0
  5  6  2  0  0  0  0
  5 14  1  0  0  0  0
  7  8  2  0  0  0  0
  7  9  1  0  0  0  0
  7 12  1  0  0  0  0
  8 10  1  0  0  0  0
  8 15  1  0  0  0  0
  9 11  2  0  0  0  0
  9 16  1  0  0  0  0
 10 13  2  0  0  0  0
 10 18  1  0  0  0  0
 11 13  1  0  0  0  0
 11 19  1  0  0  0  0
 12 17  1  0  0  0  0
 13 20  1  0  0  0  0
M  END
> <PUBCHEM_COMPOUND_CID>
139157

> <PUBCHEM_CONFORMER_RMSD>
0.6

> <PUBCHEM_CONFORMER_DIVERSEORDER>
1
3
2
4
5

> <PUBCHEM_MMFF94_PARTIAL_CHARGES>
22
1 -0.44
10 -0.15
11 -0.15
12 0.3
13 -0.15
14 0.6
15 0.15
16 0.15
17 0.06
18 0.15
19 0.15
2 -0.49
20 0.15
21 0.4
22 0.27
3 -0.71
4 0.57
5 -0.23
6 -0.42
7 0.09
8 -0.15
9 -0.15

> <PUBCHEM_EFFECTIVE_ROTOR_COUNT>
3

> <PUBCHEM_PHARMACOPHORE_FEATURES>
5
1 1 donor
1 2 acceptor
4 1 3 5 14 cation
5 3 4 5 6 14 rings
6 7 8 9 10 11 13 rings

> <PUBCHEM_HEAVY_ATOM_COUNT>
14

> <PUBCHEM_ATOM_DEF_STEREO_COUNT>
0

> <PUBCHEM_ATOM_UDEF_STEREO_COUNT>
0

> <PUBCHEM_BOND_DEF_STEREO_COUNT>
0

> <PUBCHEM_BOND_UDEF_STEREO_COUNT>
1

> <PUBCHEM_ISOTOPIC_ATOM_COUNT>
0

> <PUBCHEM_COMPONENT_COUNT>
1

> <PUBCHEM_CACTVS_TAUTO_COUNT>
4

> <PUBCHEM_CONFORMER_ID>
00021F9500000001

> <PUBCHEM_MMFF94_ENERGY>
24.7759

> <PUBCHEM_FEATURE_SELFOVERLAP>
25.371

> <PUBCHEM_SHAPE_FINGERPRINT>
10014705 185 18186798072085422685
10465860 250 17917991672349394633
10680689 15 17821449041177550797
11987891 38 18411421704369127814
12107183 9 17690561883863023328
124424 183 17989203750830863769
13167823 11 18408884031579817066
14123238 8 18410012143315507476
14252887 29 17275111613409035398
15196674 1 18410575076121045830
15242433 33 18408887334414780022
17834072 33 18336549408098981604
17834074 16 18412265021192572151
18186145 218 15792014518864567141
1986462 14 18407760326701787269
200 152 17988921180568680387
20279233 1 17846787303560769551
20645477 70 18340769239427230310
22485316 2 18410572889940071914
23402539 116 18259697891650178517
23559900 14 18341888619241330368
26918003 58 18273211984798430312
300161 21 18335976523638232588
42 15 18411139129843749269
4214541 1 18410856534028611621
42788 4 18410575088963457381
4921388 177 16515975864520754475
5104073 3 18411981364366947912
573450 72 18335975389893311457
77779 3 18410575093332290696
9709674 26 18410581686091766038

> <PUBCHEM_SHAPE_MULTIPOLES>
258.23
11.11
1.37
0.58
7.08
0.22
0
1.46
0
-0.64
0
-0.13
0
0

> <PUBCHEM_SHAPE_SELFOVERLAP>
548.095

> <PUBCHEM_SHAPE_VOLUME>
142.8

> <PUBCHEM_COORDINATE_TYPE>
2
5
10

$$$$
