519820
  -OEChem-11012401283D

 25 24  0     0  0  0  0  0  0999 V2000
   -0.1076   -1.8752   -0.4139 O   0  0  0  0  0  0  0  0  0  0  0  0
   -2.4097    0.5920    0.0984 O   0  0  0  0  0  0  0  0  0  0  0  0
    2.4927    0.4641    0.1037 O   0  0  0  0  0  0  0  0  0  0  0  0
    0.0706    2.6005    1.1481 O   0  5  0  0  0  0  0  0  0  0  0  0
   -0.0022    0.8240    2.4493 O   0  0  0  0  0  0  0  0  0  0  0  0
   -0.0987   -3.3504    1.2343 O   0  5  0  0  0  0  0  0  0  0  0  0
   -3.3982    1.3818   -1.7160 O   0  5  0  0  0  0  0  0  0  0  0  0
    3.5070    1.2370   -1.7037 O   0  5  0  0  0  0  0  0  0  0  0  0
   -0.2348   -4.1011   -0.8608 O   0  0  0  0  0  0  0  0  0  0  0  0
   -4.6776    0.7088   -0.0183 O   0  0  0  0  0  0  0  0  0  0  0  0
    4.7627    0.4716   -0.0277 O   0  0  0  0  0  0  0  0  0  0  0  0
    0.0404    1.3841    1.3510 N   0  3  0  0  0  0  0  0  0  0  0  0
   -0.1519   -3.2315    0.0097 N   0  3  0  0  0  0  0  0  0  0  0  0
   -3.6075    0.9179   -0.5944 N   0  3  0  0  0  0  0  0  0  0  0  0
    3.7006    0.7436   -0.5920 N   0  3  0  0  0  0  0  0  0  0  0  0
    0.0326    0.4990    0.1470 C   0  0  0  0  0  0  0  0  0  0  0  0
   -0.0116   -0.9480    0.6627 C   0  0  0  0  0  0  0  0  0  0  0  0
   -1.2295    0.8697   -0.6482 C   0  0  0  0  0  0  0  0  0  0  0  0
    1.3227    0.8122   -0.6293 C   0  0  0  0  0  0  0  0  0  0  0  0
   -0.8882   -1.0910    1.3110 H   0  0  0  0  0  0  0  0  0  0  0  0
    0.8951   -1.1686    1.2440 H   0  0  0  0  0  0  0  0  0  0  0  0
   -1.2018    1.9323   -0.9272 H   0  0  0  0  0  0  0  0  0  0  0  0
   -1.2382    0.2754   -1.5722 H   0  0  0  0  0  0  0  0  0  0  0  0
    1.3505    1.8777   -0.8973 H   0  0  0  0  0  0  0  0  0  0  0  0
    1.3009    0.2290   -1.5604 H   0  0  0  0  0  0  0  0  0  0  0  0
  1 13  1  0  0  0  0
  1 17  1  0  0  0  0
  2 14  1  0  0  0  0
  2 18  1  0  0  0  0
  3 15  1  0  0  0  0
  3 19  1  0  0  0  0
  4 12  1  0  0  0  0
  5 12  2  0  0  0  0
  6 13  1  0  0  0  0
  7 14  1  0  0  0  0
  8 15  1  0  0  0  0
  9 13  2  0  0  0  0
 10 14  2  0  0  0  0
 11 15  2  0  0  0  0
 12 16  1  0  0  0  0
 16 17  1  0  0  0  0
 16 18  1  0  0  0  0
 16 19  1  0  0  0  0
 17 20  1  0  0  0  0
 17 21  1  0  0  0  0
 18 22  1  0  0  0  0
 18 23  1  0  0  0  0
 19 24  1  0  0  0  0
 19 25  1  0  0  0  0
M  CHG  8   4  -1   6  -1   7  -1   8  -1  12   1  13   1  14   1  15   1
M  END
> <PUBCHEM_COMPOUND_CID>
519820

> <PUBCHEM_CONFORMER_RMSD>
1

> <PUBCHEM_CONFORMER_DIVERSEORDER>
1
4
3
11
6
10
5
12
13
8
2
7
9

> <PUBCHEM_MMFF94_PARTIAL_CHARGES>
19
1 -0.27
10 -0.52
11 -0.52
12 0.8
13 1.03
14 1.03
15 1.03
16 0.24
17 0.28
18 0.28
19 0.28
2 -0.27
3 -0.27
4 -0.52
5 -0.52
6 -0.52
7 -0.52
8 -0.52
9 -0.52

> <PUBCHEM_EFFECTIVE_ROTOR_COUNT>
10

> <PUBCHEM_PHARMACOPHORE_FEATURES>
9
1 10 acceptor
1 11 acceptor
1 4 acceptor
1 4 anion
1 5 acceptor
1 6 acceptor
1 7 acceptor
1 8 acceptor
1 9 acceptor

> <PUBCHEM_HEAVY_ATOM_COUNT>
19

> <PUBCHEM_ATOM_DEF_STEREO_COUNT>
0

> <PUBCHEM_ATOM_UDEF_STEREO_COUNT>
0

> <PUBCHEM_BOND_DEF_STEREO_COUNT>
0

> <PUBCHEM_BOND_UDEF_STEREO_COUNT>
0

> <PUBCHEM_ISOTOPIC_ATOM_COUNT>
0

> <PUBCHEM_COMPONENT_COUNT>
1

> <PUBCHEM_CACTVS_TAUTO_COUNT>
1

> <PUBCHEM_CONFORMER_ID>
0007EE8C00000001

> <PUBCHEM_MMFF94_ENERGY>
58.9588

> <PUBCHEM_FEATURE_SELFOVERLAP>
45.969

> <PUBCHEM_SHAPE_FINGERPRINT>
10922049 32 17095526183909918640
11578080 2 17766855191823523424
116883 192 17692803109615236703
12592029 89 18040716913978961850
12715332 25 18339928219894207615
12716301 132 18266444593793068203
13149001 5 18057601164695785144
14115302 16 18410016572155056420
14943834 7 17551802416847286953
15502722 9 18117839902335881415
16945 1 17847059977981101004
17041 49 9799406793533769325
18186145 218 18343014514668809980
187816 3 18273498966071316628
20602899 9 18341347625366110142
20645476 183 18260827133183917678
20711985 344 17830722515171796778
21524375 3 17821729437753655404
23402539 116 18060420184029759524
23419403 2 17128737100320301026
298252 57 18113615702931323760
3250762 1 17695057095351043281
68419 9 17172609770189164944
81228 2 17615391998046583555
81539 233 18187360970251063295

> <PUBCHEM_SHAPE_MULTIPOLES>
306.52
5.97
3.5
1.49
0.72
5.98
-0.48
-4.27
2.79
-0.51
-0.07
0
-0.52
0.03

> <PUBCHEM_SHAPE_SELFOVERLAP>
604.562

> <PUBCHEM_SHAPE_VOLUME>
181.7

> <PUBCHEM_COORDINATE_TYPE>
2
5
10

$$$$
