136607
  -OEChem-11012401073D

 29 31  0     0  0  0  0  0  0999 V2000
    1.2779    0.0000    0.0000 C   0  0  0  0  0  0  0  0  0  0  0  0
   -0.7975    1.4339    0.2473 C   0  0  0  0  0  0  0  0  0  0  0  0
   -0.7976   -0.5028   -1.3654 C   0  0  0  0  0  0  0  0  0  0  0  0
   -0.7978   -0.9310    1.1181 C   0  0  0  0  0  0  0  0  0  0  0  0
    0.7411    1.4299    0.2467 C   0  0  0  0  0  0  0  0  0  0  0  0
    0.7411   -0.5014   -1.3616 C   0  0  0  0  0  0  0  0  0  0  0  0
    0.7410   -0.9287    1.1149 C   0  0  0  0  0  0  0  0  0  0  0  0
   -1.3056    0.9265   -1.1125 C   0  0  0  0  0  0  0  0  0  0  0  0
   -1.3056    0.5003    1.3585 C   0  0  0  0  0  0  0  0  0  0  0  0
   -1.3058   -1.4266   -0.2461 C   0  0  0  0  0  0  0  0  0  0  0  0
    2.8089   -0.0001    0.0000 C   0  0  0  0  0  0  0  0  0  0  0  0
   -1.1643    2.4513    0.4228 H   0  0  0  0  0  0  0  0  0  0  0  0
   -1.1644   -0.8595   -2.3343 H   0  0  0  0  0  0  0  0  0  0  0  0
   -1.1645   -1.5918    1.9115 H   0  0  0  0  0  0  0  0  0  0  0  0
    1.1109    2.1130   -0.5289 H   0  0  0  0  0  0  0  0  0  0  0  0
    1.1108    1.8136    1.2064 H   0  0  0  0  0  0  0  0  0  0  0  0
    1.1108   -1.5146   -1.5653 H   0  0  0  0  0  0  0  0  0  0  0  0
    1.1107    0.1379   -2.1738 H   0  0  0  0  0  0  0  0  0  0  0  0
    1.1108   -0.5986    2.0943 H   0  0  0  0  0  0  0  0  0  0  0  0
    1.1106   -1.9516    0.9673 H   0  0  0  0  0  0  0  0  0  0  0  0
   -2.4022    0.9429   -1.1322 H   0  0  0  0  0  0  0  0  0  0  0  0
   -0.9628    1.5932   -1.9133 H   0  0  0  0  0  0  0  0  0  0  0  0
   -0.9629    0.8603    2.3363 H   0  0  0  0  0  0  0  0  0  0  0  0
   -2.4022    0.5093    1.3826 H   0  0  0  0  0  0  0  0  0  0  0  0
   -2.4024   -1.4518   -0.2505 H   0  0  0  0  0  0  0  0  0  0  0  0
   -0.9631   -2.4535   -0.4232 H   0  0  0  0  0  0  0  0  0  0  0  0
    3.2039    0.3530    0.9590 H   0  0  0  0  0  0  0  0  0  0  0  0
    3.2039   -1.0071   -0.1737 H   0  0  0  0  0  0  0  0  0  0  0  0
    3.2040    0.6538   -0.7852 H   0  0  0  0  0  0  0  0  0  0  0  0
  1  5  1  0  0  0  0
  1  6  1  0  0  0  0
  1  7  1  0  0  0  0
  1 11  1  0  0  0  0
  2  5  1  0  0  0  0
  2  8  1  0  0  0  0
  2  9  1  0  0  0  0
  2 12  1  0  0  0  0
  3  6  1  0  0  0  0
  3  8  1  0  0  0  0
  3 10  1  0  0  0  0
  3 13  1  0  0  0  0
  4  7  1  0  0  0  0
  4  9  1  0  0  0  0
  4 10  1  0  0  0  0
  4 14  1  0  0  0  0
  5 15  1  0  0  0  0
  5 16  1  0  0  0  0
  6 17  1  0  0  0  0
  6 18  1  0  0  0  0
  7 19  1  0  0  0  0
  7 20  1  0  0  0  0
  8 21  1  0  0  0  0
  8 22  1  0  0  0  0
  9 23  1  0  0  0  0
  9 24  1  0  0  0  0
 10 25  1  0  0  0  0
 10 26  1  0  0  0  0
 11 27  1  0  0  0  0
 11 28  1  0  0  0  0
 11 29  1  0  0  0  0
M  END
> <PUBCHEM_COMPOUND_CID>
136607

> <PUBCHEM_CONFORMER_RMSD>
0.4

> <PUBCHEM_CONFORMER_DIVERSEORDER>
1

> <PUBCHEM_MMFF94_PARTIAL_CHARGES>
0

> <PUBCHEM_EFFECTIVE_ROTOR_COUNT>
1.2

> <PUBCHEM_PHARMACOPHORE_FEATURES>
4
6 1 2 3 5 6 8 rings
6 1 2 4 5 7 9 rings
6 1 3 4 6 7 10 rings
6 2 3 4 8 9 10 rings

> <PUBCHEM_HEAVY_ATOM_COUNT>
11

> <PUBCHEM_ATOM_DEF_STEREO_COUNT>
0

> <PUBCHEM_ATOM_UDEF_STEREO_COUNT>
0

> <PUBCHEM_BOND_DEF_STEREO_COUNT>
0

> <PUBCHEM_BOND_UDEF_STEREO_COUNT>
0

> <PUBCHEM_ISOTOPIC_ATOM_COUNT>
0

> <PUBCHEM_COMPONENT_COUNT>
1

> <PUBCHEM_CACTVS_TAUTO_COUNT>
1

> <PUBCHEM_CONFORMER_ID>
0002159F00000001

> <PUBCHEM_MMFF94_ENERGY>
26.0378

> <PUBCHEM_FEATURE_SELFOVERLAP>
32.814

> <PUBCHEM_SHAPE_FINGERPRINT>
10702982 57 18044921386108254484
12423570 1 12584913411831466029
13024252 1 17530683208233502338
137420 1 13412648056201647471
14817 1 11579384499108119945
15557651 10 18046936812381194525
16945 1 17985857966590092043
369184 2 18334853918303401120
5084963 1 18337950211624406568
528886 8 17631439090659145925
68250623 7 18125447655074239917

> <PUBCHEM_SHAPE_MULTIPOLES>
226.37
2.27
1.48
1.48
1.57
0.2
0.06
0
0
-0.39
-0.06
-0.39
-0.2
0

> <PUBCHEM_SHAPE_SELFOVERLAP>
489.419

> <PUBCHEM_SHAPE_VOLUME>
115.1

> <PUBCHEM_COORDINATE_TYPE>
2
5
10

$$$$
