5463075
  -OEChem-10312420392D

203202  0     0  0  0  0  0  0999 V2000
   20.1865    3.5600    0.0000 O   0  0  0  0  0  0  0  0  0  0  0  0
   17.5885    3.0600    0.0000 O   0  0  0  0  0  0  0  0  0  0  0  0
   18.4545    1.5600    0.0000 O   0  0  0  0  0  0  0  0  0  0  0  0
   21.0526    2.0600    0.0000 O   0  0  0  0  0  0  0  0  0  0  0  0
   16.7224    4.5600    0.0000 O   0  0  0  0  0  0  0  0  0  0  0  0
   19.3205    0.0600    0.0000 O   0  0  0  0  0  0  0  0  0  0  0  0
   26.2487    3.0600    0.0000 C   0  0  0  0  0  0  0  0  0  0  0  0
   27.1147    3.5600    0.0000 C   0  0  0  0  0  0  0  0  0  0  0  0
   25.3827    3.5600    0.0000 C   0  0  0  0  0  0  0  0  0  0  0  0
   11.5263    3.5600    0.0000 C   0  0  0  0  0  0  0  0  0  0  0  0
   15.8564   -3.9400    0.0000 C   0  0  0  0  0  0  0  0  0  0  0  0
   10.6603    3.0600    0.0000 C   0  0  0  0  0  0  0  0  0  0  0  0
   14.9904   -4.4400    0.0000 C   0  0  0  0  0  0  0  0  0  0  0  0
   12.3923    3.0600    0.0000 C   0  0  0  0  0  0  0  0  0  0  0  0
   15.8564   -2.9400    0.0000 C   0  0  0  0  0  0  0  0  0  0  0  0
   27.9808    3.0600    0.0000 C   0  0  0  0  0  0  0  0  0  0  0  0
   24.5167    3.0600    0.0000 C   0  0  0  0  0  0  0  0  0  0  0  0
    9.7942    3.5600    0.0000 C   0  0  0  0  0  0  0  0  0  0  0  0
   14.9904   -5.4400    0.0000 C   0  0  0  0  0  0  0  0  0  0  0  0
   13.2583    3.5600    0.0000 C   0  0  0  0  0  0  0  0  0  0  0  0
   16.7224   -2.4400    0.0000 C   0  0  0  0  0  0  0  0  0  0  0  0
   28.8468    3.5600    0.0000 C   0  0  0  0  0  0  0  0  0  0  0  0
    8.9282    3.0600    0.0000 C   0  0  0  0  0  0  0  0  0  0  0  0
   14.1244   -5.9400    0.0000 C   0  0  0  0  0  0  0  0  0  0  0  0
   23.6506    3.5600    0.0000 C   0  0  0  0  0  0  0  0  0  0  0  0
   14.1244    3.0600    0.0000 C   0  0  0  0  0  0  0  0  0  0  0  0
   16.7224   -1.4400    0.0000 C   0  0  0  0  0  0  0  0  0  0  0  0
   29.7128    3.0600    0.0000 C   0  0  0  0  0  0  0  0  0  0  0  0
    8.0622    3.5600    0.0000 C   0  0  0  0  0  0  0  0  0  0  0  0
   14.1244   -6.9400    0.0000 C   0  0  0  0  0  0  0  0  0  0  0  0
   22.7846    3.0600    0.0000 C   0  0  0  0  0  0  0  0  0  0  0  0
   14.9904    3.5600    0.0000 C   0  0  0  0  0  0  0  0  0  0  0  0
   17.5885   -0.9400    0.0000 C   0  0  0  0  0  0  0  0  0  0  0  0
   30.5788    3.5600    0.0000 C   0  0  0  0  0  0  0  0  0  0  0  0
    7.1962    3.0600    0.0000 C   0  0  0  0  0  0  0  0  0  0  0  0
   13.2583   -7.4400    0.0000 C   0  0  0  0  0  0  0  0  0  0  0  0
   21.9186    3.5600    0.0000 C   0  0  0  0  0  0  0  0  0  0  0  0
   15.8564    3.0600    0.0000 C   0  0  0  0  0  0  0  0  0  0  0  0
   17.5885    0.0600    0.0000 C   0  0  0  0  0  0  0  0  0  0  0  0
   19.3205    3.0600    0.0000 C   0  0  0  0  0  0  0  0  0  0  0  0
   33.1769    6.0600    0.0000 C   0  0  0  0  0  0  0  0  0  0  0  0
    4.5981    0.5600    0.0000 C   0  0  0  0  0  0  0  0  0  0  0  0
    9.7942   -8.4400    0.0000 C   0  0  0  0  0  0  0  0  0  0  0  0
   33.1769    5.0600    0.0000 C   0  0  0  0  0  0  0  0  0  0  0  0
   31.4449    3.0600    0.0000 C   0  0  0  0  0  0  0  0  0  0  0  0
    4.5981    1.5600    0.0000 C   0  0  0  0  0  0  0  0  0  0  0  0
   10.6603   -8.9400    0.0000 C   0  0  0  0  0  0  0  0  0  0  0  0
    6.3301    3.5600    0.0000 C   0  0  0  0  0  0  0  0  0  0  0  0
   13.2583   -8.4400    0.0000 C   0  0  0  0  0  0  0  0  0  0  0  0
   34.0429    6.5600    0.0000 C   0  0  0  0  0  0  0  0  0  0  0  0
    3.7320    0.0600    0.0000 C   0  0  0  0  0  0  0  0  0  0  0  0
    8.9282   -8.9400    0.0000 C   0  0  0  0  0  0  0  0  0  0  0  0
   32.3109    4.5600    0.0000 C   0  0  0  0  0  0  0  0  0  0  0  0
    5.4641    2.0600    0.0000 C   0  0  0  0  0  0  0  0  0  0  0  0
   11.5263   -8.4400    0.0000 C   0  0  0  0  0  0  0  0  0  0  0  0
   21.0526    3.0600    0.0000 C   0  0  0  0  0  0  0  0  0  0  0  0
   34.0429    7.5600    0.0000 C   0  0  0  0  0  0  0  0  0  0  0  0
    3.7320   -0.9400    0.0000 C   0  0  0  0  0  0  0  0  0  0  0  0
    8.0622   -8.4400    0.0000 C   0  0  0  0  0  0  0  0  0  0  0  0
   18.4545    3.5600    0.0000 C   0  0  0  0  0  0  0  0  0  0  0  0
   19.3205    2.0600    0.0000 C   0  0  0  0  0  0  0  0  0  0  0  0
   32.3109    3.5600    0.0000 C   0  0  0  0  0  0  0  0  0  0  0  0
   16.7224    3.5600    0.0000 C   0  0  0  0  0  0  0  0  0  0  0  0
   18.4545    0.5600    0.0000 C   0  0  0  0  0  0  0  0  0  0  0  0
    5.4641    3.0600    0.0000 C   0  0  0  0  0  0  0  0  0  0  0  0
   12.3923   -8.9400    0.0000 C   0  0  0  0  0  0  0  0  0  0  0  0
   34.9090    8.0600    0.0000 C   0  0  0  0  0  0  0  0  0  0  0  0
    2.8660   -1.4400    0.0000 C   0  0  0  0  0  0  0  0  0  0  0  0
    7.1962   -8.9400    0.0000 C   0  0  0  0  0  0  0  0  0  0  0  0
   34.9090    9.0600    0.0000 C   0  0  0  0  0  0  0  0  0  0  0  0
    2.8660   -2.4400    0.0000 C   0  0  0  0  0  0  0  0  0  0  0  0
    6.3301   -8.4400    0.0000 C   0  0  0  0  0  0  0  0  0  0  0  0
   35.7750    9.5600    0.0000 C   0  0  0  0  0  0  0  0  0  0  0  0
    2.0000   -2.9400    0.0000 C   0  0  0  0  0  0  0  0  0  0  0  0
    5.4641   -8.9400    0.0000 C   0  0  0  0  0  0  0  0  0  0  0  0
   25.8502    2.5850    0.0000 H   0  0  0  0  0  0  0  0  0  0  0  0
   26.6472    2.5850    0.0000 H   0  0  0  0  0  0  0  0  0  0  0  0
   27.5133    4.0350    0.0000 H   0  0  0  0  0  0  0  0  0  0  0  0
   26.7162    4.0350    0.0000 H   0  0  0  0  0  0  0  0  0  0  0  0
   25.7812    4.0350    0.0000 H   0  0  0  0  0  0  0  0  0  0  0  0
   24.9842    4.0350    0.0000 H   0  0  0  0  0  0  0  0  0  0  0  0
   11.9248    4.0350    0.0000 H   0  0  0  0  0  0  0  0  0  0  0  0
   11.1278    4.0350    0.0000 H   0  0  0  0  0  0  0  0  0  0  0  0
   16.0685   -4.5226    0.0000 H   0  0  0  0  0  0  0  0  0  0  0  0
   16.4670   -3.8323    0.0000 H   0  0  0  0  0  0  0  0  0  0  0  0
   10.2617    2.5850    0.0000 H   0  0  0  0  0  0  0  0  0  0  0  0
   11.0588    2.5850    0.0000 H   0  0  0  0  0  0  0  0  0  0  0  0
   14.7783   -3.8574    0.0000 H   0  0  0  0  0  0  0  0  0  0  0  0
   14.3798   -4.5477    0.0000 H   0  0  0  0  0  0  0  0  0  0  0  0
   11.9938    2.5850    0.0000 H   0  0  0  0  0  0  0  0  0  0  0  0
   12.7908    2.5850    0.0000 H   0  0  0  0  0  0  0  0  0  0  0  0
   15.6444   -2.3574    0.0000 H   0  0  0  0  0  0  0  0  0  0  0  0
   15.2458   -3.0477    0.0000 H   0  0  0  0  0  0  0  0  0  0  0  0
   27.5822    2.5850    0.0000 H   0  0  0  0  0  0  0  0  0  0  0  0
   28.3793    2.5850    0.0000 H   0  0  0  0  0  0  0  0  0  0  0  0
   24.1181    2.5850    0.0000 H   0  0  0  0  0  0  0  0  0  0  0  0
   24.9152    2.5850    0.0000 H   0  0  0  0  0  0  0  0  0  0  0  0
   10.1928    4.0350    0.0000 H   0  0  0  0  0  0  0  0  0  0  0  0
    9.3957    4.0350    0.0000 H   0  0  0  0  0  0  0  0  0  0  0  0
   15.2024   -6.0226    0.0000 H   0  0  0  0  0  0  0  0  0  0  0  0
   15.6010   -5.3323    0.0000 H   0  0  0  0  0  0  0  0  0  0  0  0
   13.6569    4.0350    0.0000 H   0  0  0  0  0  0  0  0  0  0  0  0
   12.8598    4.0350    0.0000 H   0  0  0  0  0  0  0  0  0  0  0  0
   16.9345   -3.0226    0.0000 H   0  0  0  0  0  0  0  0  0  0  0  0
   17.3330   -2.3323    0.0000 H   0  0  0  0  0  0  0  0  0  0  0  0
   29.2453    4.0350    0.0000 H   0  0  0  0  0  0  0  0  0  0  0  0
   28.4483    4.0350    0.0000 H   0  0  0  0  0  0  0  0  0  0  0  0
    8.5297    2.5850    0.0000 H   0  0  0  0  0  0  0  0  0  0  0  0
    9.3267    2.5850    0.0000 H   0  0  0  0  0  0  0  0  0  0  0  0
   13.9123   -5.3574    0.0000 H   0  0  0  0  0  0  0  0  0  0  0  0
   13.5138   -6.0477    0.0000 H   0  0  0  0  0  0  0  0  0  0  0  0
   24.0492    4.0350    0.0000 H   0  0  0  0  0  0  0  0  0  0  0  0
   23.2521    4.0350    0.0000 H   0  0  0  0  0  0  0  0  0  0  0  0
   13.7258    2.5850    0.0000 H   0  0  0  0  0  0  0  0  0  0  0  0
   14.5229    2.5850    0.0000 H   0  0  0  0  0  0  0  0  0  0  0  0
   16.5104   -0.8574    0.0000 H   0  0  0  0  0  0  0  0  0  0  0  0
   16.1119   -1.5477    0.0000 H   0  0  0  0  0  0  0  0  0  0  0  0
   29.3143    2.5850    0.0000 H   0  0  0  0  0  0  0  0  0  0  0  0
   30.1113    2.5850    0.0000 H   0  0  0  0  0  0  0  0  0  0  0  0
    8.4607    4.0350    0.0000 H   0  0  0  0  0  0  0  0  0  0  0  0
    7.6636    4.0350    0.0000 H   0  0  0  0  0  0  0  0  0  0  0  0
   14.3364   -7.5226    0.0000 H   0  0  0  0  0  0  0  0  0  0  0  0
   14.7349   -6.8323    0.0000 H   0  0  0  0  0  0  0  0  0  0  0  0
   22.3861    2.5850    0.0000 H   0  0  0  0  0  0  0  0  0  0  0  0
   23.1831    2.5850    0.0000 H   0  0  0  0  0  0  0  0  0  0  0  0
   15.3889    4.0350    0.0000 H   0  0  0  0  0  0  0  0  0  0  0  0
   14.5919    4.0350    0.0000 H   0  0  0  0  0  0  0  0  0  0  0  0
   17.8005   -1.5226    0.0000 H   0  0  0  0  0  0  0  0  0  0  0  0
   18.1990   -0.8323    0.0000 H   0  0  0  0  0  0  0  0  0  0  0  0
   30.9774    4.0350    0.0000 H   0  0  0  0  0  0  0  0  0  0  0  0
   30.1803    4.0350    0.0000 H   0  0  0  0  0  0  0  0  0  0  0  0
    6.7976    2.5850    0.0000 H   0  0  0  0  0  0  0  0  0  0  0  0
    7.5947    2.5850    0.0000 H   0  0  0  0  0  0  0  0  0  0  0  0
   13.0463   -6.8574    0.0000 H   0  0  0  0  0  0  0  0  0  0  0  0
   12.6477   -7.5477    0.0000 H   0  0  0  0  0  0  0  0  0  0  0  0
   22.3171    4.0350    0.0000 H   0  0  0  0  0  0  0  0  0  0  0  0
   21.5201    4.0350    0.0000 H   0  0  0  0  0  0  0  0  0  0  0  0
   15.4579    2.5850    0.0000 H   0  0  0  0  0  0  0  0  0  0  0  0
   16.2549    2.5850    0.0000 H   0  0  0  0  0  0  0  0  0  0  0  0
   17.3764    0.6426    0.0000 H   0  0  0  0  0  0  0  0  0  0  0  0
   16.9779   -0.0477    0.0000 H   0  0  0  0  0  0  0  0  0  0  0  0
   19.8574    2.7500    0.0000 H   0  0  0  0  0  0  0  0  0  0  0  0
   32.9649    6.6426    0.0000 H   0  0  0  0  0  0  0  0  0  0  0  0
   32.5663    5.9523    0.0000 H   0  0  0  0  0  0  0  0  0  0  0  0
    4.8101   -0.0226    0.0000 H   0  0  0  0  0  0  0  0  0  0  0  0
    5.2087    0.6677    0.0000 H   0  0  0  0  0  0  0  0  0  0  0  0
   10.1928   -7.9650    0.0000 H   0  0  0  0  0  0  0  0  0  0  0  0
    9.3957   -7.9650    0.0000 H   0  0  0  0  0  0  0  0  0  0  0  0
   33.3890    4.4774    0.0000 H   0  0  0  0  0  0  0  0  0  0  0  0
   33.7875    5.1677    0.0000 H   0  0  0  0  0  0  0  0  0  0  0  0
   31.4449    2.4400    0.0000 H   0  0  0  0  0  0  0  0  0  0  0  0
    4.3860    2.1426    0.0000 H   0  0  0  0  0  0  0  0  0  0  0  0
    3.9875    1.4523    0.0000 H   0  0  0  0  0  0  0  0  0  0  0  0
   10.2617   -9.4149    0.0000 H   0  0  0  0  0  0  0  0  0  0  0  0
   11.0588   -9.4149    0.0000 H   0  0  0  0  0  0  0  0  0  0  0  0
    6.3301    4.1800    0.0000 H   0  0  0  0  0  0  0  0  0  0  0  0
   13.7953   -8.7500    0.0000 H   0  0  0  0  0  0  0  0  0  0  0  0
   34.2550    5.9774    0.0000 H   0  0  0  0  0  0  0  0  0  0  0  0
   34.6535    6.6677    0.0000 H   0  0  0  0  0  0  0  0  0  0  0  0
    3.5200    0.6426    0.0000 H   0  0  0  0  0  0  0  0  0  0  0  0
    3.1215   -0.0477    0.0000 H   0  0  0  0  0  0  0  0  0  0  0  0
    8.5297   -9.4149    0.0000 H   0  0  0  0  0  0  0  0  0  0  0  0
    9.3267   -9.4149    0.0000 H   0  0  0  0  0  0  0  0  0  0  0  0
   32.0988    5.1426    0.0000 H   0  0  0  0  0  0  0  0  0  0  0  0
   31.7003    4.4523    0.0000 H   0  0  0  0  0  0  0  0  0  0  0  0
    5.6762    1.4774    0.0000 H   0  0  0  0  0  0  0  0  0  0  0  0
    6.0747    2.1677    0.0000 H   0  0  0  0  0  0  0  0  0  0  0  0
   11.9248   -7.9650    0.0000 H   0  0  0  0  0  0  0  0  0  0  0  0
   11.1278   -7.9650    0.0000 H   0  0  0  0  0  0  0  0  0  0  0  0
   33.8309    8.1426    0.0000 H   0  0  0  0  0  0  0  0  0  0  0  0
   33.4324    7.4523    0.0000 H   0  0  0  0  0  0  0  0  0  0  0  0
    3.9441   -1.5226    0.0000 H   0  0  0  0  0  0  0  0  0  0  0  0
    4.3426   -0.8323    0.0000 H   0  0  0  0  0  0  0  0  0  0  0  0
    8.4607   -7.9650    0.0000 H   0  0  0  0  0  0  0  0  0  0  0  0
    7.6636   -7.9650    0.0000 H   0  0  0  0  0  0  0  0  0  0  0  0
   18.8530    4.0350    0.0000 H   0  0  0  0  0  0  0  0  0  0  0  0
   18.0560    4.0350    0.0000 H   0  0  0  0  0  0  0  0  0  0  0  0
   19.5326    1.4774    0.0000 H   0  0  0  0  0  0  0  0  0  0  0  0
   19.9311    2.1677    0.0000 H   0  0  0  0  0  0  0  0  0  0  0  0
   32.8478    3.2500    0.0000 H   0  0  0  0  0  0  0  0  0  0  0  0
    4.9272    3.3700    0.0000 H   0  0  0  0  0  0  0  0  0  0  0  0
   12.3923   -9.5600    0.0000 H   0  0  0  0  0  0  0  0  0  0  0  0
   35.1210    7.4774    0.0000 H   0  0  0  0  0  0  0  0  0  0  0  0
   35.5195    8.1677    0.0000 H   0  0  0  0  0  0  0  0  0  0  0  0
    2.6540   -0.8574    0.0000 H   0  0  0  0  0  0  0  0  0  0  0  0
    2.2554   -1.5477    0.0000 H   0  0  0  0  0  0  0  0  0  0  0  0
    6.7976   -9.4149    0.0000 H   0  0  0  0  0  0  0  0  0  0  0  0
    7.5947   -9.4149    0.0000 H   0  0  0  0  0  0  0  0  0  0  0  0
   34.6969    9.6426    0.0000 H   0  0  0  0  0  0  0  0  0  0  0  0
   34.2984    8.9523    0.0000 H   0  0  0  0  0  0  0  0  0  0  0  0
    3.0781   -3.0226    0.0000 H   0  0  0  0  0  0  0  0  0  0  0  0
    3.4766   -2.3323    0.0000 H   0  0  0  0  0  0  0  0  0  0  0  0
    6.7287   -7.9650    0.0000 H   0  0  0  0  0  0  0  0  0  0  0  0
    5.9316   -7.9650    0.0000 H   0  0  0  0  0  0  0  0  0  0  0  0
   36.0850    9.0231    0.0000 H   0  0  0  0  0  0  0  0  0  0  0  0
   36.3119    9.8700    0.0000 H   0  0  0  0  0  0  0  0  0  0  0  0
   35.4650   10.0969    0.0000 H   0  0  0  0  0  0  0  0  0  0  0  0
    1.6900   -2.4031    0.0000 H   0  0  0  0  0  0  0  0  0  0  0  0
    1.4631   -3.2500    0.0000 H   0  0  0  0  0  0  0  0  0  0  0  0
    2.3100   -3.4769    0.0000 H   0  0  0  0  0  0  0  0  0  0  0  0
    5.1541   -8.4031    0.0000 H   0  0  0  0  0  0  0  0  0  0  0  0
    4.9272   -9.2500    0.0000 H   0  0  0  0  0  0  0  0  0  0  0  0
    5.7741   -9.4769    0.0000 H   0  0  0  0  0  0  0  0  0  0  0  0
  1 40  1  0  0  0  0
  1 56  1  0  0  0  0
  2 60  1  0  0  0  0
  2 63  1  0  0  0  0
  3 61  1  0  0  0  0
  3 64  1  0  0  0  0
  4 56  2  0  0  0  0
  5 63  2  0  0  0  0
  6 64  2  0  0  0  0
  7  8  1  0  0  0  0
  7  9  1  0  0  0  0
  7 76  1  0  0  0  0
  7 77  1  0  0  0  0
  8 16  1  0  0  0  0
  8 78  1  0  0  0  0
  8 79  1  0  0  0  0
  9 17  1  0  0  0  0
  9 80  1  0  0  0  0
  9 81  1  0  0  0  0
 10 12  1  0  0  0  0
 10 14  1  0  0  0  0
 10 82  1  0  0  0  0
 10 83  1  0  0  0  0
 11 13  1  0  0  0  0
 11 15  1  0  0  0  0
 11 84  1  0  0  0  0
 11 85  1  0  0  0  0
 12 18  1  0  0  0  0
 12 86  1  0  0  0  0
 12 87  1  0  0  0  0
 13 19  1  0  0  0  0
 13 88  1  0  0  0  0
 13 89  1  0  0  0  0
 14 20  1  0  0  0  0
 14 90  1  0  0  0  0
 14 91  1  0  0  0  0
 15 21  1  0  0  0  0
 15 92  1  0  0  0  0
 15 93  1  0  0  0  0
 16 22  1  0  0  0  0
 16 94  1  0  0  0  0
 16 95  1  0  0  0  0
 17 25  1  0  0  0  0
 17 96  1  0  0  0  0
 17 97  1  0  0  0  0
 18 23  1  0  0  0  0
 18 98  1  0  0  0  0
 18 99  1  0  0  0  0
 19 24  1  0  0  0  0
 19100  1  0  0  0  0
 19101  1  0  0  0  0
 20 26  1  0  0  0  0
 20102  1  0  0  0  0
 20103  1  0  0  0  0
 21 27  1  0  0  0  0
 21104  1  0  0  0  0
 21105  1  0  0  0  0
 22 28  1  0  0  0  0
 22106  1  0  0  0  0
 22107  1  0  0  0  0
 23 29  1  0  0  0  0
 23108  1  0  0  0  0
 23109  1  0  0  0  0
 24 30  1  0  0  0  0
 24110  1  0  0  0  0
 24111  1  0  0  0  0
 25 31  1  0  0  0  0
 25112  1  0  0  0  0
 25113  1  0  0  0  0
 26 32  1  0  0  0  0
 26114  1  0  0  0  0
 26115  1  0  0  0  0
 27 33  1  0  0  0  0
 27116  1  0  0  0  0
 27117  1  0  0  0  0
 28 34  1  0  0  0  0
 28118  1  0  0  0  0
 28119  1  0  0  0  0
 29 35  1  0  0  0  0
 29120  1  0  0  0  0
 29121  1  0  0  0  0
 30 36  1  0  0  0  0
 30122  1  0  0  0  0
 30123  1  0  0  0  0
 31 37  1  0  0  0  0
 31124  1  0  0  0  0
 31125  1  0  0  0  0
 32 38  1  0  0  0  0
 32126  1  0  0  0  0
 32127  1  0  0  0  0
 33 39  1  0  0  0  0
 33128  1  0  0  0  0
 33129  1  0  0  0  0
 34 45  1  0  0  0  0
 34130  1  0  0  0  0
 34131  1  0  0  0  0
 35 48  1  0  0  0  0
 35132  1  0  0  0  0
 35133  1  0  0  0  0
 36 49  1  0  0  0  0
 36134  1  0  0  0  0
 36135  1  0  0  0  0
 37 56  1  0  0  0  0
 37136  1  0  0  0  0
 37137  1  0  0  0  0
 38 63  1  0  0  0  0
 38138  1  0  0  0  0
 38139  1  0  0  0  0
 39 64  1  0  0  0  0
 39140  1  0  0  0  0
 39141  1  0  0  0  0
 40 60  1  0  0  0  0
 40 61  1  0  0  0  0
 40142  1  0  0  0  0
 41 44  1  0  0  0  0
 41 50  1  0  0  0  0
 41143  1  0  0  0  0
 41144  1  0  0  0  0
 42 46  1  0  0  0  0
 42 51  1  0  0  0  0
 42145  1  0  0  0  0
 42146  1  0  0  0  0
 43 47  1  0  0  0  0
 43 52  1  0  0  0  0
 43147  1  0  0  0  0
 43148  1  0  0  0  0
 44 53  1  0  0  0  0
 44149  1  0  0  0  0
 44150  1  0  0  0  0
 45 62  2  0  0  0  0
 45151  1  0  0  0  0
 46 54  1  0  0  0  0
 46152  1  0  0  0  0
 46153  1  0  0  0  0
 47 55  1  0  0  0  0
 47154  1  0  0  0  0
 47155  1  0  0  0  0
 48 65  2  0  0  0  0
 48156  1  0  0  0  0
 49 66  2  0  0  0  0
 49157  1  0  0  0  0
 50 57  1  0  0  0  0
 50158  1  0  0  0  0
 50159  1  0  0  0  0
 51 58  1  0  0  0  0
 51160  1  0  0  0  0
 51161  1  0  0  0  0
 52 59  1  0  0  0  0
 52162  1  0  0  0  0
 52163  1  0  0  0  0
 53 62  1  0  0  0  0
 53164  1  0  0  0  0
 53165  1  0  0  0  0
 54 65  1  0  0  0  0
 54166  1  0  0  0  0
 54167  1  0  0  0  0
 55 66  1  0  0  0  0
 55168  1  0  0  0  0
 55169  1  0  0  0  0
 57 67  1  0  0  0  0
 57170  1  0  0  0  0
 57171  1  0  0  0  0
 58 68  1  0  0  0  0
 58172  1  0  0  0  0
 58173  1  0  0  0  0
 59 69  1  0  0  0  0
 59174  1  0  0  0  0
 59175  1  0  0  0  0
 60176  1  0  0  0  0
 60177  1  0  0  0  0
 61178  1  0  0  0  0
 61179  1  0  0  0  0
 62180  1  0  0  0  0
 65181  1  0  0  0  0
 66182  1  0  0  0  0
 67 70  1  0  0  0  0
 67183  1  0  0  0  0
 67184  1  0  0  0  0
 68 71  1  0  0  0  0
 68185  1  0  0  0  0
 68186  1  0  0  0  0
 69 72  1  0  0  0  0
 69187  1  0  0  0  0
 69188  1  0  0  0  0
 70 73  1  0  0  0  0
 70189  1  0  0  0  0
 70190  1  0  0  0  0
 71 74  1  0  0  0  0
 71191  1  0  0  0  0
 71192  1  0  0  0  0
 72 75  1  0  0  0  0
 72193  1  0  0  0  0
 72194  1  0  0  0  0
 73195  1  0  0  0  0
 73196  1  0  0  0  0
 73197  1  0  0  0  0
 74198  1  0  0  0  0
 74199  1  0  0  0  0
 74200  1  0  0  0  0
 75201  1  0  0  0  0
 75202  1  0  0  0  0
 75203  1  0  0  0  0
M  END
> <PUBCHEM_COMPOUND_CID>
5463075

> <PUBCHEM_COMPOUND_CANONICALIZED>
1

> <PUBCHEM_CACTVS_COMPLEXITY>
1190

> <PUBCHEM_CACTVS_HBOND_ACCEPTOR>
6

> <PUBCHEM_CACTVS_HBOND_DONOR>
0

> <PUBCHEM_CACTVS_ROTATABLE_BOND>
65

> <PUBCHEM_CACTVS_SUBSKEYS>
AAADcfB8OAAAAAAAAAAAAAAAAAAAAAAAAAAAAAAAAAAAAAAAAAAAGgAAAAAACBSggAICCAAABACIACDSCAAAAAAgAAAICAEAAAgBABIAAQACAAAFgAAKAAOIyKCAAAAAAAAAAAAAAAAAAAAAAAAAAAAAAA==

> <PUBCHEM_IUPAC_OPENEYE_NAME>
2,3-bis[[(Z)-docos-13-enoyl]oxy]propyl (Z)-docos-13-enoate

> <PUBCHEM_IUPAC_CAS_NAME>
(Z)-13-docosenoic acid 2,3-bis[(Z)-1-oxodocos-13-enoxy]propyl ester

> <PUBCHEM_IUPAC_NAME_MARKUP>
2,3-bis[[(<I>Z</I>)-docos-13-enoyl]oxy]propyl (<I>Z</I>)-docos-13-enoate

> <PUBCHEM_IUPAC_NAME>
2,3-bis[[(Z)-docos-13-enoyl]oxy]propyl (Z)-docos-13-enoate

> <PUBCHEM_IUPAC_SYSTEMATIC_NAME>
2,3-bis[[(Z)-docos-13-enoyl]oxy]propyl (Z)-docos-13-enoate

> <PUBCHEM_IUPAC_TRADITIONAL_NAME>
(Z)-docos-13-enoic acid 2,3-bis[[(Z)-docos-13-enoyl]oxy]propyl ester

> <PUBCHEM_IUPAC_INCHI>
InChI=1S/C69H128O6/c1-4-7-10-13-16-19-22-25-28-31-34-37-40-43-46-49-52-55-58-61-67(70)73-64-66(75-69(72)63-60-57-54-51-48-45-42-39-36-33-30-27-24-21-18-15-12-9-6-3)65-74-68(71)62-59-56-53-50-47-44-41-38-35-32-29-26-23-20-17-14-11-8-5-2/h25-30,66H,4-24,31-65H2,1-3H3/b28-25-,29-26-,30-27-

> <PUBCHEM_IUPAC_INCHIKEY>
XDSPGKDYYRNYJI-IUPFWZBJSA-N

> <PUBCHEM_XLOGP3_AA>
28.9

> <PUBCHEM_EXACT_MASS>
1052.97109180

> <PUBCHEM_MOLECULAR_FORMULA>
C69H128O6

> <PUBCHEM_MOLECULAR_WEIGHT>
1053.7

> <PUBCHEM_OPENEYE_CAN_SMILES>
CCCCCCCCC=CCCCCCCCCCCCC(=O)OCC(COC(=O)CCCCCCCCCCCC=CCCCCCCCC)OC(=O)CCCCCCCCCCCC=CCCCCCCCC

> <PUBCHEM_OPENEYE_ISO_SMILES>
CCCCCCCC/C=C\CCCCCCCCCCCC(=O)OCC(OC(=O)CCCCCCCCCCC/C=C\CCCCCCCC)COC(=O)CCCCCCCCCCC/C=C\CCCCCCCC

> <PUBCHEM_CACTVS_TPSA>
78.9

> <PUBCHEM_MONOISOTOPIC_WEIGHT>
1052.97109180

> <PUBCHEM_TOTAL_CHARGE>
0

> <PUBCHEM_HEAVY_ATOM_COUNT>
75

> <PUBCHEM_ATOM_DEF_STEREO_COUNT>
0

> <PUBCHEM_ATOM_UDEF_STEREO_COUNT>
0

> <PUBCHEM_BOND_DEF_STEREO_COUNT>
3

> <PUBCHEM_BOND_UDEF_STEREO_COUNT>
0

> <PUBCHEM_ISOTOPIC_ATOM_COUNT>
0

> <PUBCHEM_COMPONENT_COUNT>
1

> <PUBCHEM_CACTVS_TAUTO_COUNT>
-1

> <PUBCHEM_COORDINATE_TYPE>
1
5
255

$$$$
