1549166
  -OEChem-11012401253D

 29 30  0     0  0  0  0  0  0999 V2000
    0.4797   -0.0003   -0.4400 C   0  0  0  0  0  0  0  0  0  0  0  0
    1.9285   -0.0011   -0.1477 C   0  0  0  0  0  0  0  0  0  0  0  0
   -0.4703   -0.0006    0.5298 C   0  0  0  0  0  0  0  0  0  0  0  0
   -1.9137    0.0001    0.3520 C   0  0  0  0  0  0  0  0  0  0  0  0
    0.1162    0.0072   -1.9005 C   0  0  0  0  0  0  0  0  0  0  0  0
    2.5896   -1.2087   -0.0150 C   0  0  0  0  0  0  0  0  0  0  0  0
    2.5887    1.2072   -0.0157 C   0  0  0  0  0  0  0  0  0  0  0  0
   -2.6067    1.2077    0.2691 C   0  0  0  0  0  0  0  0  0  0  0  0
   -2.6048   -1.2082    0.2626 C   0  0  0  0  0  0  0  0  0  0  0  0
    3.9573   -1.2082    0.2588 C   0  0  0  0  0  0  0  0  0  0  0  0
    3.9565    1.2077    0.2582 C   0  0  0  0  0  0  0  0  0  0  0  0
    4.6408    0.0001    0.3954 C   0  0  0  0  0  0  0  0  0  0  0  0
   -3.9908    1.2071    0.0964 C   0  0  0  0  0  0  0  0  0  0  0  0
   -3.9889   -1.2087    0.0900 C   0  0  0  0  0  0  0  0  0  0  0  0
   -4.6820   -0.0012    0.0068 C   0  0  0  0  0  0  0  0  0  0  0  0
   -0.1556   -0.0033    1.5726 H   0  0  0  0  0  0  0  0  0  0  0  0
    0.5264   -0.8786   -2.3983 H   0  0  0  0  0  0  0  0  0  0  0  0
    0.5300    0.8956   -2.3906 H   0  0  0  0  0  0  0  0  0  0  0  0
   -0.9609    0.0102   -2.0890 H   0  0  0  0  0  0  0  0  0  0  0  0
    2.0679   -2.1561   -0.1201 H   0  0  0  0  0  0  0  0  0  0  0  0
    2.0664    2.1543   -0.1212 H   0  0  0  0  0  0  0  0  0  0  0  0
   -2.0820    2.1577    0.3367 H   0  0  0  0  0  0  0  0  0  0  0  0
   -2.0788   -2.1578    0.3252 H   0  0  0  0  0  0  0  0  0  0  0  0
    4.4903   -2.1485    0.3655 H   0  0  0  0  0  0  0  0  0  0  0  0
    4.4887    2.1484    0.3644 H   0  0  0  0  0  0  0  0  0  0  0  0
    5.7057    0.0005    0.6084 H   0  0  0  0  0  0  0  0  0  0  0  0
   -4.5305    2.1473    0.0316 H   0  0  0  0  0  0  0  0  0  0  0  0
   -4.5272   -2.1495    0.0201 H   0  0  0  0  0  0  0  0  0  0  0  0
   -5.7597   -0.0017   -0.1278 H   0  0  0  0  0  0  0  0  0  0  0  0
  1  2  1  0  0  0  0
  1  3  2  0  0  0  0
  1  5  1  0  0  0  0
  2  6  2  0  0  0  0
  2  7  1  0  0  0  0
  3  4  1  0  0  0  0
  3 16  1  0  0  0  0
  4  8  2  0  0  0  0
  4  9  1  0  0  0  0
  5 17  1  0  0  0  0
  5 18  1  0  0  0  0
  5 19  1  0  0  0  0
  6 10  1  0  0  0  0
  6 20  1  0  0  0  0
  7 11  2  0  0  0  0
  7 21  1  0  0  0  0
  8 13  1  0  0  0  0
  8 22  1  0  0  0  0
  9 14  2  0  0  0  0
  9 23  1  0  0  0  0
 10 12  2  0  0  0  0
 10 24  1  0  0  0  0
 11 12  1  0  0  0  0
 11 25  1  0  0  0  0
 12 26  1  0  0  0  0
 13 15  2  0  0  0  0
 13 27  1  0  0  0  0
 14 15  1  0  0  0  0
 14 28  1  0  0  0  0
 15 29  1  0  0  0  0
M  END
> <PUBCHEM_COMPOUND_CID>
1549166

> <PUBCHEM_CONFORMER_RMSD>
0.6

> <PUBCHEM_CONFORMER_DIVERSEORDER>
1
2

> <PUBCHEM_MMFF94_PARTIAL_CHARGES>
26
1 -0.17
10 -0.15
11 -0.15
12 -0.15
13 -0.15
14 -0.15
15 -0.15
16 0.15
2 0.03
20 0.15
21 0.15
22 0.15
23 0.15
24 0.15
25 0.15
26 0.15
27 0.15
28 0.15
29 0.15
3 -0.18
4 0.03
5 0.14
6 -0.15
7 -0.15
8 -0.15
9 -0.15

> <PUBCHEM_EFFECTIVE_ROTOR_COUNT>
2

> <PUBCHEM_PHARMACOPHORE_FEATURES>
3
1 5 hydrophobe
6 2 6 7 10 11 12 rings
6 4 8 9 13 14 15 rings

> <PUBCHEM_HEAVY_ATOM_COUNT>
15

> <PUBCHEM_ATOM_DEF_STEREO_COUNT>
0

> <PUBCHEM_ATOM_UDEF_STEREO_COUNT>
0

> <PUBCHEM_BOND_DEF_STEREO_COUNT>
1

> <PUBCHEM_BOND_UDEF_STEREO_COUNT>
0

> <PUBCHEM_ISOTOPIC_ATOM_COUNT>
0

> <PUBCHEM_COMPONENT_COUNT>
1

> <PUBCHEM_CACTVS_TAUTO_COUNT>
1

> <PUBCHEM_CONFORMER_ID>
0017A36E00000001

> <PUBCHEM_MMFF94_ENERGY>
51.3604

> <PUBCHEM_FEATURE_SELFOVERLAP>
15.223

> <PUBCHEM_SHAPE_FINGERPRINT>
10014705 185 18260827081971598037
11370993 70 18410572885682671171
11401426 45 17385438826126958423
11615757 297 17132119073369582513
12107183 9 17689716363705622992
12251169 10 18411699902512541166
12500047 106 18411133658213910107
12507557 5 18131349725954780120
12670546 56 18408597050570921633
128620 24 14908181941073649745
13167823 11 18410571790476332771
13583140 156 18059847402457925531
13675066 3 17749115473989488753
14004511 7 18041002821546492489
14289901 80 18411419552553440178
15309172 13 16343985809995947919
15375462 478 18272088292389103564
15848700 24 16660359294546804134
17834072 33 18408887364806533844
1813 80 16588027887790823062
18186145 218 17821725031074628275
19050596 39 18412265046983208657
200 152 18202279212836268891
20279233 1 17988933262259105639
204376 136 16271924930302763942
20645477 56 18336551500175504325
20645477 70 18341613672752182942
21065199 12 18410293614023546794
21267235 1 18410583885051367370
22485316 2 18335136488106616002
22854114 59 18408039619771755936
23402539 116 18343294856517479013
23557571 272 18201449047134756317
23559900 14 18271526377791819258
265663 24 18343299266752481551
26918003 58 18409727365614493442
351380 180 18341891892053681057
3545911 37 18411703183598594864
42 15 18334577931952081282
4214541 1 18410292488963843121
5104073 3 18410857659188348129
5374978 207 18342457049382779577
542803 24 17458348541349456100
573450 72 18335976502368988459
69090 78 18408884044565036763
7495541 125 17703223039777982011
74978 22 15575293097781087177
77779 3 18410857659172522992
8272917 22 18201444614612345582
9709674 26 18411145735625490835
9971528 1 17676206870915653220
9981440 41 16886967773506962517

> <PUBCHEM_SHAPE_MULTIPOLES>
308.69
10.05
1.39
0.93
0.42
0
-0.44
0
1.59
0.01
0.12
-0.07
0
0

> <PUBCHEM_SHAPE_SELFOVERLAP>
660.898

> <PUBCHEM_SHAPE_VOLUME>
162.6

> <PUBCHEM_COORDINATE_TYPE>
2
5
10

$$$$
