150529276
  -OEChem-11012401143D

 21 20  0     1  0  0  0  0  0999 V2000
   -1.6224    0.3444    1.6793 O   0  0  0  0  0  0  0  0  0  0  0  0
    1.6957    2.3952    0.2016 O   0  0  0  0  0  0  0  0  0  0  0  0
    1.0326   -2.1734    1.0796 O   0  0  0  0  0  0  0  0  0  0  0  0
   -2.7743   -0.5577   -1.5966 O   0  0  0  0  0  0  0  0  0  0  0  0
    3.1394    0.8747   -0.6731 O   0  0  0  0  0  0  0  0  0  0  0  0
    2.1440   -1.6948   -0.8371 O   0  0  0  0  0  0  0  0  0  0  0  0
   -3.7078    0.6985    0.0473 O   0  0  0  0  0  0  0  0  0  0  0  0
   -0.2857    0.3877   -0.3189 C   0  0  0  0  0  0  0  0  0  0  0  0
    1.0609    0.1188    0.3784 C   0  0  0  0  0  0  0  0  0  0  0  0
   -1.4900   -0.2395    0.3909 C   0  0  2  0  0  0  0  0  0  0  0  0
    2.0893    1.1305   -0.1025 C   0  0  0  0  0  0  0  0  0  0  0  0
    1.4874   -1.3200    0.1261 C   0  0  0  0  0  0  0  0  0  0  0  0
   -2.7692    0.0357   -0.3749 C   0  0  0  0  0  0  0  0  0  0  0  0
   -0.4654    1.4682   -0.3907 H   0  0  0  0  0  0  0  0  0  0  0  0
   -0.2345    0.0244   -1.3540 H   0  0  0  0  0  0  0  0  0  0  0  0
    0.9933    0.2593    1.4647 H   0  0  0  0  0  0  0  0  0  0  0  0
   -1.3842   -1.3219    0.5103 H   0  0  0  0  0  0  0  0  0  0  0  0
   -2.3290   -0.1337    2.1463 H   0  0  0  0  0  0  0  0  0  0  0  0
    2.3501    3.0628   -0.0956 H   0  0  0  0  0  0  0  0  0  0  0  0
    1.3005   -3.0996    0.8990 H   0  0  0  0  0  0  0  0  0  0  0  0
   -3.6072   -0.3830   -2.0844 H   0  0  0  0  0  0  0  0  0  0  0  0
  1 10  1  0  0  0  0
  1 18  1  0  0  0  0
  2 11  1  0  0  0  0
  2 19  1  0  0  0  0
  3 12  1  0  0  0  0
  3 20  1  0  0  0  0
  4 13  1  0  0  0  0
  4 21  1  0  0  0  0
  5 11  2  0  0  0  0
  6 12  2  0  0  0  0
  7 13  2  0  0  0  0
  8  9  1  0  0  0  0
  8 10  1  0  0  0  0
  8 14  1  0  0  0  0
  8 15  1  0  0  0  0
  9 11  1  0  0  0  0
  9 12  1  0  0  0  0
  9 16  1  0  0  0  0
 10 13  1  0  0  0  0
 10 17  1  0  0  0  0
M  END
> <PUBCHEM_COMPOUND_CID>
150529276

> <PUBCHEM_CONFORMER_RMSD>
0.6

> <PUBCHEM_CONFORMER_DIVERSEORDER>
1
135
107
100
143
42
89
130
122
20
55
123
105
45
48
40
34
83
113
92
97
106
74
49
24
18
33
75
6
86
109
67
140
38
84
137
9
141
101
58
145
72
120
108
54
87
65
14
29
60
121
142
59
53
70
44
126
10
69
82
66
134
7
117
47
16
129
30
52
81
88
78
15
46
19
64
103
13
128
71
12
28
138
51
96
73
76
125
43
3
91
56
112
99
119
124
63
39
131
27
90
57
21
36
95
25
93
2
11
17
110
102
111
94
98
132
61
144
79
115
32
133
41
80
85
136
114
104
22
50
118
68
35
116
31
8
139
77
127
37
62
5
4
26
23

> <PUBCHEM_MMFF94_PARTIAL_CHARGES>
16
1 -0.68
10 0.34
11 0.66
12 0.66
13 0.66
18 0.4
19 0.5
2 -0.65
20 0.5
21 0.5
3 -0.65
4 -0.65
5 -0.57
6 -0.57
7 -0.57
9 0.12

> <PUBCHEM_EFFECTIVE_ROTOR_COUNT>
5

> <PUBCHEM_PHARMACOPHORE_FEATURES>
12
1 1 acceptor
1 1 donor
1 2 acceptor
1 3 acceptor
1 4 acceptor
1 5 acceptor
1 6 acceptor
1 7 acceptor
1 9 anion
3 2 5 11 anion
3 3 6 12 anion
3 4 7 13 anion

> <PUBCHEM_HEAVY_ATOM_COUNT>
13

> <PUBCHEM_ATOM_DEF_STEREO_COUNT>
0

> <PUBCHEM_ATOM_UDEF_STEREO_COUNT>
1

> <PUBCHEM_BOND_DEF_STEREO_COUNT>
0

> <PUBCHEM_BOND_UDEF_STEREO_COUNT>
0

> <PUBCHEM_ISOTOPIC_ATOM_COUNT>
0

> <PUBCHEM_COMPONENT_COUNT>
1

> <PUBCHEM_CACTVS_TAUTO_COUNT>
-1

> <PUBCHEM_CONFORMER_ID>
08F8E4FC00000001

> <PUBCHEM_MMFF94_ENERGY>
14.1782

> <PUBCHEM_FEATURE_SELFOVERLAP>
61.586

> <PUBCHEM_SHAPE_FINGERPRINT>
1 1 18335416919764833436
107287 299 18114185254280991116
11031198 65 18260839206168272629
12138202 97 17458622384285423891
12326174 3 18336262349648987658
124424 183 17385991884781474064
12897270 3 18339641243190984813
12932764 1 17846491552466324513
14128692 85 17988920020511019482
14251711 518 18127146185643421176
15775835 57 18412266159379816501
15852999 172 17167852093381937987
16945 1 18271820050491150080
18186145 218 18127987488491096160
20201158 50 18186516600955091293
20279233 1 17385439912890873259
20361792 2 18124027927691111806
20606313 2 18408603652009573532
20645476 183 17917709128173572071
20645477 70 18411413978393174511
20871998 22 17982168920707085302
21028194 46 18119818151340050584
21499 59 18266458900403152652
21524375 3 18121204639908536596
21639500 275 18337381746701057188
21947302 44 18040428884792434481
22802520 49 17315624098259970757
22959321 8 18335711597418465852
230 275 16081360826446263791
23557571 272 16660357095898049439
23559900 14 15985106310750527604
23598291 2 18200873968409481957
25 1 18336552697954194420
2748010 2 17906747147547576400
3060560 45 18411415146175477076
63268167 104 18412834581258683752
7364860 26 18272084981121967672
8030462 33 17846782905556462793
81228 2 17110427603324426250
88987 49 16271646681173553161

> <PUBCHEM_SHAPE_MULTIPOLES>
226.45
4.93
1.83
1.11
2.97
0.16
0.07
-0.97
-1.18
-1.78
0.2
0.52
0.23
-0.24

> <PUBCHEM_SHAPE_SELFOVERLAP>
446.656

> <PUBCHEM_SHAPE_VOLUME>
133.4

> <PUBCHEM_COORDINATE_TYPE>
2
5
10

$$$$
