17889
  -OEChem-11012400303D

 30 31  0     0  0  0  0  0  0999 V2000
   -2.7152   -0.2154    0.0000 C   0  0  0  0  0  0  0  0  0  0  0  0
   -1.2662    0.1387    0.0002 C   0  0  0  0  0  0  0  0  0  0  0  0
   -3.4510    0.3524   -1.2580 C   0  0  0  0  0  0  0  0  0  0  0  0
   -3.4497    0.3447    1.2623 C   0  0  0  0  0  0  0  0  0  0  0  0
   -3.0267   -1.7517   -0.0044 C   0  0  0  0  0  0  0  0  0  0  0  0
   -0.3017   -0.8694    0.0000 C   0  0  0  0  0  0  0  0  0  0  0  0
   -0.8771    1.4749    0.0002 C   0  0  0  0  0  0  0  0  0  0  0  0
    1.0665   -0.5523    0.0001 C   0  0  0  0  0  0  0  0  0  0  0  0
    1.4622    0.8065   -0.0001 C   0  0  0  0  0  0  0  0  0  0  0  0
    0.4778    1.8082   -0.0001 C   0  0  0  0  0  0  0  0  0  0  0  0
    2.0507   -1.5541   -0.0003 C   0  0  0  0  0  0  0  0  0  0  0  0
    2.8303    1.1235    0.0000 C   0  0  0  0  0  0  0  0  0  0  0  0
    3.4055   -1.2210   -0.0001 C   0  0  0  0  0  0  0  0  0  0  0  0
    3.7945    0.1151    0.0002 C   0  0  0  0  0  0  0  0  0  0  0  0
   -4.5081    0.0629   -1.2674 H   0  0  0  0  0  0  0  0  0  0  0  0
   -3.4138    1.4468   -1.2905 H   0  0  0  0  0  0  0  0  0  0  0  0
   -2.9895   -0.0221   -2.1793 H   0  0  0  0  0  0  0  0  0  0  0  0
   -3.4111    1.4388    1.3018 H   0  0  0  0  0  0  0  0  0  0  0  0
   -4.5070    0.0560    1.2705 H   0  0  0  0  0  0  0  0  0  0  0  0
   -2.9879   -0.0362    2.1808 H   0  0  0  0  0  0  0  0  0  0  0  0
   -4.1081   -1.9349   -0.0054 H   0  0  0  0  0  0  0  0  0  0  0  0
   -2.6194   -2.2419   -0.8964 H   0  0  0  0  0  0  0  0  0  0  0  0
   -2.6202   -2.2470    0.8852 H   0  0  0  0  0  0  0  0  0  0  0  0
   -0.5711   -1.9212    0.0000 H   0  0  0  0  0  0  0  0  0  0  0  0
   -1.6078    2.2787    0.0006 H   0  0  0  0  0  0  0  0  0  0  0  0
    0.7591    2.8593   -0.0001 H   0  0  0  0  0  0  0  0  0  0  0  0
    1.7706   -2.6055   -0.0005 H   0  0  0  0  0  0  0  0  0  0  0  0
    3.1574    2.1612    0.0001 H   0  0  0  0  0  0  0  0  0  0  0  0
    4.1567   -2.0055   -0.0002 H   0  0  0  0  0  0  0  0  0  0  0  0
    4.8494    0.3737    0.0004 H   0  0  0  0  0  0  0  0  0  0  0  0
  1  2  1  0  0  0  0
  1  3  1  0  0  0  0
  1  4  1  0  0  0  0
  1  5  1  0  0  0  0
  2  6  2  0  0  0  0
  2  7  1  0  0  0  0
  3 15  1  0  0  0  0
  3 16  1  0  0  0  0
  3 17  1  0  0  0  0
  4 18  1  0  0  0  0
  4 19  1  0  0  0  0
  4 20  1  0  0  0  0
  5 21  1  0  0  0  0
  5 22  1  0  0  0  0
  5 23  1  0  0  0  0
  6  8  1  0  0  0  0
  6 24  1  0  0  0  0
  7 10  2  0  0  0  0
  7 25  1  0  0  0  0
  8  9  1  0  0  0  0
  8 11  2  0  0  0  0
  9 10  1  0  0  0  0
  9 12  2  0  0  0  0
 10 26  1  0  0  0  0
 11 13  1  0  0  0  0
 11 27  1  0  0  0  0
 12 14  1  0  0  0  0
 12 28  1  0  0  0  0
 13 14  2  0  0  0  0
 13 29  1  0  0  0  0
 14 30  1  0  0  0  0
M  END
> <PUBCHEM_COMPOUND_CID>
17889

> <PUBCHEM_CONFORMER_RMSD>
0.4

> <PUBCHEM_CONFORMER_DIVERSEORDER>
1
2

> <PUBCHEM_MMFF94_PARTIAL_CHARGES>
16
1 0.14
10 -0.15
11 -0.15
12 -0.15
13 -0.15
14 -0.15
2 -0.14
24 0.15
25 0.15
26 0.15
27 0.15
28 0.15
29 0.15
30 0.15
6 -0.15
7 -0.15

> <PUBCHEM_EFFECTIVE_ROTOR_COUNT>
1

> <PUBCHEM_PHARMACOPHORE_FEATURES>
3
4 1 3 4 5 hydrophobe
6 2 6 7 8 9 10 rings
6 8 9 11 12 13 14 rings

> <PUBCHEM_HEAVY_ATOM_COUNT>
14

> <PUBCHEM_ATOM_DEF_STEREO_COUNT>
0

> <PUBCHEM_ATOM_UDEF_STEREO_COUNT>
0

> <PUBCHEM_BOND_DEF_STEREO_COUNT>
0

> <PUBCHEM_BOND_UDEF_STEREO_COUNT>
0

> <PUBCHEM_ISOTOPIC_ATOM_COUNT>
0

> <PUBCHEM_COMPONENT_COUNT>
1

> <PUBCHEM_CACTVS_TAUTO_COUNT>
1

> <PUBCHEM_CONFORMER_ID>
000045E100000001

> <PUBCHEM_MMFF94_ENERGY>
49.2473

> <PUBCHEM_FEATURE_SELFOVERLAP>
15.249

> <PUBCHEM_SHAPE_FINGERPRINT>
10219947 1 18341895190519804238
10608611 8 18334851736054222685
10967382 1 18410855447443986310
10980938 120 18410292544940732214
11132069 177 18411411821865547274
11471102 20 18410288112344598324
11543360 7 15647350648938134774
11769659 78 18410006641552175962
11806522 49 18268144447459887671
12032990 46 18410298007980968118
12251169 10 18271536333641659955
12932764 1 17749104482999418755
13221675 6 18413107268848416286
13296908 3 18187364324509614987
13571099 22 18409722959025494461
13583140 156 14045448999693301007
13705890 14 15574717984696568234
13760787 5 18408608054277147052
14144814 61 18342459244121597603
14251717 144 18412539937833245758
14325111 11 18410856598331463972
14576447 43 18128522954758919391
14993402 34 18131345327876256583
15196674 1 18410574006816354086
15219456 202 18260545623689252045
15309172 13 18342742913985137739
15375462 189 18333735701734673619
15501101 241 18409167735876734420
15536298 74 18272370888826674704
16945 1 18410856564098488548
17844478 74 17967538960521007733
18186145 218 18408609149451654886
19026448 4 16588025714458177924
19026448 5 16630525137401315920
19107657 46 18411982476779606326
19422 9 18272656769944030351
200 152 18131339809186172453
20201158 50 18408038498495284210
20279233 1 18186516605387124159
20281407 28 18408604755615643568
20281475 54 18411985753955450734
20645477 70 18337945697440062799
21267235 1 18411710893086314910
21501502 16 18265340684076530491
221490 88 18191309488052183258
23402539 116 18261100886067925374
23402655 69 18411132515615388116
23463225 33 18410858758921534012
23559900 14 18336539435638548866
2748010 2 17977668941631286376
3312278 4 18409730664170358611
5104073 3 18412262852386984922
581208 293 18412257367987962624
63268167 104 18411699915350015777
7364860 26 18197777906621733936
77492 1 17703791426938343073
8809292 202 18187652426521046131

> <PUBCHEM_SHAPE_MULTIPOLES>
288.11
6.65
1.74
0.84
0.2
0.05
0
1.18
0
-0.29
0
0.78
-0.08
0

> <PUBCHEM_SHAPE_SELFOVERLAP>
618.77

> <PUBCHEM_SHAPE_VOLUME>
154.3

> <PUBCHEM_COORDINATE_TYPE>
2
5
10

$$$$
