143858
  -OEChem-11012400543D

 28 28  0     1  0  0  0  0  0999 V2000
    1.5501    0.2342   -1.9739 O   0  0  0  0  0  0  0  0  0  0  0  0
    3.5535    0.3873   -0.0347 O   0  0  0  0  0  0  0  0  0  0  0  0
   -0.0555   -3.2657   -0.5253 O   0  5  0  0  0  0  0  0  0  0  0  0
   -1.6154    3.5559    0.1232 O   0  5  0  0  0  0  0  0  0  0  0  0
    1.5340   -1.7808   -0.8216 O   0  0  0  0  0  0  0  0  0  0  0  0
    0.4453    2.9805   -0.3679 O   0  0  0  0  0  0  0  0  0  0  0  0
   -4.5242   -1.9004    0.5427 O   0  5  0  0  0  0  0  0  0  0  0  0
   -5.0118    0.2303    0.7456 O   0  0  0  0  0  0  0  0  0  0  0  0
    4.0791   -0.8463    1.7282 O   0  5  0  0  0  0  0  0  0  0  0  0
    5.7275    0.1090    0.5698 O   0  0  0  0  0  0  0  0  0  0  0  0
    0.3436   -2.0782   -0.5649 N   0  3  0  0  0  0  0  0  0  0  0  0
   -0.7455    2.6846   -0.1120 N   0  3  0  0  0  0  0  0  0  0  0  0
   -4.1905   -0.6911    0.5196 N   0  3  0  0  0  0  0  0  0  0  0  0
    4.5503   -0.1584    0.8219 N   0  3  0  0  0  0  0  0  0  0  0  0
   -0.1920    0.3056   -0.3414 C   0  0  0  0  0  0  0  0  0  0  0  0
    1.2319    0.6600   -0.6456 C   0  0  1  0  0  0  0  0  0  0  0  0
   -0.5863   -1.0321   -0.3104 C   0  0  0  0  0  0  0  0  0  0  0  0
   -1.1227    1.3131   -0.0873 C   0  0  0  0  0  0  0  0  0  0  0  0
    2.2295    0.0268    0.3323 C   0  0  0  0  0  0  0  0  0  0  0  0
   -1.9113   -1.3622   -0.0252 C   0  0  0  0  0  0  0  0  0  0  0  0
   -2.4477    0.9827    0.1979 C   0  0  0  0  0  0  0  0  0  0  0  0
   -2.8419   -0.3549    0.2290 C   0  0  0  0  0  0  0  0  0  0  0  0
    1.6292    1.6513   -0.7116 H   0  0  0  0  0  0  0  0  0  0  0  0
    2.0451    0.6359    1.2383 H   0  0  0  0  0  0  0  0  0  0  0  0
    2.1121   -0.9491    0.8100 H   0  0  0  0  0  0  0  0  0  0  0  0
   -2.2227   -2.4039    0.0002 H   0  0  0  0  0  0  0  0  0  0  0  0
   -3.1764    1.7651    0.3968 H   0  0  0  0  0  0  0  0  0  0  0  0
    2.5144    0.2920   -2.0881 H   0  0  0  0  0  0  0  0  0  0  0  0
  1 16  1  0  0  0  0
  1 28  1  0  0  0  0
  2 14  1  0  0  0  0
  2 19  1  0  0  0  0
  3 11  1  0  0  0  0
  4 12  1  0  0  0  0
  5 11  2  0  0  0  0
  6 12  2  0  0  0  0
  7 13  1  0  0  0  0
  8 13  2  0  0  0  0
  9 14  1  0  0  0  0
 10 14  2  0  0  0  0
 11 17  1  0  0  0  0
 12 18  1  0  0  0  0
 13 22  1  0  0  0  0
 15 16  1  0  0  0  0
 15 17  2  0  0  0  0
 15 18  1  0  0  0  0
 16 19  1  0  0  0  0
 16 23  1  0  0  0  0
 17 20  1  0  0  0  0
 18 21  2  0  0  0  0
 19 24  1  0  0  0  0
 19 25  1  0  0  0  0
 20 22  2  0  0  0  0
 20 26  1  0  0  0  0
 21 22  1  0  0  0  0
 21 27  1  0  0  0  0
M  CHG  8   3  -1   4  -1   7  -1   9  -1  11   1  12   1  13   1  14   1
M  END
> <PUBCHEM_COMPOUND_CID>
143858

> <PUBCHEM_CONFORMER_RMSD>
0.8

> <PUBCHEM_CONFORMER_DIVERSEORDER>
2
5
3
4
1

> <PUBCHEM_MMFF94_PARTIAL_CHARGES>
25
1 -0.68
10 -0.52
11 0.91
12 0.91
13 0.91
14 1.03
15 -0.14
16 0.42
17 0.13
18 0.13
19 0.28
2 -0.27
20 -0.15
21 -0.15
22 0.13
26 0.15
27 0.15
28 0.4
3 -0.52
4 -0.52
5 -0.52
6 -0.52
7 -0.52
8 -0.52
9 -0.52

> <PUBCHEM_EFFECTIVE_ROTOR_COUNT>
7

> <PUBCHEM_PHARMACOPHORE_FEATURES>
14
1 1 acceptor
1 1 donor
1 10 acceptor
1 3 acceptor
1 3 anion
1 4 acceptor
1 4 anion
1 5 acceptor
1 6 acceptor
1 7 acceptor
1 7 anion
1 8 acceptor
1 9 acceptor
6 15 17 18 20 21 22 rings

> <PUBCHEM_HEAVY_ATOM_COUNT>
22

> <PUBCHEM_ATOM_DEF_STEREO_COUNT>
0

> <PUBCHEM_ATOM_UDEF_STEREO_COUNT>
1

> <PUBCHEM_BOND_DEF_STEREO_COUNT>
0

> <PUBCHEM_BOND_UDEF_STEREO_COUNT>
0

> <PUBCHEM_ISOTOPIC_ATOM_COUNT>
0

> <PUBCHEM_COMPONENT_COUNT>
1

> <PUBCHEM_CACTVS_TAUTO_COUNT>
1

> <PUBCHEM_CONFORMER_ID>
000231F200000002

> <PUBCHEM_MMFF94_ENERGY>
136.1857

> <PUBCHEM_FEATURE_SELFOVERLAP>
71.418

> <PUBCHEM_SHAPE_FINGERPRINT>
10906281 52 18263383450695636513
10967382 1 18124044678611789781
1100329 8 18193275414847804562
11132069 177 18202568388467996663
11680986 33 17978792303017161591
11796584 16 16660359303458784867
12236239 1 17894633669162213356
12390115 104 18130236947774562648
12507560 14 18339924943113683629
12633257 1 17988633134344852490
12839892 36 18411975845361047187
12892183 10 18263630810957962586
12930653 34 18196934374780724092
13140716 1 18268148853890260819
13862211 1 18339358668892823367
14178342 30 18193564363088826172
14223421 5 18126007052915770654
14420673 8 17688862039715631018
14787075 74 17895193354645318290
14790565 3 18267604552854553269
15042514 8 18339079405692648126
15375462 478 18187080654794183426
16945 1 18339378404499319349
1813 80 17385444289737225262
19765921 60 12895065224200813892
19784866 170 18341614780784738291
20028762 73 17914901074377641903
20510252 161 18271806779089873328
20600515 1 18271814582676256261
21069387 34 16443072689789642993
21637258 2 16226315014882222570
22182313 1 18198065785183167143
2297311 6 18341059553720604924
2334 1 17764319731505936517
23402539 116 18272362109560269519
23419403 2 16026964550457312381
23557571 272 18199763456869599909
23558518 356 18045230340475733065
23559900 14 18196662783098632166
24859131 72 18335978671216735330
2748010 2 18123764049616984133
3250762 1 17836086671641994927
3286 77 18116433842097546383
34934 24 18339921520573459375
350125 39 18197788691437419630
4072396 5 18409728448310274587
4340502 62 15051740819352635647
43471831 8 18336265622366880306
465052 167 18114471174955360091
59554788 191 18260264140197031997
59755656 215 18266181638567846039
81228 2 18046369452060986105

> <PUBCHEM_SHAPE_MULTIPOLES>
374.13
8.12
2.97
1.01
4.25
1.31
-0.09
-1.92
4.1
-1.49
-0.41
0.8
-0.17
-0.07

> <PUBCHEM_SHAPE_SELFOVERLAP>
798.791

> <PUBCHEM_SHAPE_VOLUME>
206.4

> <PUBCHEM_COORDINATE_TYPE>
2
5
10

$$$$
