79051
  -OEChem-11012401093D

 20 19  0     0  0  0  0  0  0999 V2000
   -2.0372   -1.1012   -0.3038 O   0  0  0  0  0  0  0  0  0  0  0  0
   -0.4244    0.5758   -0.3119 N   0  0  0  0  0  0  0  0  0  0  0  0
   -2.4652    0.9184    0.7001 N   0  0  0  0  0  0  0  0  0  0  0  0
    1.8877   -0.2849   -0.2254 C   0  0  0  0  0  0  0  0  0  0  0  0
    0.5959   -0.1324   -1.0363 C   0  0  0  0  0  0  0  0  0  0  0  0
    1.6145   -1.0816    1.0509 C   0  0  0  0  0  0  0  0  0  0  0  0
    2.4962    1.0740    0.1277 C   0  0  0  0  0  0  0  0  0  0  0  0
   -1.6675    0.0319   -0.0012 C   0  0  0  0  0  0  0  0  0  0  0  0
    2.6109   -0.8390   -0.8364 H   0  0  0  0  0  0  0  0  0  0  0  0
    0.7924    0.4396   -1.9500 H   0  0  0  0  0  0  0  0  0  0  0  0
    0.2246   -1.1168   -1.3419 H   0  0  0  0  0  0  0  0  0  0  0  0
    2.5506   -1.2773    1.5853 H   0  0  0  0  0  0  0  0  0  0  0  0
    1.1587   -2.0496    0.8170 H   0  0  0  0  0  0  0  0  0  0  0  0
    0.9493   -0.5476    1.7375 H   0  0  0  0  0  0  0  0  0  0  0  0
    1.8581    1.6488    0.8068 H   0  0  0  0  0  0  0  0  0  0  0  0
    2.6619    1.6719   -0.7745 H   0  0  0  0  0  0  0  0  0  0  0  0
    3.4654    0.9407    0.6207 H   0  0  0  0  0  0  0  0  0  0  0  0
   -0.2581    1.5479   -0.0708 H   0  0  0  0  0  0  0  0  0  0  0  0
   -2.1419    1.8489    0.9425 H   0  0  0  0  0  0  0  0  0  0  0  0
   -3.4011    0.6621    0.9958 H   0  0  0  0  0  0  0  0  0  0  0  0
  1  8  2  0  0  0  0
  2  5  1  0  0  0  0
  2  8  1  0  0  0  0
  2 18  1  0  0  0  0
  3  8  1  0  0  0  0
  3 19  1  0  0  0  0
  3 20  1  0  0  0  0
  4  5  1  0  0  0  0
  4  6  1  0  0  0  0
  4  7  1  0  0  0  0
  4  9  1  0  0  0  0
  5 10  1  0  0  0  0
  5 11  1  0  0  0  0
  6 12  1  0  0  0  0
  6 13  1  0  0  0  0
  6 14  1  0  0  0  0
  7 15  1  0  0  0  0
  7 16  1  0  0  0  0
  7 17  1  0  0  0  0
M  END
> <PUBCHEM_COMPOUND_CID>
79051

> <PUBCHEM_CONFORMER_RMSD>
0.6

> <PUBCHEM_CONFORMER_DIVERSEORDER>
1
2

> <PUBCHEM_MMFF94_PARTIAL_CHARGES>
8
1 -0.57
18 0.37
19 0.37
2 -0.73
20 0.37
3 -0.8
5 0.3
8 0.69

> <PUBCHEM_EFFECTIVE_ROTOR_COUNT>
3

> <PUBCHEM_PHARMACOPHORE_FEATURES>
4
1 1 acceptor
1 2 donor
1 3 donor
3 4 6 7 hydrophobe

> <PUBCHEM_HEAVY_ATOM_COUNT>
8

> <PUBCHEM_ATOM_DEF_STEREO_COUNT>
0

> <PUBCHEM_ATOM_UDEF_STEREO_COUNT>
0

> <PUBCHEM_BOND_DEF_STEREO_COUNT>
0

> <PUBCHEM_BOND_UDEF_STEREO_COUNT>
0

> <PUBCHEM_ISOTOPIC_ATOM_COUNT>
0

> <PUBCHEM_COMPONENT_COUNT>
1

> <PUBCHEM_CACTVS_TAUTO_COUNT>
3

> <PUBCHEM_CONFORMER_ID>
000134CB00000001

> <PUBCHEM_MMFF94_ENERGY>
5.6801

> <PUBCHEM_FEATURE_SELFOVERLAP>
20.347

> <PUBCHEM_SHAPE_FINGERPRINT>
10857977 72 17489017275191705615
12932741 1 14836115580901800349
12932764 1 18187647972586835757
14390081 3 17632577162418961336
20096714 4 13254786954196833462
20651381 22 18341044241465719476
21040471 1 16558741321821923558
24536 1 17917705760465524300
29004967 10 16443067188015580076

> <PUBCHEM_SHAPE_MULTIPOLES>
148.8
3.77
1.16
0.96
0.85
0.12
-0.02
-0.46
0.72
-0.28
0.22
-0.07
0.07
-0.39

> <PUBCHEM_SHAPE_SELFOVERLAP>
270.276

> <PUBCHEM_SHAPE_VOLUME>
95.8

> <PUBCHEM_COORDINATE_TYPE>
2
5
10

$$$$
