78227
  -OEChem-11012401143D

 37 38  0     0  0  0  0  0  0999 V2000
    0.6186   -2.2799   -0.7803 O   0  0  0  0  0  0  0  0  0  0  0  0
   -1.3851   -1.1796   -0.3317 N   0  0  0  0  0  0  0  0  0  0  0  0
    0.6879   -0.3815    0.5677 N   0  0  0  0  0  0  0  0  0  0  0  0
   -2.2526   -2.3510   -0.5111 C   0  0  0  0  0  0  0  0  0  0  0  0
   -1.9604    0.1455   -0.2643 C   0  0  0  0  0  0  0  0  0  0  0  0
    0.0202   -1.3522   -0.2247 C   0  0  0  0  0  0  0  0  0  0  0  0
    2.0570   -0.0214    0.2731 C   0  0  0  0  0  0  0  0  0  0  0  0
   -2.7021   -2.9175    0.8198 C   0  0  0  0  0  0  0  0  0  0  0  0
   -1.2101    1.2000   -0.7141 C   0  0  0  0  0  0  0  0  0  0  0  0
   -3.2257    0.2757    0.2448 C   0  0  0  0  0  0  0  0  0  0  0  0
   -0.0170    0.2554    1.6878 C   0  0  0  0  0  0  0  0  0  0  0  0
    2.4811   -0.1000   -1.0274 C   0  0  0  0  0  0  0  0  0  0  0  0
    2.8572    0.3804    1.3103 C   0  0  0  0  0  0  0  0  0  0  0  0
   -1.7656    2.4779   -0.6500 C   0  0  0  0  0  0  0  0  0  0  0  0
   -3.7813    1.5535    0.3088 C   0  0  0  0  0  0  0  0  0  0  0  0
   -3.0511    2.6546   -0.1386 C   0  0  0  0  0  0  0  0  0  0  0  0
    3.8015    0.2484   -1.3115 C   0  0  0  0  0  0  0  0  0  0  0  0
    4.1777    0.7289    1.0261 C   0  0  0  0  0  0  0  0  0  0  0  0
    4.6497    0.6629   -0.2847 C   0  0  0  0  0  0  0  0  0  0  0  0
   -3.1095   -2.0795   -1.1378 H   0  0  0  0  0  0  0  0  0  0  0  0
   -1.6964   -3.1234   -1.0541 H   0  0  0  0  0  0  0  0  0  0  0  0
   -1.8410   -3.3258    1.3618 H   0  0  0  0  0  0  0  0  0  0  0  0
   -3.1733   -2.1996    1.4915 H   0  0  0  0  0  0  0  0  0  0  0  0
   -3.4061   -3.7402    0.6574 H   0  0  0  0  0  0  0  0  0  0  0  0
   -0.2467    1.0997   -1.1990 H   0  0  0  0  0  0  0  0  0  0  0  0
   -3.8470   -0.5409    0.5801 H   0  0  0  0  0  0  0  0  0  0  0  0
    0.5364    0.0346    2.6072 H   0  0  0  0  0  0  0  0  0  0  0  0
   -0.9984   -0.1700    1.9022 H   0  0  0  0  0  0  0  0  0  0  0  0
   -0.0419    1.3424    1.5764 H   0  0  0  0  0  0  0  0  0  0  0  0
    1.8382   -0.3850   -1.8532 H   0  0  0  0  0  0  0  0  0  0  0  0
    2.5365    0.4319    2.3433 H   0  0  0  0  0  0  0  0  0  0  0  0
   -1.2054    3.3331   -1.0170 H   0  0  0  0  0  0  0  0  0  0  0  0
   -4.7850    1.6913    0.7002 H   0  0  0  0  0  0  0  0  0  0  0  0
   -3.4860    3.6488   -0.0944 H   0  0  0  0  0  0  0  0  0  0  0  0
    4.1673    0.2047   -2.3332 H   0  0  0  0  0  0  0  0  0  0  0  0
    4.8396    1.0489    1.8256 H   0  0  0  0  0  0  0  0  0  0  0  0
    5.6775    0.9354   -0.5061 H   0  0  0  0  0  0  0  0  0  0  0  0
  1  6  2  0  0  0  0
  2  4  1  0  0  0  0
  2  5  1  0  0  0  0
  2  6  1  0  0  0  0
  3  6  1  0  0  0  0
  3  7  1  0  0  0  0
  3 11  1  0  0  0  0
  4  8  1  0  0  0  0
  4 20  1  0  0  0  0
  4 21  1  0  0  0  0
  5  9  2  0  0  0  0
  5 10  1  0  0  0  0
  7 12  2  0  0  0  0
  7 13  1  0  0  0  0
  8 22  1  0  0  0  0
  8 23  1  0  0  0  0
  8 24  1  0  0  0  0
  9 14  1  0  0  0  0
  9 25  1  0  0  0  0
 10 15  2  0  0  0  0
 10 26  1  0  0  0  0
 11 27  1  0  0  0  0
 11 28  1  0  0  0  0
 11 29  1  0  0  0  0
 12 17  1  0  0  0  0
 12 30  1  0  0  0  0
 13 18  2  0  0  0  0
 13 31  1  0  0  0  0
 14 16  2  0  0  0  0
 14 32  1  0  0  0  0
 15 16  1  0  0  0  0
 15 33  1  0  0  0  0
 16 34  1  0  0  0  0
 17 19  2  0  0  0  0
 17 35  1  0  0  0  0
 18 19  1  0  0  0  0
 18 36  1  0  0  0  0
 19 37  1  0  0  0  0
M  END
> <PUBCHEM_COMPOUND_CID>
78227

> <PUBCHEM_CONFORMER_RMSD>
0.6

> <PUBCHEM_CONFORMER_DIVERSEORDER>
4
3
12
8
1
9
7
2
6
5
10
11

> <PUBCHEM_MMFF94_PARTIAL_CHARGES>
28
1 -0.57
10 -0.15
11 0.3
12 -0.15
13 -0.15
14 -0.15
15 -0.15
16 -0.15
17 -0.15
18 -0.15
19 -0.15
2 -0.48
25 0.15
26 0.15
3 -0.48
30 0.15
31 0.15
32 0.15
33 0.15
34 0.15
35 0.15
36 0.15
37 0.15
4 0.3
5 0.12
6 0.69
7 0.12
9 -0.15

> <PUBCHEM_EFFECTIVE_ROTOR_COUNT>
5

> <PUBCHEM_PHARMACOPHORE_FEATURES>
3
1 1 acceptor
6 5 9 10 14 15 16 rings
6 7 12 13 17 18 19 rings

> <PUBCHEM_HEAVY_ATOM_COUNT>
19

> <PUBCHEM_ATOM_DEF_STEREO_COUNT>
0

> <PUBCHEM_ATOM_UDEF_STEREO_COUNT>
0

> <PUBCHEM_BOND_DEF_STEREO_COUNT>
0

> <PUBCHEM_BOND_UDEF_STEREO_COUNT>
0

> <PUBCHEM_ISOTOPIC_ATOM_COUNT>
0

> <PUBCHEM_COMPONENT_COUNT>
1

> <PUBCHEM_CACTVS_TAUTO_COUNT>
1

> <PUBCHEM_CONFORMER_ID>
0001319300000004

> <PUBCHEM_MMFF94_ENERGY>
98.5492

> <PUBCHEM_FEATURE_SELFOVERLAP>
15.223

> <PUBCHEM_SHAPE_FINGERPRINT>
10165383 225 18270974431433918601
10498660 4 18339634530268416829
10646746 165 18412821400536997072
11132069 177 18335422356966869245
12011746 2 18413385450102026197
12173636 292 18266454313525871221
12236239 1 17603581950247068972
12403259 415 17989209295960586688
12788726 201 17897739887857643866
13140716 1 18265336299326417097
13764800 53 18411984645885504545
14341114 328 17313399885027164777
16945 1 18408882936573880349
17357779 13 17843101848333531135
1741750 31 18341610369594797481
1813 80 17981053229816270471
18186145 218 17846779581410206576
18222031 100 17907860952837777559
200 152 16298934489458610082
20510252 161 18270401714603202706
20645477 56 18412826880482776048
20645477 70 16630533903909505188
21041028 32 17975142251368861139
21524375 3 18196082253638417399
22224240 67 18341622473952419825
23114952 82 17842003186565655511
23227448 37 18411136982360725077
23402539 116 18187359986587605142
23493267 7 18410855447517878762
23526113 38 17489298690012481194
23557571 272 18342463681091813756
23559900 14 18060422387943509646
25 1 17916865699195927688
2748010 2 18052802935028466621
350125 39 17977671900642265813
458136 41 18054240834249854491
5161694 15 17775008960070658700
6049 1 17917430998812828368
6442390 28 18269000795698891593
7097593 13 17751902658609296802
77492 1 17603579755603124790
7808743 9 18408889533797349012
81228 2 18337662126956849435
9925002 15 17408238530831522902

> <PUBCHEM_SHAPE_MULTIPOLES>
375.18
7.68
2.75
1.23
6.16
0.82
-0.23
-2.74
-0.15
-4.03
0.26
0.83
0
0.44

> <PUBCHEM_SHAPE_SELFOVERLAP>
797.88

> <PUBCHEM_SHAPE_VOLUME>
208.1

> <PUBCHEM_COORDINATE_TYPE>
2
5
10

$$$$
