252361
  -OEChem-11012401263D

 24 24  0     1  0  0  0  0  0999 V2000
   -1.2708   -0.3486    0.3247 C   0  0  1  0  0  0  0  0  0  0  0  0
    1.2709   -0.3483    0.3247 C   0  0  2  0  0  0  0  0  0  0  0  0
    0.0002   -1.1037   -0.0905 C   0  0  0  0  0  0  0  0  0  0  0  0
   -1.2630    1.0813   -0.2305 C   0  0  0  0  0  0  0  0  0  0  0  0
    1.2624    1.0814   -0.2310 C   0  0  0  0  0  0  0  0  0  0  0  0
   -0.0002    1.8355    0.1766 C   0  0  0  0  0  0  0  0  0  0  0  0
   -2.5187   -1.0990   -0.1372 C   0  0  0  0  0  0  0  0  0  0  0  0
    2.5191   -1.0985   -0.1369 C   0  0  0  0  0  0  0  0  0  0  0  0
   -1.2974   -0.2939    1.4213 H   0  0  0  0  0  0  0  0  0  0  0  0
    1.2975   -0.2933    1.4212 H   0  0  0  0  0  0  0  0  0  0  0  0
    0.0003   -2.1007    0.3678 H   0  0  0  0  0  0  0  0  0  0  0  0
    0.0001   -1.2565   -1.1780 H   0  0  0  0  0  0  0  0  0  0  0  0
   -2.1424    1.6276    0.1308 H   0  0  0  0  0  0  0  0  0  0  0  0
   -1.3316    1.0574   -1.3257 H   0  0  0  0  0  0  0  0  0  0  0  0
    1.3306    1.0572   -1.3262 H   0  0  0  0  0  0  0  0  0  0  0  0
    2.1419    1.6281    0.1296 H   0  0  0  0  0  0  0  0  0  0  0  0
   -0.0003    2.8293   -0.2853 H   0  0  0  0  0  0  0  0  0  0  0  0
    0.0000    1.9885    1.2629 H   0  0  0  0  0  0  0  0  0  0  0  0
   -2.5428   -2.1091    0.2851 H   0  0  0  0  0  0  0  0  0  0  0  0
   -3.4263   -0.5789    0.1865 H   0  0  0  0  0  0  0  0  0  0  0  0
   -2.5499   -1.1873   -1.2285 H   0  0  0  0  0  0  0  0  0  0  0  0
    2.5504   -1.1871   -1.2282 H   0  0  0  0  0  0  0  0  0  0  0  0
    3.4266   -0.5781    0.1868 H   0  0  0  0  0  0  0  0  0  0  0  0
    2.5434   -2.1085    0.2857 H   0  0  0  0  0  0  0  0  0  0  0  0
  1  3  1  0  0  0  0
  1  4  1  0  0  0  0
  1  7  1  0  0  0  0
  1  9  1  0  0  0  0
  2  3  1  0  0  0  0
  2  5  1  0  0  0  0
  2  8  1  0  0  0  0
  2 10  1  0  0  0  0
  3 11  1  0  0  0  0
  3 12  1  0  0  0  0
  4  6  1  0  0  0  0
  4 13  1  0  0  0  0
  4 14  1  0  0  0  0
  5  6  1  0  0  0  0
  5 15  1  0  0  0  0
  5 16  1  0  0  0  0
  6 17  1  0  0  0  0
  6 18  1  0  0  0  0
  7 19  1  0  0  0  0
  7 20  1  0  0  0  0
  7 21  1  0  0  0  0
  8 22  1  0  0  0  0
  8 23  1  0  0  0  0
  8 24  1  0  0  0  0
M  END
> <PUBCHEM_COMPOUND_CID>
252361

> <PUBCHEM_CONFORMER_RMSD>
0.4

> <PUBCHEM_CONFORMER_DIVERSEORDER>
1
2
3
4

> <PUBCHEM_MMFF94_PARTIAL_CHARGES>
0

> <PUBCHEM_EFFECTIVE_ROTOR_COUNT>
1.2

> <PUBCHEM_PHARMACOPHORE_FEATURES>
1
6 1 2 3 4 5 6 rings

> <PUBCHEM_HEAVY_ATOM_COUNT>
8

> <PUBCHEM_ATOM_DEF_STEREO_COUNT>
2

> <PUBCHEM_ATOM_UDEF_STEREO_COUNT>
0

> <PUBCHEM_BOND_DEF_STEREO_COUNT>
0

> <PUBCHEM_BOND_UDEF_STEREO_COUNT>
0

> <PUBCHEM_ISOTOPIC_ATOM_COUNT>
0

> <PUBCHEM_COMPONENT_COUNT>
1

> <PUBCHEM_CACTVS_TAUTO_COUNT>
1

> <PUBCHEM_CONFORMER_ID>
0003D9C900000001

> <PUBCHEM_MMFF94_ENERGY>
4.9515

> <PUBCHEM_FEATURE_SELFOVERLAP>
5.074

> <PUBCHEM_SHAPE_FINGERPRINT>
14128692 85 18410863165521076046
16714656 1 18122067498664028276
18185500 45 18196933490022644911
21040471 1 16968860550404419889
23552423 10 18260271823935143798
23552449 1 18267299842077513856
241688 4 18409448055180071672
2748010 2 18410568487598788548
29004967 10 18263645241472934059
5084963 1 18272933825346814946

> <PUBCHEM_SHAPE_MULTIPOLES>
164.64
3
1.81
0.67
0
0.58
0.01
-1.45
-0.18
0
-0.04
0
0.01
0

> <PUBCHEM_SHAPE_SELFOVERLAP>
312.04

> <PUBCHEM_SHAPE_VOLUME>
100.5

> <PUBCHEM_COORDINATE_TYPE>
2
5
10

$$$$
