66305
  -OEChem-11012400573D

 15 14  0     1  0  0  0  0  0999 V2000
   -0.5818    0.2723    0.4950 S   0  0  2  0  0  0  0  0  0  0  0  0
    0.7816   -0.4484    0.0240 O   0  0  0  0  0  0  0  0  0  0  0  0
   -1.6154   -0.7999   -0.1231 O   0  0  0  0  0  0  0  0  0  0  0  0
   -0.7199    1.5440   -0.2904 O   0  0  0  0  0  0  0  0  0  0  0  0
    1.9609    0.3172    0.2274 C   0  0  0  0  0  0  0  0  0  0  0  0
    3.1547   -0.4779   -0.2570 C   0  0  0  0  0  0  0  0  0  0  0  0
   -2.9801   -0.4074   -0.0759 C   0  0  0  0  0  0  0  0  0  0  0  0
    1.9066    1.2579   -0.3332 H   0  0  0  0  0  0  0  0  0  0  0  0
    2.0814    0.5437    1.2936 H   0  0  0  0  0  0  0  0  0  0  0  0
    4.0825    0.0830   -0.1139 H   0  0  0  0  0  0  0  0  0  0  0  0
    3.2296   -1.4280    0.2821 H   0  0  0  0  0  0  0  0  0  0  0  0
    3.0499   -0.7222   -1.3193 H   0  0  0  0  0  0  0  0  0  0  0  0
   -3.1583    0.4642   -0.7142 H   0  0  0  0  0  0  0  0  0  0  0  0
   -3.2926   -0.1961    0.9523 H   0  0  0  0  0  0  0  0  0  0  0  0
   -3.5856   -1.2361   -0.4540 H   0  0  0  0  0  0  0  0  0  0  0  0
  1  2  1  0  0  0  0
  1  3  1  0  0  0  0
  1  4  2  0  0  0  0
  2  5  1  0  0  0  0
  3  7  1  0  0  0  0
  5  6  1  0  0  0  0
  5  8  1  0  0  0  0
  5  9  1  0  0  0  0
  6 10  1  0  0  0  0
  6 11  1  0  0  0  0
  6 12  1  0  0  0  0
  7 13  1  0  0  0  0
  7 14  1  0  0  0  0
  7 15  1  0  0  0  0
M  END
> <PUBCHEM_COMPOUND_CID>
66305

> <PUBCHEM_CONFORMER_RMSD>
0.4

> <PUBCHEM_CONFORMER_DIVERSEORDER>
1
7
11
25
2
5
24
6
19
13
26
27
21
18
10
8
28
9
17
23
15
4
16
3
29
30
12
14
22
20

> <PUBCHEM_MMFF94_PARTIAL_CHARGES>
6
1 0.6
2 -0.33
3 -0.33
4 -0.5
5 0.28
7 0.28

> <PUBCHEM_EFFECTIVE_ROTOR_COUNT>
3

> <PUBCHEM_PHARMACOPHORE_FEATURES>
1
1 4 acceptor

> <PUBCHEM_HEAVY_ATOM_COUNT>
7

> <PUBCHEM_ATOM_DEF_STEREO_COUNT>
0

> <PUBCHEM_ATOM_UDEF_STEREO_COUNT>
1

> <PUBCHEM_BOND_DEF_STEREO_COUNT>
0

> <PUBCHEM_BOND_UDEF_STEREO_COUNT>
0

> <PUBCHEM_ISOTOPIC_ATOM_COUNT>
0

> <PUBCHEM_COMPONENT_COUNT>
1

> <PUBCHEM_CACTVS_TAUTO_COUNT>
1

> <PUBCHEM_CONFORMER_ID>
0001030100000001

> <PUBCHEM_MMFF94_ENERGY>
5.5965

> <PUBCHEM_FEATURE_SELFOVERLAP>
5.074

> <PUBCHEM_SHAPE_FINGERPRINT>
12897270 3 18407476661064908678
14390081 3 11963391860055703566
16714656 1 18411981368751656511
23552423 10 18043533815572468002
23552449 1 18338513032739774248
29004967 10 18335422417169985179
5460574 1 8502658103692906362

> <PUBCHEM_SHAPE_MULTIPOLES>
130.3
4.65
1.05
0.66
0.88
0.32
0.05
-1.3
-0.43
-0.23
-0.1
0.01
0.04
0.07

> <PUBCHEM_SHAPE_SELFOVERLAP>
218.299

> <PUBCHEM_SHAPE_VOLUME>
89.6

> <PUBCHEM_COORDINATE_TYPE>
2
5
10

$$$$
