139360
  -OEChem-11012401223D

 37 36  0     0  0  0  0  0  0999 V2000
   -0.8483    0.0128   -0.1020 O   0  0  0  0  0  0  0  0  0  0  0  0
    1.3364    0.8976   -0.1742 O   0  0  0  0  0  0  0  0  0  0  0  0
   -0.0024    1.0957    0.2996 C   0  0  0  0  0  0  0  0  0  0  0  0
   -0.5330    2.3914   -0.3254 C   0  0  0  0  0  0  0  0  0  0  0  0
   -3.0115   -1.0129   -0.1620 C   0  0  0  0  0  0  0  0  0  0  0  0
    3.3373   -0.4184   -0.2013 C   0  0  0  0  0  0  0  0  0  0  0  0
   -2.1978    0.1836    0.3103 C   0  0  0  0  0  0  0  0  0  0  0  0
    1.9246   -0.2857    0.3497 C   0  0  0  0  0  0  0  0  0  0  0  0
   -4.4798   -0.8876    0.2342 C   0  0  0  0  0  0  0  0  0  0  0  0
    4.0253   -1.6810    0.3097 C   0  0  0  0  0  0  0  0  0  0  0  0
    0.3265    3.6000    0.0148 C   0  0  0  0  0  0  0  0  0  0  0  0
   -5.2971   -2.0635   -0.2765 C   0  0  0  0  0  0  0  0  0  0  0  0
    5.4198   -1.8319   -0.2768 C   0  0  0  0  0  0  0  0  0  0  0  0
    0.0119    1.1713    1.3944 H   0  0  0  0  0  0  0  0  0  0  0  0
   -1.5387    2.6355    0.0252 H   0  0  0  0  0  0  0  0  0  0  0  0
   -0.5880    2.2849   -1.4158 H   0  0  0  0  0  0  0  0  0  0  0  0
   -2.5825   -1.9324    0.2556 H   0  0  0  0  0  0  0  0  0  0  0  0
   -2.9187   -1.1073   -1.2515 H   0  0  0  0  0  0  0  0  0  0  0  0
    3.9204    0.4699    0.0723 H   0  0  0  0  0  0  0  0  0  0  0  0
    3.2983   -0.4248   -1.2979 H   0  0  0  0  0  0  0  0  0  0  0  0
   -2.2448    0.2753    1.4012 H   0  0  0  0  0  0  0  0  0  0  0  0
   -2.6529    1.0624   -0.1509 H   0  0  0  0  0  0  0  0  0  0  0  0
    1.9505   -0.2273    1.4439 H   0  0  0  0  0  0  0  0  0  0  0  0
    1.3338   -1.1606    0.0560 H   0  0  0  0  0  0  0  0  0  0  0  0
   -4.8988    0.0407   -0.1713 H   0  0  0  0  0  0  0  0  0  0  0  0
   -4.5675   -0.8336    1.3256 H   0  0  0  0  0  0  0  0  0  0  0  0
    3.4296   -2.5629    0.0468 H   0  0  0  0  0  0  0  0  0  0  0  0
    4.0947   -1.6505    1.4032 H   0  0  0  0  0  0  0  0  0  0  0  0
    1.3387    3.4979   -0.3886 H   0  0  0  0  0  0  0  0  0  0  0  0
   -0.1120    4.5077   -0.4125 H   0  0  0  0  0  0  0  0  0  0  0  0
    0.3991    3.7363    1.0985 H   0  0  0  0  0  0  0  0  0  0  0  0
   -5.2578   -2.1238   -1.3688 H   0  0  0  0  0  0  0  0  0  0  0  0
   -4.9245   -3.0076    0.1337 H   0  0  0  0  0  0  0  0  0  0  0  0
   -6.3449   -1.9542    0.0201 H   0  0  0  0  0  0  0  0  0  0  0  0
    5.3811   -1.9002   -1.3688 H   0  0  0  0  0  0  0  0  0  0  0  0
    6.0526   -0.9801   -0.0077 H   0  0  0  0  0  0  0  0  0  0  0  0
    5.8947   -2.7416    0.1037 H   0  0  0  0  0  0  0  0  0  0  0  0
  1  3  1  0  0  0  0
  1  7  1  0  0  0  0
  2  3  1  0  0  0  0
  2  8  1  0  0  0  0
  3  4  1  0  0  0  0
  3 14  1  0  0  0  0
  4 11  1  0  0  0  0
  4 15  1  0  0  0  0
  4 16  1  0  0  0  0
  5  7  1  0  0  0  0
  5  9  1  0  0  0  0
  5 17  1  0  0  0  0
  5 18  1  0  0  0  0
  6  8  1  0  0  0  0
  6 10  1  0  0  0  0
  6 19  1  0  0  0  0
  6 20  1  0  0  0  0
  7 21  1  0  0  0  0
  7 22  1  0  0  0  0
  8 23  1  0  0  0  0
  8 24  1  0  0  0  0
  9 12  1  0  0  0  0
  9 25  1  0  0  0  0
  9 26  1  0  0  0  0
 10 13  1  0  0  0  0
 10 27  1  0  0  0  0
 10 28  1  0  0  0  0
 11 29  1  0  0  0  0
 11 30  1  0  0  0  0
 11 31  1  0  0  0  0
 12 32  1  0  0  0  0
 12 33  1  0  0  0  0
 12 34  1  0  0  0  0
 13 35  1  0  0  0  0
 13 36  1  0  0  0  0
 13 37  1  0  0  0  0
M  END
> <PUBCHEM_COMPOUND_CID>
139360

> <PUBCHEM_CONFORMER_RMSD>
0.8

> <PUBCHEM_CONFORMER_DIVERSEORDER>
1
78
121
66
74
51
119
160
3
173
110
148
158
95
25
139
64
90
62
71
156
159
111
171
149
172
70
131
180
177
75
178
166
126
127
45
80
101
12
134
23
130
96
174
97
36
109
113
140
112
179
108
155
141
39
151
10
88
150
98
122
106
100
168
87
136
47
11
7
68
63
22
152
28
24
124
147
33
164
50
84
42
114
13
129
105
138
37
59
165
52
128
53
123
46
118
4
61
169
91
132
2
31
99
57
153
14
54
170
137
115
17
69
82
89
176
40
83
77
162
93
65
5
76
30
161
85
43
73
29
133
8
58
167
48
21
120
92
19
102
117
103
44
135
9
163
55
125
94
145
15
86
27
56
38
35
146
144
154
72
143
107
60
116
41
32
142
6
157
104
20
81
175
49
67
26
16
18
34
79

> <PUBCHEM_MMFF94_PARTIAL_CHARGES>
5
1 -0.56
2 -0.56
3 0.56
7 0.28
8 0.28

> <PUBCHEM_EFFECTIVE_ROTOR_COUNT>
9

> <PUBCHEM_PHARMACOPHORE_FEATURES>
5
1 1 acceptor
1 11 hydrophobe
1 12 hydrophobe
1 13 hydrophobe
1 2 acceptor

> <PUBCHEM_HEAVY_ATOM_COUNT>
13

> <PUBCHEM_ATOM_DEF_STEREO_COUNT>
0

> <PUBCHEM_ATOM_UDEF_STEREO_COUNT>
0

> <PUBCHEM_BOND_DEF_STEREO_COUNT>
0

> <PUBCHEM_BOND_UDEF_STEREO_COUNT>
0

> <PUBCHEM_ISOTOPIC_ATOM_COUNT>
0

> <PUBCHEM_COMPONENT_COUNT>
1

> <PUBCHEM_CACTVS_TAUTO_COUNT>
1

> <PUBCHEM_CONFORMER_ID>
0002206000000001

> <PUBCHEM_MMFF94_ENERGY>
10.9873

> <PUBCHEM_FEATURE_SELFOVERLAP>
25.412

> <PUBCHEM_SHAPE_FINGERPRINT>
100836 57 9439401345813442290
11265709 11 18410297994869212993
12032990 46 18410291410731749491
12841375 25 18410009948571381897
13690532 89 18412262869883539651
13955234 65 17981046637268013057
14178000 15 18341050838958187385
14178000 29 18411980299399706415
1420 369 18413389821751629054
14252887 29 18339354279230181216
15342816 4 18411993467874983422
15477762 27 18266176313114022385
17539 30 18264199210639833205
20374829 77 18409164385585985195
20388580 30 18260553354688381428
20645477 70 18118676858708437827
20671657 53 18410859892956625289
20871998 22 18411131471959726320
20871999 31 18041555849946138125
21426921 1 18193840336792497412
221490 88 17974011940372460571
23402539 116 18411417267662779246
23526113 38 18041281083613677905
23532345 12 18202007663977404913
3421961 26 18340485685216499177
351380 3 18411698781421315798
7364860 26 18123752216824295489
77188 2 18411418431625855388

> <PUBCHEM_SHAPE_MULTIPOLES>
255.8
10.63
3.26
0.67
0.05
3.42
-0.01
-13.36
0.64
-0.15
0.23
-0.01
-0.02
-0.13

> <PUBCHEM_SHAPE_SELFOVERLAP>
457.783

> <PUBCHEM_SHAPE_VOLUME>
166

> <PUBCHEM_COORDINATE_TYPE>
2
5
10

$$$$
