66026
  -OEChem-11012400393D

 23 23  0     0  0  0  0  0  0999 V2000
   -0.6835   -0.5698    0.3602 N   0  0  0  0  0  0  0  0  0  0  0  0
   -1.6142    0.4018    0.3852 N   0  0  0  0  0  0  0  0  0  0  0  0
    0.6716   -0.2552    0.1668 C   0  0  0  0  0  0  0  0  0  0  0  0
    1.6329   -1.2698    0.1410 C   0  0  0  0  0  0  0  0  0  0  0  0
    1.0677    1.0749   -0.0006 C   0  0  0  0  0  0  0  0  0  0  0  0
   -2.8071    0.0951   -0.0253 C   0  0  0  0  0  0  0  0  0  0  0  0
    2.9787   -0.9571   -0.0503 C   0  0  0  0  0  0  0  0  0  0  0  0
    2.4135    1.3876   -0.1920 C   0  0  0  0  0  0  0  0  0  0  0  0
    3.3689    0.3716   -0.2169 C   0  0  0  0  0  0  0  0  0  0  0  0
   -3.9835    1.0401   -0.0743 C   0  0  0  0  0  0  0  0  0  0  0  0
   -3.0450   -1.3191   -0.4938 C   0  0  0  0  0  0  0  0  0  0  0  0
    1.3427   -2.3097    0.2694 H   0  0  0  0  0  0  0  0  0  0  0  0
    0.3517    1.8925    0.0130 H   0  0  0  0  0  0  0  0  0  0  0  0
   -0.9221   -1.5460    0.4842 H   0  0  0  0  0  0  0  0  0  0  0  0
    3.7227   -1.7480   -0.0698 H   0  0  0  0  0  0  0  0  0  0  0  0
    2.7182    2.4220   -0.3218 H   0  0  0  0  0  0  0  0  0  0  0  0
    4.4168    0.6151   -0.3660 H   0  0  0  0  0  0  0  0  0  0  0  0
   -4.7944    0.6430    0.5418 H   0  0  0  0  0  0  0  0  0  0  0  0
   -3.6888    2.0218    0.3052 H   0  0  0  0  0  0  0  0  0  0  0  0
   -4.3258    1.1405   -1.1075 H   0  0  0  0  0  0  0  0  0  0  0  0
   -2.3366   -1.6023   -1.2775 H   0  0  0  0  0  0  0  0  0  0  0  0
   -2.9895   -2.0136    0.3495 H   0  0  0  0  0  0  0  0  0  0  0  0
   -4.0502   -1.3991   -0.9202 H   0  0  0  0  0  0  0  0  0  0  0  0
  1  2  1  0  0  0  0
  1  3  1  0  0  0  0
  1 14  1  0  0  0  0
  2  6  2  0  0  0  0
  3  4  2  0  0  0  0
  3  5  1  0  0  0  0
  4  7  1  0  0  0  0
  4 12  1  0  0  0  0
  5  8  2  0  0  0  0
  5 13  1  0  0  0  0
  6 10  1  0  0  0  0
  6 11  1  0  0  0  0
  7  9  2  0  0  0  0
  7 15  1  0  0  0  0
  8  9  1  0  0  0  0
  8 16  1  0  0  0  0
  9 17  1  0  0  0  0
 10 18  1  0  0  0  0
 10 19  1  0  0  0  0
 10 20  1  0  0  0  0
 11 21  1  0  0  0  0
 11 22  1  0  0  0  0
 11 23  1  0  0  0  0
M  END
> <PUBCHEM_COMPOUND_CID>
66026

> <PUBCHEM_CONFORMER_RMSD>
0.4

> <PUBCHEM_CONFORMER_DIVERSEORDER>
2
4
3
1

> <PUBCHEM_MMFF94_PARTIAL_CHARGES>
17
1 -0.46
10 0.06
11 0.06
12 0.15
13 0.15
14 0.4
15 0.15
16 0.15
17 0.15
2 -0.49
3 0.1
4 -0.15
5 -0.15
6 0.33
7 -0.15
8 -0.15
9 -0.15

> <PUBCHEM_EFFECTIVE_ROTOR_COUNT>
2

> <PUBCHEM_PHARMACOPHORE_FEATURES>
3
1 1 donor
1 2 acceptor
6 3 4 5 7 8 9 rings

> <PUBCHEM_HEAVY_ATOM_COUNT>
11

> <PUBCHEM_ATOM_DEF_STEREO_COUNT>
0

> <PUBCHEM_ATOM_UDEF_STEREO_COUNT>
0

> <PUBCHEM_BOND_DEF_STEREO_COUNT>
0

> <PUBCHEM_BOND_UDEF_STEREO_COUNT>
0

> <PUBCHEM_ISOTOPIC_ATOM_COUNT>
0

> <PUBCHEM_COMPONENT_COUNT>
1

> <PUBCHEM_CACTVS_TAUTO_COUNT>
1

> <PUBCHEM_CONFORMER_ID>
000101EA00000002

> <PUBCHEM_MMFF94_ENERGY>
41.6847

> <PUBCHEM_FEATURE_SELFOVERLAP>
15.223

> <PUBCHEM_SHAPE_FINGERPRINT>
10608611 8 18335982055656460049
11062470 55 18410856542459933401
11401426 45 18412259532741027224
11471102 20 18408319960671456644
12932764 1 18410014342581310643
14144814 61 18412263926123325491
14325111 11 18410575114859731793
15442244 35 18123189000355580904
15775835 57 18410015437750582949
18186145 218 18040712554481732439
190213 19 17703791418147935479
20201158 50 18335422344060725370
20281407 28 13039195805101951985
20606313 2 18408886226482146148
20645477 70 18339642239676502495
20871998 22 18052537669443551550
21119208 17 18272652324816337925
23402539 116 18335129899985343692
23402655 69 18411136913772766325
3248919 1 17603868952567088731
93112 12 18411980260860980413
9939556 21 18413105056992947895

> <PUBCHEM_SHAPE_MULTIPOLES>
216.41
6.84
1.46
0.66
4.02
0.03
-0.02
-0.66
-0.71
-0.14
-0.09
0.05
0.02
-0.27

> <PUBCHEM_SHAPE_SELFOVERLAP>
436.476

> <PUBCHEM_SHAPE_VOLUME>
127.5

> <PUBCHEM_COORDINATE_TYPE>
2
5
10

$$$$
