136436
  -OEChem-11012400383D

 12 12  0     0  0  0  0  0  0999 V2000
    2.6465    0.0000   -0.0014 O   0  0  0  0  0  0  0  0  0  0  0  0
   -2.6465    0.0000   -0.0012 O   0  0  0  0  0  0  0  0  0  0  0  0
   -0.6850    1.1679    0.0008 N   0  0  0  0  0  0  0  0  0  0  0  0
    0.6851    1.1679    0.0005 N   0  0  0  0  0  0  0  0  0  0  0  0
   -0.6850   -1.1679    0.0002 N   0  0  0  0  0  0  0  0  0  0  0  0
    0.6850   -1.1679    0.0010 N   0  0  0  0  0  0  0  0  0  0  0  0
    1.4132    0.0000    0.0001 C   0  0  0  0  0  0  0  0  0  0  0  0
   -1.4132    0.0000    0.0000 C   0  0  0  0  0  0  0  0  0  0  0  0
   -1.1339    2.0776    0.0005 H   0  0  0  0  0  0  0  0  0  0  0  0
    1.1338    2.0778   -0.0003 H   0  0  0  0  0  0  0  0  0  0  0  0
   -1.1339   -2.0777   -0.0005 H   0  0  0  0  0  0  0  0  0  0  0  0
    1.1338   -2.0777    0.0007 H   0  0  0  0  0  0  0  0  0  0  0  0
  1  7  2  0  0  0  0
  2  8  2  0  0  0  0
  3  4  1  0  0  0  0
  3  8  1  0  0  0  0
  3  9  1  0  0  0  0
  4  7  1  0  0  0  0
  4 10  1  0  0  0  0
  5  6  1  0  0  0  0
  5  8  1  0  0  0  0
  5 11  1  0  0  0  0
  6  7  1  0  0  0  0
  6 12  1  0  0  0  0
M  END
> <PUBCHEM_COMPOUND_CID>
136436

> <PUBCHEM_CONFORMER_RMSD>
0.4

> <PUBCHEM_CONFORMER_DIVERSEORDER>
1

> <PUBCHEM_MMFF94_PARTIAL_CHARGES>
12
1 -0.57
10 0.37
11 0.37
12 0.37
2 -0.57
3 -0.43
4 -0.43
5 -0.43
6 -0.43
7 0.69
8 0.69
9 0.37

> <PUBCHEM_EFFECTIVE_ROTOR_COUNT>
0.8

> <PUBCHEM_PHARMACOPHORE_FEATURES>
7
1 1 acceptor
1 2 acceptor
1 3 donor
1 4 donor
1 5 donor
1 6 donor
6 3 4 5 6 7 8 rings

> <PUBCHEM_HEAVY_ATOM_COUNT>
8

> <PUBCHEM_ATOM_DEF_STEREO_COUNT>
0

> <PUBCHEM_ATOM_UDEF_STEREO_COUNT>
0

> <PUBCHEM_BOND_DEF_STEREO_COUNT>
0

> <PUBCHEM_BOND_UDEF_STEREO_COUNT>
0

> <PUBCHEM_ISOTOPIC_ATOM_COUNT>
0

> <PUBCHEM_COMPONENT_COUNT>
1

> <PUBCHEM_CACTVS_TAUTO_COUNT>
4

> <PUBCHEM_CONFORMER_ID>
000214F400000001

> <PUBCHEM_MMFF94_ENERGY>
16.9747

> <PUBCHEM_FEATURE_SELFOVERLAP>
38.727

> <PUBCHEM_SHAPE_FINGERPRINT>
16714656 1 18410858763126811062
20096714 4 18410856606910894547
21040471 1 18410856576824985474
23552423 10 18044946675134532934
29004967 10 18261399939892046097
5460574 1 9295290538376822786

> <PUBCHEM_SHAPE_MULTIPOLES>
132.97
2.93
1.18
0.54
0
0
0
0
0
0
0
0
0
0

> <PUBCHEM_SHAPE_SELFOVERLAP>
269.499

> <PUBCHEM_SHAPE_VOLUME>
75.5

> <PUBCHEM_COORDINATE_TYPE>
2
5
10

$$$$
