3611
  -OEChem-11012400403D

 24 24  0     0  0  0  0  0  0999 V2000
   -3.3454    0.3519    0.5950 O   0  0  0  0  0  0  0  0  0  0  0  0
   -1.5705    2.1520   -0.4739 O   0  0  0  0  0  0  0  0  0  0  0  0
    2.5637   -0.1790    0.0933 C   0  0  0  0  0  0  0  0  0  0  0  0
    1.0698   -0.2471   -0.1042 C   0  0  0  0  0  0  0  0  0  0  0  0
    3.1758    0.7941   -0.9044 C   0  0  0  0  0  0  0  0  0  0  0  0
    2.8937    0.2182    1.5261 C   0  0  0  0  0  0  0  0  0  0  0  0
    0.3320    0.8691   -0.0082 C   0  0  0  0  0  0  0  0  0  0  0  0
    0.5864   -1.5603   -0.4713 C   0  0  0  0  0  0  0  0  0  0  0  0
   -1.1335    1.0445   -0.1601 C   0  0  0  0  0  0  0  0  0  0  0  0
   -0.6605   -2.0326   -0.3853 C   0  0  0  0  0  0  0  0  0  0  0  0
   -2.0811   -0.0496    0.1838 C   0  0  0  0  0  0  0  0  0  0  0  0
   -1.8304   -1.3612    0.1091 C   0  0  0  0  0  0  0  0  0  0  0  0
    3.0275   -1.1583   -0.0835 H   0  0  0  0  0  0  0  0  0  0  0  0
    2.8969    1.8360   -0.7139 H   0  0  0  0  0  0  0  0  0  0  0  0
    2.8890    0.5461   -1.9327 H   0  0  0  0  0  0  0  0  0  0  0  0
    4.2698    0.7459   -0.8523 H   0  0  0  0  0  0  0  0  0  0  0  0
    2.4357   -0.4721    2.2435 H   0  0  0  0  0  0  0  0  0  0  0  0
    2.5572    1.2317    1.7703 H   0  0  0  0  0  0  0  0  0  0  0  0
    3.9772    0.1893    1.6886 H   0  0  0  0  0  0  0  0  0  0  0  0
    0.8280    1.8156    0.2007 H   0  0  0  0  0  0  0  0  0  0  0  0
    1.3289   -2.2448   -0.8795 H   0  0  0  0  0  0  0  0  0  0  0  0
   -0.8342   -3.0583   -0.7065 H   0  0  0  0  0  0  0  0  0  0  0  0
   -2.6327   -2.0445    0.3871 H   0  0  0  0  0  0  0  0  0  0  0  0
   -3.3613    1.3246    0.5867 H   0  0  0  0  0  0  0  0  0  0  0  0
  1 11  1  0  0  0  0
  1 24  1  0  0  0  0
  2  9  2  0  0  0  0
  3  4  1  0  0  0  0
  3  5  1  0  0  0  0
  3  6  1  0  0  0  0
  3 13  1  0  0  0  0
  4  7  2  0  0  0  0
  4  8  1  0  0  0  0
  5 14  1  0  0  0  0
  5 15  1  0  0  0  0
  5 16  1  0  0  0  0
  6 17  1  0  0  0  0
  6 18  1  0  0  0  0
  6 19  1  0  0  0  0
  7  9  1  0  0  0  0
  7 20  1  0  0  0  0
  8 10  2  0  0  0  0
  8 21  1  0  0  0  0
  9 11  1  0  0  0  0
 10 12  1  0  0  0  0
 10 22  1  0  0  0  0
 11 12  2  0  0  0  0
 12 23  1  0  0  0  0
M  END
> <PUBCHEM_COMPOUND_CID>
3611

> <PUBCHEM_CONFORMER_RMSD>
0.4

> <PUBCHEM_CONFORMER_DIVERSEORDER>
3
5
2
6
1
4

> <PUBCHEM_MMFF94_PARTIAL_CHARGES>
15
1 -0.53
10 -0.15
11 0.09
12 -0.15
2 -0.57
20 0.15
21 0.15
22 0.15
23 0.15
24 0.45
3 0.14
4 -0.14
7 -0.14
8 -0.15
9 0.54

> <PUBCHEM_EFFECTIVE_ROTOR_COUNT>
1

> <PUBCHEM_PHARMACOPHORE_FEATURES>
4
1 1 donor
1 2 acceptor
3 3 5 6 hydrophobe
7 4 7 8 9 10 11 12 rings

> <PUBCHEM_HEAVY_ATOM_COUNT>
12

> <PUBCHEM_ATOM_DEF_STEREO_COUNT>
0

> <PUBCHEM_ATOM_UDEF_STEREO_COUNT>
0

> <PUBCHEM_BOND_DEF_STEREO_COUNT>
0

> <PUBCHEM_BOND_UDEF_STEREO_COUNT>
0

> <PUBCHEM_ISOTOPIC_ATOM_COUNT>
0

> <PUBCHEM_COMPONENT_COUNT>
1

> <PUBCHEM_CACTVS_TAUTO_COUNT>
11

> <PUBCHEM_CONFORMER_ID>
00000E1B00000003

> <PUBCHEM_MMFF94_ENERGY>
36.7442

> <PUBCHEM_FEATURE_SELFOVERLAP>
20.297

> <PUBCHEM_SHAPE_FINGERPRINT>
10857977 72 18340203093495485523
11132069 177 18343299296764401187
13380535 76 18192703450074332221
13538477 17 18113896121715299098
15310529 11 17022616498461814388
15775835 57 18412267246170046578
16945 1 18409725179365304798
17846911 113 18341604906591614801
20511035 2 17979340972194001462
20645464 45 17703498987142260554
20871998 184 18270969062740538519
21028194 46 18271803471843527938
21040471 1 18340201886910342638
23235685 24 18341897380905626365
23552423 10 17756144849088427372
23559900 14 18059862745368114014
2748010 2 18122066394883794271
369184 2 16588019121509227278
5084963 1 18271533009184108694
53812653 166 18202565072610657122
54338 74 18049425226275269287
6333449 129 18200868577808917278
81228 2 17912068749086901086

> <PUBCHEM_SHAPE_MULTIPOLES>
235.22
4.6
1.86
0.95
1.27
0.19
-0.22
-0.97
-0.74
-0.99
0.39
0.71
-0.08
-0.05

> <PUBCHEM_SHAPE_SELFOVERLAP>
480.572

> <PUBCHEM_SHAPE_VOLUME>
135

> <PUBCHEM_COORDINATE_TYPE>
2
5
10

$$$$
