10986240
  -OEChem-11012400443D

 17 17  0     1  0  0  0  0  0999 V2000
    0.3239    1.3523    0.1955 O   0  0  0  0  0  0  0  0  0  0  0  0
    2.4757    0.6508   -0.1360 O   0  0  0  0  0  0  0  0  0  0  0  0
   -1.9569    1.4293    0.3382 O   0  0  0  0  0  0  0  0  0  0  0  0
    0.6230   -0.8953   -0.3908 C   0  0  1  0  0  0  0  0  0  0  0  0
   -0.8352   -0.5069   -0.6153 C   0  0  2  0  0  0  0  0  0  0  0  0
    1.2741    0.4315   -0.1254 C   0  0  0  0  0  0  0  0  0  0  0  0
   -0.9289    0.8417    0.0396 C   0  0  0  0  0  0  0  0  0  0  0  0
    0.9044   -1.8303    0.7780 C   0  0  0  0  0  0  0  0  0  0  0  0
   -1.8801   -1.4732   -0.0839 C   0  0  0  0  0  0  0  0  0  0  0  0
    1.0344   -1.3158   -1.3152 H   0  0  0  0  0  0  0  0  0  0  0  0
   -1.0016   -0.3453   -1.6884 H   0  0  0  0  0  0  0  0  0  0  0  0
    1.9833   -1.9768    0.9027 H   0  0  0  0  0  0  0  0  0  0  0  0
    0.5240   -1.4244    1.7219 H   0  0  0  0  0  0  0  0  0  0  0  0
    0.4549   -2.8147    0.6156 H   0  0  0  0  0  0  0  0  0  0  0  0
   -1.8506   -1.5504    1.0081 H   0  0  0  0  0  0  0  0  0  0  0  0
   -2.8866   -1.1307   -0.3495 H   0  0  0  0  0  0  0  0  0  0  0  0
   -1.7445   -2.4714   -0.5116 H   0  0  0  0  0  0  0  0  0  0  0  0
  1  6  1  0  0  0  0
  1  7  1  0  0  0  0
  2  6  2  0  0  0  0
  3  7  2  0  0  0  0
  4  5  1  0  0  0  0
  4  6  1  0  0  0  0
  4  8  1  0  0  0  0
  4 10  1  0  0  0  0
  5  7  1  0  0  0  0
  5  9  1  0  0  0  0
  5 11  1  0  0  0  0
  8 12  1  0  0  0  0
  8 13  1  0  0  0  0
  8 14  1  0  0  0  0
  9 15  1  0  0  0  0
  9 16  1  0  0  0  0
  9 17  1  0  0  0  0
M  END
> <PUBCHEM_COMPOUND_CID>
10986240

> <PUBCHEM_CONFORMER_RMSD>
0.4

> <PUBCHEM_CONFORMER_DIVERSEORDER>
1
2

> <PUBCHEM_MMFF94_PARTIAL_CHARGES>
7
1 -0.3
2 -0.57
3 -0.57
4 0.06
5 0.06
6 0.66
7 0.66

> <PUBCHEM_EFFECTIVE_ROTOR_COUNT>
0.6

> <PUBCHEM_PHARMACOPHORE_FEATURES>
3
1 2 acceptor
1 3 acceptor
5 1 4 5 6 7 rings

> <PUBCHEM_HEAVY_ATOM_COUNT>
9

> <PUBCHEM_ATOM_DEF_STEREO_COUNT>
2

> <PUBCHEM_ATOM_UDEF_STEREO_COUNT>
0

> <PUBCHEM_BOND_DEF_STEREO_COUNT>
0

> <PUBCHEM_BOND_UDEF_STEREO_COUNT>
0

> <PUBCHEM_ISOTOPIC_ATOM_COUNT>
0

> <PUBCHEM_COMPONENT_COUNT>
1

> <PUBCHEM_CACTVS_TAUTO_COUNT>
3

> <PUBCHEM_CONFORMER_ID>
00A7A30000000001

> <PUBCHEM_MMFF94_ENERGY>
6.8863

> <PUBCHEM_FEATURE_SELFOVERLAP>
15.223

> <PUBCHEM_SHAPE_FINGERPRINT>
137420 1 17198776983009849020
16945 1 18199189675003201262
18185500 45 18337382738827822962
21040471 1 18269557139270204317
23552423 10 18334580126986500206
241688 4 17838891890955812459
29004967 10 18052822734368966643
5084963 1 18200319960182396824
68250623 7 18341061730689041598

> <PUBCHEM_SHAPE_MULTIPOLES>
167.61
2.44
1.86
0.74
0.23
0.32
-0.01
-0.25
0.01
-0.33
-0.36
0
0.15
-0.3

> <PUBCHEM_SHAPE_SELFOVERLAP>
342.485

> <PUBCHEM_SHAPE_VOLUME>
100.2

> <PUBCHEM_COORDINATE_TYPE>
2
5
10

$$$$
