142644
  -OEChem-11012401233D

 35 34  0     1  0  0  0  0  0999 V2000
    2.2902    0.4410   -0.3778 O   0  0  0  0  0  0  0  0  0  0  0  0
   -2.5099    0.2121   -0.2298 O   0  0  0  0  0  0  0  0  0  0  0  0
   -0.1823    1.6342    0.2686 O   0  0  0  0  0  0  0  0  0  0  0  0
    3.5352   -0.1507   -0.0046 C   0  0  0  0  0  0  0  0  0  0  0  0
   -0.1160    0.3340   -0.3219 C   0  0  1  0  0  0  0  0  0  0  0  0
    1.1938   -0.3259    0.0939 C   0  0  0  0  0  0  0  0  0  0  0  0
    3.6092   -1.5512   -0.6112 C   0  0  0  0  0  0  0  0  0  0  0  0
    4.6496    0.7343   -0.5589 C   0  0  0  0  0  0  0  0  0  0  0  0
    3.6068   -0.2129    1.5203 C   0  0  0  0  0  0  0  0  0  0  0  0
   -1.3197   -0.4639    0.1620 C   0  0  0  0  0  0  0  0  0  0  0  0
   -3.6694   -0.4992    0.1785 C   0  0  0  0  0  0  0  0  0  0  0  0
   -4.9020    0.2719   -0.2680 C   0  0  0  0  0  0  0  0  0  0  0  0
   -6.1853   -0.4239    0.1487 C   0  0  0  0  0  0  0  0  0  0  0  0
   -0.1484    0.4814   -1.4073 H   0  0  0  0  0  0  0  0  0  0  0  0
    1.1894   -1.3344   -0.3277 H   0  0  0  0  0  0  0  0  0  0  0  0
    1.1916   -0.3777    1.1863 H   0  0  0  0  0  0  0  0  0  0  0  0
    3.2843   -1.5500   -1.6579 H   0  0  0  0  0  0  0  0  0  0  0  0
    4.6368   -1.9318   -0.5773 H   0  0  0  0  0  0  0  0  0  0  0  0
    3.0005   -2.2871   -0.0750 H   0  0  0  0  0  0  0  0  0  0  0  0
    4.5700    1.7531   -0.1622 H   0  0  0  0  0  0  0  0  0  0  0  0
    4.5720    0.8196   -1.6488 H   0  0  0  0  0  0  0  0  0  0  0  0
    5.6420    0.3433   -0.3119 H   0  0  0  0  0  0  0  0  0  0  0  0
    2.9970   -1.0153    1.9491 H   0  0  0  0  0  0  0  0  0  0  0  0
    4.6338   -0.4087    1.8503 H   0  0  0  0  0  0  0  0  0  0  0  0
    3.2806    0.7305    1.9733 H   0  0  0  0  0  0  0  0  0  0  0  0
   -1.3074   -0.5412    1.2559 H   0  0  0  0  0  0  0  0  0  0  0  0
   -1.3062   -1.4707   -0.2711 H   0  0  0  0  0  0  0  0  0  0  0  0
   -3.6688   -0.6065    1.2697 H   0  0  0  0  0  0  0  0  0  0  0  0
   -3.6672   -1.4976   -0.2745 H   0  0  0  0  0  0  0  0  0  0  0  0
   -4.8748    1.2845    0.1521 H   0  0  0  0  0  0  0  0  0  0  0  0
   -4.8829    0.3973   -1.3573 H   0  0  0  0  0  0  0  0  0  0  0  0
   -1.0298    2.0312    0.0038 H   0  0  0  0  0  0  0  0  0  0  0  0
   -6.2420   -0.5234    1.2373 H   0  0  0  0  0  0  0  0  0  0  0  0
   -7.0544    0.1513   -0.1853 H   0  0  0  0  0  0  0  0  0  0  0  0
   -6.2503   -1.4238   -0.2919 H   0  0  0  0  0  0  0  0  0  0  0  0
  1  4  1  0  0  0  0
  1  6  1  0  0  0  0
  2 10  1  0  0  0  0
  2 11  1  0  0  0  0
  3  5  1  0  0  0  0
  3 32  1  0  0  0  0
  4  7  1  0  0  0  0
  4  8  1  0  0  0  0
  4  9  1  0  0  0  0
  5  6  1  0  0  0  0
  5 10  1  0  0  0  0
  5 14  1  0  0  0  0
  6 15  1  0  0  0  0
  6 16  1  0  0  0  0
  7 17  1  0  0  0  0
  7 18  1  0  0  0  0
  7 19  1  0  0  0  0
  8 20  1  0  0  0  0
  8 21  1  0  0  0  0
  8 22  1  0  0  0  0
  9 23  1  0  0  0  0
  9 24  1  0  0  0  0
  9 25  1  0  0  0  0
 10 26  1  0  0  0  0
 10 27  1  0  0  0  0
 11 12  1  0  0  0  0
 11 28  1  0  0  0  0
 11 29  1  0  0  0  0
 12 13  1  0  0  0  0
 12 30  1  0  0  0  0
 12 31  1  0  0  0  0
 13 33  1  0  0  0  0
 13 34  1  0  0  0  0
 13 35  1  0  0  0  0
M  END
> <PUBCHEM_COMPOUND_CID>
142644

> <PUBCHEM_CONFORMER_RMSD>
0.8

> <PUBCHEM_CONFORMER_DIVERSEORDER>
1
9
13
21
41
10
30
45
40
17
16
32
6
35
42
46
38
24
11
5
8
20
2
47
12
28
14
26
39
27
43
33
19
7
37
4
36
29
34
18
3
31
22
44
23
15
25

> <PUBCHEM_MMFF94_PARTIAL_CHARGES>
9
1 -0.56
10 0.28
11 0.28
2 -0.56
3 -0.68
32 0.4
4 0.28
5 0.28
6 0.28

> <PUBCHEM_EFFECTIVE_ROTOR_COUNT>
7

> <PUBCHEM_PHARMACOPHORE_FEATURES>
6
1 1 acceptor
1 13 hydrophobe
1 2 acceptor
1 3 acceptor
1 3 donor
4 4 7 8 9 hydrophobe

> <PUBCHEM_HEAVY_ATOM_COUNT>
13

> <PUBCHEM_ATOM_DEF_STEREO_COUNT>
0

> <PUBCHEM_ATOM_UDEF_STEREO_COUNT>
1

> <PUBCHEM_BOND_DEF_STEREO_COUNT>
0

> <PUBCHEM_BOND_UDEF_STEREO_COUNT>
0

> <PUBCHEM_ISOTOPIC_ATOM_COUNT>
0

> <PUBCHEM_COMPONENT_COUNT>
1

> <PUBCHEM_CACTVS_TAUTO_COUNT>
1

> <PUBCHEM_CONFORMER_ID>
00022D3400000001

> <PUBCHEM_MMFF94_ENERGY>
30.9346

> <PUBCHEM_FEATURE_SELFOVERLAP>
30.455

> <PUBCHEM_SHAPE_FINGERPRINT>
11287383 113 16443353108494490565
114248 4 17022621987762276061
12815109 37 18410856576830221253
12932764 1 17203316789886686652
13533116 47 17346322552907260511
14123238 8 17676488354392523423
1420 363 7925626731294500837
14251718 22 17967534605772199171
14252887 29 18131358487767113367
15242433 33 18411420626300857135
17834072 33 18341049713586383477
17834076 25 18343022202744003252
20279233 1 15936416637037133720
20281389 69 16298659492067925509
20645477 70 18340208488407523782
20724930 37 12463573980049267313
220451 1 17632863036069904823
22485316 2 18272649060599196383
23402539 116 12535344580910939617
300161 21 18260543463178212366
42788 4 18186239532925822381
522135 26 13398632758066604256
5374978 207 18410848863501682552
68521 5 18410576141647773997

> <PUBCHEM_SHAPE_MULTIPOLES>
249.93
12.73
1.09
0.88
14.21
0
0.25
1.34
-0.17
-0.71
-0.1
-0.88
0.07
0.1

> <PUBCHEM_SHAPE_SELFOVERLAP>
460.193

> <PUBCHEM_SHAPE_VOLUME>
160.6

> <PUBCHEM_COORDINATE_TYPE>
2
5
10

$$$$
