136629
  -OEChem-11012401193D

 36 37  0     0  0  0  0  0  0999 V2000
   -1.6974    1.8305   -2.0583 O   0  0  0  0  0  0  0  0  0  0  0  0
    1.5668    1.4328    2.4417 O   0  0  0  0  0  0  0  0  0  0  0  0
   -0.6335    0.6674   -0.3073 N   0  0  0  0  0  0  0  0  0  0  0  0
    0.5819    0.6260    0.4595 N   0  0  0  0  0  0  0  0  0  0  0  0
   -1.7022   -0.2851   -0.0776 C   0  0  0  0  0  0  0  0  0  0  0  0
    1.7201   -0.1597    0.0256 C   0  0  0  0  0  0  0  0  0  0  0  0
   -0.7452    1.6710   -1.2917 C   0  0  0  0  0  0  0  0  0  0  0  0
    0.6230    1.3801    1.6505 C   0  0  0  0  0  0  0  0  0  0  0  0
   -2.9867    0.1188   -0.3221 C   0  0  0  0  0  0  0  0  0  0  0  0
    2.5501   -0.6735    0.9849 C   0  0  0  0  0  0  0  0  0  0  0  0
   -1.3657   -1.5337    0.3700 C   0  0  0  0  0  0  0  0  0  0  0  0
    1.9000   -0.3438   -1.3186 C   0  0  0  0  0  0  0  0  0  0  0  0
   -4.0150   -0.7975   -0.1015 C   0  0  0  0  0  0  0  0  0  0  0  0
    3.6452   -1.4299    0.5675 C   0  0  0  0  0  0  0  0  0  0  0  0
   -2.3942   -2.4500    0.5904 C   0  0  0  0  0  0  0  0  0  0  0  0
    2.9952   -1.1004   -1.7359 C   0  0  0  0  0  0  0  0  0  0  0  0
    0.4377    2.6100   -1.4406 C   0  0  0  0  0  0  0  0  0  0  0  0
   -0.6291    2.1624    2.0014 C   0  0  0  0  0  0  0  0  0  0  0  0
   -3.7188   -2.0818    0.3547 C   0  0  0  0  0  0  0  0  0  0  0  0
    3.8678   -1.6434   -0.7927 C   0  0  0  0  0  0  0  0  0  0  0  0
   -3.2729    1.1234   -0.6069 H   0  0  0  0  0  0  0  0  0  0  0  0
    2.3809   -0.6040    2.0516 H   0  0  0  0  0  0  0  0  0  0  0  0
   -0.3486   -1.8540    0.5570 H   0  0  0  0  0  0  0  0  0  0  0  0
    1.2289    0.0301   -2.0803 H   0  0  0  0  0  0  0  0  0  0  0  0
   -5.0480   -0.5064   -0.2690 H   0  0  0  0  0  0  0  0  0  0  0  0
    4.3148   -1.8686    1.3018 H   0  0  0  0  0  0  0  0  0  0  0  0
   -2.1639   -3.4505    0.9451 H   0  0  0  0  0  0  0  0  0  0  0  0
    3.1639   -1.2745   -2.7946 H   0  0  0  0  0  0  0  0  0  0  0  0
    0.9915    2.7987   -0.5228 H   0  0  0  0  0  0  0  0  0  0  0  0
    0.0544    3.5828   -1.7697 H   0  0  0  0  0  0  0  0  0  0  0  0
    1.1136    2.2442   -2.2160 H   0  0  0  0  0  0  0  0  0  0  0  0
   -0.8956    2.8626    1.2075 H   0  0  0  0  0  0  0  0  0  0  0  0
   -1.4578    1.4800    2.2044 H   0  0  0  0  0  0  0  0  0  0  0  0
   -0.4447    2.7469    2.9086 H   0  0  0  0  0  0  0  0  0  0  0  0
   -4.5198   -2.7941    0.5298 H   0  0  0  0  0  0  0  0  0  0  0  0
    4.7170   -2.2377   -1.1174 H   0  0  0  0  0  0  0  0  0  0  0  0
  1  7  2  0  0  0  0
  2  8  2  0  0  0  0
  3  4  1  0  0  0  0
  3  5  1  0  0  0  0
  3  7  1  0  0  0  0
  4  6  1  0  0  0  0
  4  8  1  0  0  0  0
  5  9  2  0  0  0  0
  5 11  1  0  0  0  0
  6 10  2  0  0  0  0
  6 12  1  0  0  0  0
  7 17  1  0  0  0  0
  8 18  1  0  0  0  0
  9 13  1  0  0  0  0
  9 21  1  0  0  0  0
 10 14  1  0  0  0  0
 10 22  1  0  0  0  0
 11 15  2  0  0  0  0
 11 23  1  0  0  0  0
 12 16  2  0  0  0  0
 12 24  1  0  0  0  0
 13 19  2  0  0  0  0
 13 25  1  0  0  0  0
 14 20  2  0  0  0  0
 14 26  1  0  0  0  0
 15 19  1  0  0  0  0
 15 27  1  0  0  0  0
 16 20  1  0  0  0  0
 16 28  1  0  0  0  0
 17 29  1  0  0  0  0
 17 30  1  0  0  0  0
 17 31  1  0  0  0  0
 18 32  1  0  0  0  0
 18 33  1  0  0  0  0
 18 34  1  0  0  0  0
 19 35  1  0  0  0  0
 20 36  1  0  0  0  0
M  END
> <PUBCHEM_COMPOUND_CID>
136629

> <PUBCHEM_CONFORMER_RMSD>
0.8

> <PUBCHEM_CONFORMER_DIVERSEORDER>
1
9
6
2
7
5
3
4
8

> <PUBCHEM_MMFF94_PARTIAL_CHARGES>
30
1 -0.57
10 -0.15
11 -0.15
12 -0.15
13 -0.15
14 -0.15
15 -0.15
16 -0.15
17 0.06
18 0.06
19 -0.15
2 -0.57
20 -0.15
21 0.15
22 0.15
23 0.15
24 0.15
25 0.15
26 0.15
27 0.15
28 0.15
3 -0.18
35 0.15
36 0.15
4 -0.18
5 0.12
6 0.12
7 0.57
8 0.57
9 -0.15

> <PUBCHEM_EFFECTIVE_ROTOR_COUNT>
5

> <PUBCHEM_PHARMACOPHORE_FEATURES>
4
1 1 acceptor
1 2 acceptor
6 5 9 11 13 15 19 rings
6 6 10 12 14 16 20 rings

> <PUBCHEM_HEAVY_ATOM_COUNT>
20

> <PUBCHEM_ATOM_DEF_STEREO_COUNT>
0

> <PUBCHEM_ATOM_UDEF_STEREO_COUNT>
0

> <PUBCHEM_BOND_DEF_STEREO_COUNT>
0

> <PUBCHEM_BOND_UDEF_STEREO_COUNT>
0

> <PUBCHEM_ISOTOPIC_ATOM_COUNT>
0

> <PUBCHEM_COMPONENT_COUNT>
1

> <PUBCHEM_CACTVS_TAUTO_COUNT>
1

> <PUBCHEM_CONFORMER_ID>
000215B500000001

> <PUBCHEM_MMFF94_ENERGY>
87.0099

> <PUBCHEM_FEATURE_SELFOVERLAP>
20.298

> <PUBCHEM_SHAPE_FINGERPRINT>
11578080 2 18410291415043411560
11582403 64 15820064074101954136
11833330 49 17967526840102440196
12202030 40 18340758329824741159
12363563 72 18060426806415616686
12506688 2 18271533069129385330
12553582 1 18113058242167860523
12714826 92 18410575041740052750
12824470 246 18337678507656362986
13583140 156 17979600543723784850
14817 1 11311189105841864344
14863182 85 17044011062209456103
15375462 175 17968361361048561435
15422964 175 17703517584234900174
16752209 62 17605253139433875263
16945 1 18336553707250208671
17804303 29 18413112779560735779
19862831 5 16153423939396036271
20600515 1 18341068370555435590
21452121 199 18265897036960035885
23352939 185 18263944244396198940
23382010 3 14924515272087433691
23419403 2 18200009824920854280
23526113 38 17913179019728579016
23557571 272 18334849503246137668
23559900 14 18410289254605393452
2748010 2 18190448545094445263
298252 57 17027399176553675076
3286 77 18060135487948577759
568465 68 18059852852908723790
576247 118 17917439713290915698
7364860 26 17975142255352377861
77492 1 16298938737059706044
81228 2 17700995252867953504

> <PUBCHEM_SHAPE_MULTIPOLES>
389.89
6.17
2.74
1.94
0.23
0.64
-0.34
-5.44
0.69
0.8
-0.04
-0.84
1.44
0.93

> <PUBCHEM_SHAPE_SELFOVERLAP>
830.409

> <PUBCHEM_SHAPE_VOLUME>
215.8

> <PUBCHEM_COORDINATE_TYPE>
2
5
10

$$$$
