141016
  -OEChem-10312420292D

 66 69  0     0  0  0  0  0  0999 V2000
    4.6376   -0.1910    0.0000 O   0  5  0  0  0  0  0  0  0  0  0  0
    4.6444    0.8171    0.0000 O   0  5  0  0  0  0  0  0  0  0  0  0
    4.2716   -1.5570    0.0000 O   0  0  0  0  0  0  0  0  0  0  0  0
    5.2421   -0.4646    0.0000 O   0  0  0  0  0  0  0  0  0  0  0  0
    8.6017   -3.0570    0.0000 O   0  5  0  0  0  0  0  0  0  0  0  0
    9.7790   -1.0517    0.0000 O   0  5  0  0  0  0  0  0  0  0  0  0
    9.6017   -2.0570    0.0000 O   0  0  0  0  0  0  0  0  0  0  0  0
    9.9022    0.3571    0.0000 O   0  0  0  0  0  0  0  0  0  0  0  0
    8.3697   -3.9230    0.0000 O   0  5  0  0  0  0  0  0  0  0  0  0
    9.3046    1.8854    0.0000 O   0  5  0  0  0  0  0  0  0  0  0  0
    6.8697   -4.7890    0.0000 O   0  0  0  0  0  0  0  0  0  0  0  0
    8.1965    3.4678    0.0000 O   0  0  0  0  0  0  0  0  0  0  0  0
    6.2778   -5.6845    0.0000 O   0  5  0  0  0  0  0  0  0  0  0  0
    3.9565    3.2942    0.0000 O   0  5  0  0  0  0  0  0  0  0  0  0
    2.5924   -3.1589    0.0000 O   0  5  0  0  0  0  0  0  0  0  0  0
    7.5123    4.9999    0.0000 O   0  5  0  0  0  0  0  0  0  0  0  0
    4.5458   -5.6848    0.0000 O   0  0  0  0  0  0  0  0  0  0  0  0
    4.2573    1.5884    0.0000 O   0  0  0  0  0  0  0  0  0  0  0  0
    3.1846   -1.5312    0.0000 O   0  0  0  0  0  0  0  0  0  0  0  0
    8.8393    3.8866    0.0000 O   0  0  0  0  0  0  0  0  0  0  0  0
    3.1135   -6.1133    0.0000 O   0  5  0  0  0  0  0  0  0  0  0  0
    4.5581    5.5209    0.0000 O   0  5  0  0  0  0  0  0  0  0  0  0
    2.0000   -4.7865    0.0000 O   0  0  0  0  0  0  0  0  0  0  0  0
    6.1857    6.1133    0.0000 O   0  0  0  0  0  0  0  0  0  0  0  0
    5.1376   -1.0570    0.0000 N   0  3  0  0  0  0  0  0  0  0  0  0
    5.5841    0.4751    0.0000 N   0  3  0  0  0  0  0  0  0  0  0  0
    8.6017   -2.0570    0.0000 N   0  3  0  0  0  0  0  0  0  0  0  0
    9.1362   -0.2857    0.0000 N   0  3  0  0  0  0  0  0  0  0  0  0
    7.3698   -3.9230    0.0000 N   0  3  0  0  0  0  0  0  0  0  0  0
    8.5386    2.5281    0.0000 N   0  3  0  0  0  0  0  0  0  0  0  0
    5.4117   -5.1847    0.0000 N   0  3  0  0  0  0  0  0  0  0  0  0
    4.5993    2.5281    0.0000 N   0  3  0  0  0  0  0  0  0  0  0  0
    3.3583   -2.5160    0.0000 N   0  3  0  0  0  0  0  0  0  0  0  0
    7.8544    4.0602    0.0000 N   0  3  0  0  0  0  0  0  0  0  0  0
    2.9397   -5.1284    0.0000 N   0  3  0  0  0  0  0  0  0  0  0  0
    5.5429    5.3472    0.0000 N   0  3  0  0  0  0  0  0  0  0  0  0
    6.8697   -1.0570    0.0000 C   0  0  0  0  0  0  0  0  0  0  0  0
    7.2117   -0.1173    0.0000 C   0  0  0  0  0  0  0  0  0  0  0  0
    6.0037   -1.5570    0.0000 C   0  0  0  0  0  0  0  0  0  0  0  0
    6.5689    0.6488    0.0000 C   0  0  0  0  0  0  0  0  0  0  0  0
    6.0037   -2.5570    0.0000 C   0  0  0  0  0  0  0  0  0  0  0  0
    6.9110    1.5884    0.0000 C   0  0  0  0  0  0  0  0  0  0  0  0
    7.7357   -1.5570    0.0000 C   0  0  0  0  0  0  0  0  0  0  0  0
    8.1965    0.0564    0.0000 C   0  0  0  0  0  0  0  0  0  0  0  0
    5.2376   -3.1998    0.0000 C   0  0  0  0  0  0  0  0  0  0  0  0
    6.5689    2.5281    0.0000 C   0  0  0  0  0  0  0  0  0  0  0  0
    6.8697   -3.0570    0.0000 C   0  0  0  0  0  0  0  0  0  0  0  0
    7.8958    1.7621    0.0000 C   0  0  0  0  0  0  0  0  0  0  0  0
    7.7357   -2.5570    0.0000 C   0  0  0  0  0  0  0  0  0  0  0  0
    8.5386    0.9960    0.0000 C   0  0  0  0  0  0  0  0  0  0  0  0
    5.4115   -4.1847    0.0000 C   0  0  0  0  0  0  0  0  0  0  0  0
    5.5841    2.7018    0.0000 C   0  0  0  0  0  0  0  0  0  0  0  0
    4.2980   -2.8579    0.0000 C   0  0  0  0  0  0  0  0  0  0  0  0
    7.2117    3.2942    0.0000 C   0  0  0  0  0  0  0  0  0  0  0  0
    4.6455   -4.8275    0.0000 C   0  0  0  0  0  0  0  0  0  0  0  0
    5.2421    3.6415    0.0000 C   0  0  0  0  0  0  0  0  0  0  0  0
    3.5319   -3.5007    0.0000 C   0  0  0  0  0  0  0  0  0  0  0  0
    6.8697    4.2339    0.0000 C   0  0  0  0  0  0  0  0  0  0  0  0
    3.7057   -4.4856    0.0000 C   0  0  0  0  0  0  0  0  0  0  0  0
    5.8849    4.4075    0.0000 C   0  0  0  0  0  0  0  0  0  0  0  0
    8.2727   -2.8670    0.0000 H   0  0  0  0  0  0  0  0  0  0  0  0
    9.1491    1.1037    0.0000 H   0  0  0  0  0  0  0  0  0  0  0  0
    4.7532   -5.4381    0.0000 H   0  0  0  0  0  0  0  0  0  0  0  0
    4.6315    3.7491    0.0000 H   0  0  0  0  0  0  0  0  0  0  0  0
    2.9493   -3.2887    0.0000 H   0  0  0  0  0  0  0  0  0  0  0  0
    7.2682    4.7088    0.0000 H   0  0  0  0  0  0  0  0  0  0  0  0
  1 25  1  0  0  0  0
  2 26  1  0  0  0  0
  3 25  2  0  0  0  0
  4 26  2  0  0  0  0
  5 27  1  0  0  0  0
  6 28  1  0  0  0  0
  7 27  2  0  0  0  0
  8 28  2  0  0  0  0
  9 29  1  0  0  0  0
 10 30  1  0  0  0  0
 11 29  2  0  0  0  0
 12 30  2  0  0  0  0
 13 31  1  0  0  0  0
 14 32  1  0  0  0  0
 15 33  1  0  0  0  0
 16 34  1  0  0  0  0
 17 31  2  0  0  0  0
 18 32  2  0  0  0  0
 19 33  2  0  0  0  0
 20 34  2  0  0  0  0
 21 35  1  0  0  0  0
 22 36  1  0  0  0  0
 23 35  2  0  0  0  0
 24 36  2  0  0  0  0
 25 39  1  0  0  0  0
 26 40  1  0  0  0  0
 27 43  1  0  0  0  0
 28 44  1  0  0  0  0
 29 47  1  0  0  0  0
 30 48  1  0  0  0  0
 31 51  1  0  0  0  0
 32 52  1  0  0  0  0
 33 53  1  0  0  0  0
 34 54  1  0  0  0  0
 35 59  1  0  0  0  0
 36 60  1  0  0  0  0
 37 38  1  0  0  0  0
 37 39  1  0  0  0  0
 37 43  2  0  0  0  0
 38 40  1  0  0  0  0
 38 44  2  0  0  0  0
 39 41  2  0  0  0  0
 40 42  2  0  0  0  0
 41 45  1  0  0  0  0
 41 47  1  0  0  0  0
 42 46  1  0  0  0  0
 42 48  1  0  0  0  0
 43 49  1  0  0  0  0
 44 50  1  0  0  0  0
 45 51  2  0  0  0  0
 45 53  1  0  0  0  0
 46 52  2  0  0  0  0
 46 54  1  0  0  0  0
 47 49  2  0  0  0  0
 48 50  2  0  0  0  0
 49 61  1  0  0  0  0
 50 62  1  0  0  0  0
 51 55  1  0  0  0  0
 52 56  1  0  0  0  0
 53 57  2  0  0  0  0
 54 58  2  0  0  0  0
 55 59  2  0  0  0  0
 55 63  1  0  0  0  0
 56 60  2  0  0  0  0
 56 64  1  0  0  0  0
 57 59  1  0  0  0  0
 57 65  1  0  0  0  0
 58 60  1  0  0  0  0
 58 66  1  0  0  0  0
M  CHG  8   1  -1   2  -1   5  -1   6  -1   9  -1  10  -1  13  -1  14  -1
M  CHG  8  15  -1  16  -1  21  -1  22  -1  25   1  26   1  27   1  28   1
M  CHG  8  29   1  30   1  31   1  32   1  33   1  34   1  35   1  36   1
M  END
> <PUBCHEM_COMPOUND_CID>
141016

> <PUBCHEM_COMPOUND_CANONICALIZED>
1

> <PUBCHEM_CACTVS_COMPLEXITY>
1660

> <PUBCHEM_CACTVS_HBOND_ACCEPTOR>
24

> <PUBCHEM_CACTVS_HBOND_DONOR>
0

> <PUBCHEM_CACTVS_ROTATABLE_BOND>
3

> <PUBCHEM_CACTVS_SUBSKEYS>
AAADcYB7/gAAAAAAAAAAAAAAAAAAAAAAAAAwYMGAAAAAAAABVAAAHAAEAAAADAiBGAAwwIAQQACBAiRCQwCCAAAgAgAgiAAAZIoIICKA0dGAIABggAAIyAcQgMAOiAACAAQCAAAQAAQACAQAAAAAAAAAAA==

> <PUBCHEM_IUPAC_OPENEYE_NAME>
1,3,5-trinitro-2-(2,4,6-trinitrophenyl)-4-[2,4,6-trinitro-3-(2,4,6-trinitrophenyl)phenyl]benzene

> <PUBCHEM_IUPAC_CAS_NAME>
1,3,5-trinitro-2-(2,4,6-trinitrophenyl)-4-[2,4,6-trinitro-3-(2,4,6-trinitrophenyl)phenyl]benzene

> <PUBCHEM_IUPAC_NAME_MARKUP>
1,3,5-trinitro-2-(2,4,6-trinitrophenyl)-4-[2,4,6-trinitro-3-(2,4,6-trinitrophenyl)phenyl]benzene

> <PUBCHEM_IUPAC_NAME>
1,3,5-trinitro-2-(2,4,6-trinitrophenyl)-4-[2,4,6-trinitro-3-(2,4,6-trinitrophenyl)phenyl]benzene

> <PUBCHEM_IUPAC_SYSTEMATIC_NAME>
1,3,5-trinitro-2-(2,4,6-trinitrophenyl)-4-[2,4,6-trinitro-3-(2,4,6-trinitrophenyl)phenyl]benzene

> <PUBCHEM_IUPAC_TRADITIONAL_NAME>
1,3,5-trinitro-2-picryl-4-(2,4,6-trinitro-3-picryl-phenyl)benzene

> <PUBCHEM_IUPAC_INCHI>
InChI=1S/C24H6N12O24/c37-25(38)7-1-9(27(41)42)17(10(2-7)28(43)44)19-13(31(49)50)5-15(33(53)54)21(23(19)35(57)58)22-16(34(55)56)6-14(32(51)52)20(24(22)36(59)60)18-11(29(45)46)3-8(26(39)40)4-12(18)30(47)48/h1-6H

> <PUBCHEM_IUPAC_INCHIKEY>
IFPMZBBHBZQTOV-UHFFFAOYSA-N

> <PUBCHEM_XLOGP3_AA>
4.7

> <PUBCHEM_EXACT_MASS>
845.96178910

> <PUBCHEM_MOLECULAR_FORMULA>
C24H6N12O24

> <PUBCHEM_MOLECULAR_WEIGHT>
846.4

> <PUBCHEM_OPENEYE_CAN_SMILES>
C1=C(C=C(C(=C1[N+](=O)[O-])C2=C(C(=C(C=C2[N+](=O)[O-])[N+](=O)[O-])C3=C(C=C(C(=C3[N+](=O)[O-])C4=C(C=C(C=C4[N+](=O)[O-])[N+](=O)[O-])[N+](=O)[O-])[N+](=O)[O-])[N+](=O)[O-])[N+](=O)[O-])[N+](=O)[O-])[N+](=O)[O-]

> <PUBCHEM_OPENEYE_ISO_SMILES>
C1=C(C=C(C(=C1[N+](=O)[O-])C2=C(C(=C(C=C2[N+](=O)[O-])[N+](=O)[O-])C3=C(C=C(C(=C3[N+](=O)[O-])C4=C(C=C(C=C4[N+](=O)[O-])[N+](=O)[O-])[N+](=O)[O-])[N+](=O)[O-])[N+](=O)[O-])[N+](=O)[O-])[N+](=O)[O-])[N+](=O)[O-]

> <PUBCHEM_CACTVS_TPSA>
550

> <PUBCHEM_MONOISOTOPIC_WEIGHT>
845.96178910

> <PUBCHEM_TOTAL_CHARGE>
0

> <PUBCHEM_HEAVY_ATOM_COUNT>
60

> <PUBCHEM_ATOM_DEF_STEREO_COUNT>
0

> <PUBCHEM_ATOM_UDEF_STEREO_COUNT>
0

> <PUBCHEM_BOND_DEF_STEREO_COUNT>
0

> <PUBCHEM_BOND_UDEF_STEREO_COUNT>
0

> <PUBCHEM_ISOTOPIC_ATOM_COUNT>
0

> <PUBCHEM_COMPONENT_COUNT>
1

> <PUBCHEM_CACTVS_TAUTO_COUNT>
1

> <PUBCHEM_COORDINATE_TYPE>
1
5
255

> <PUBCHEM_BONDANNOTATIONS>
37  39  8
37  43  8
38  40  8
38  44  8
39  41  8
40  42  8
41  47  8
42  48  8
43  49  8
44  50  8
45  51  8
45  53  8
46  52  8
46  54  8
47  49  8
48  50  8
51  55  8
52  56  8
53  57  8
54  58  8
55  59  8
56  60  8
57  59  8
58  60  8

$$$$
