123074
  -OEChem-11012401203D

 26 28  0     0  0  0  0  0  0999 V2000
   -1.3422    2.8454   -0.0002 O   0  0  0  0  0  0  0  0  0  0  0  0
    1.3420    2.8456    0.0003 O   0  0  0  0  0  0  0  0  0  0  0  0
   -0.7199   -0.7995    0.0001 C   0  0  0  0  0  0  0  0  0  0  0  0
    0.7200   -0.7993    0.0000 C   0  0  0  0  0  0  0  0  0  0  0  0
   -1.4122    0.4397    0.0000 C   0  0  0  0  0  0  0  0  0  0  0  0
    1.4124    0.4397    0.0000 C   0  0  0  0  0  0  0  0  0  0  0  0
   -0.6954    1.6390    0.0000 C   0  0  0  0  0  0  0  0  0  0  0  0
    0.6956    1.6391    0.0001 C   0  0  0  0  0  0  0  0  0  0  0  0
   -1.5155   -1.9728    0.0002 C   0  0  0  0  0  0  0  0  0  0  0  0
    1.5152   -1.9727    0.0001 C   0  0  0  0  0  0  0  0  0  0  0  0
   -2.8172    0.4738   -0.0002 C   0  0  0  0  0  0  0  0  0  0  0  0
    2.8174    0.4736   -0.0002 C   0  0  0  0  0  0  0  0  0  0  0  0
   -2.9121   -1.9247    0.0002 C   0  0  0  0  0  0  0  0  0  0  0  0
    2.9119   -1.9248    0.0000 C   0  0  0  0  0  0  0  0  0  0  0  0
   -3.5630   -0.7009   -0.0002 C   0  0  0  0  0  0  0  0  0  0  0  0
    3.5631   -0.7011   -0.0003 C   0  0  0  0  0  0  0  0  0  0  0  0
   -1.0606   -2.9600    0.0003 H   0  0  0  0  0  0  0  0  0  0  0  0
    1.0601   -2.9598    0.0002 H   0  0  0  0  0  0  0  0  0  0  0  0
   -3.3610    1.4164   -0.0004 H   0  0  0  0  0  0  0  0  0  0  0  0
    3.3613    1.4161   -0.0002 H   0  0  0  0  0  0  0  0  0  0  0  0
   -3.4858   -2.8469    0.0003 H   0  0  0  0  0  0  0  0  0  0  0  0
    3.4853   -2.8471    0.0000 H   0  0  0  0  0  0  0  0  0  0  0  0
   -4.6479   -0.6585   -0.0004 H   0  0  0  0  0  0  0  0  0  0  0  0
    4.6481   -0.6590   -0.0005 H   0  0  0  0  0  0  0  0  0  0  0  0
   -0.7864    3.5078   -0.4432 H   0  0  0  0  0  0  0  0  0  0  0  0
    0.7862    3.5078    0.4438 H   0  0  0  0  0  0  0  0  0  0  0  0
  1  7  1  0  0  0  0
  1 25  1  0  0  0  0
  2  8  1  0  0  0  0
  2 26  1  0  0  0  0
  3  4  1  0  0  0  0
  3  5  1  0  0  0  0
  3  9  2  0  0  0  0
  4  6  1  0  0  0  0
  4 10  2  0  0  0  0
  5  7  1  0  0  0  0
  5 11  2  0  0  0  0
  6  8  1  0  0  0  0
  6 12  2  0  0  0  0
  7  8  2  0  0  0  0
  9 13  1  0  0  0  0
  9 17  1  0  0  0  0
 10 14  1  0  0  0  0
 10 18  1  0  0  0  0
 11 15  1  0  0  0  0
 11 19  1  0  0  0  0
 12 16  1  0  0  0  0
 12 20  1  0  0  0  0
 13 15  2  0  0  0  0
 13 21  1  0  0  0  0
 14 16  2  0  0  0  0
 14 22  1  0  0  0  0
 15 23  1  0  0  0  0
 16 24  1  0  0  0  0
M  END
> <PUBCHEM_COMPOUND_CID>
123074

> <PUBCHEM_CONFORMER_RMSD>
0.4

> <PUBCHEM_CONFORMER_DIVERSEORDER>
1

> <PUBCHEM_MMFF94_PARTIAL_CHARGES>
22
1 -0.53
10 -0.15
11 -0.15
12 -0.15
13 -0.15
14 -0.15
15 -0.15
16 -0.15
17 0.15
18 0.15
19 0.15
2 -0.53
20 0.15
21 0.15
22 0.15
23 0.15
24 0.15
25 0.45
26 0.45
7 0.08
8 0.08
9 -0.15

> <PUBCHEM_EFFECTIVE_ROTOR_COUNT>
0

> <PUBCHEM_PHARMACOPHORE_FEATURES>
5
1 1 donor
1 2 donor
6 3 4 5 6 7 8 rings
6 3 5 9 11 13 15 rings
6 4 6 10 12 14 16 rings

> <PUBCHEM_HEAVY_ATOM_COUNT>
16

> <PUBCHEM_ATOM_DEF_STEREO_COUNT>
0

> <PUBCHEM_ATOM_UDEF_STEREO_COUNT>
0

> <PUBCHEM_BOND_DEF_STEREO_COUNT>
0

> <PUBCHEM_BOND_UDEF_STEREO_COUNT>
0

> <PUBCHEM_ISOTOPIC_ATOM_COUNT>
0

> <PUBCHEM_COMPONENT_COUNT>
1

> <PUBCHEM_CACTVS_TAUTO_COUNT>
10

> <PUBCHEM_CONFORMER_ID>
0001E0C200000001

> <PUBCHEM_MMFF94_ENERGY>
57.7206

> <PUBCHEM_FEATURE_SELFOVERLAP>
25.428

> <PUBCHEM_SHAPE_FINGERPRINT>
10319926 262 17907550577775154554
10967382 1 18122343742143803527
11132069 177 18411975849766251546
11471102 20 18410287055856613487
12032990 46 18410579487005005539
12553582 1 18410579487004804174
13140716 1 18266740370841848417
13221675 6 18410575088958351526
13583140 156 14189287106807954911
15001771 113 18411705391317338585
15042514 8 17976824177129972802
15196674 1 18410856563934971246
15375462 189 18259988158425139195
15442244 35 18411984628584342027
15536298 74 18199751508523620792
16945 1 18410575088958143652
193761 8 18410855464423583812
19868273 325 18337110068618393750
20510252 161 18127689335918732400
20645477 70 18120082030200110255
20871998 184 18129377116205590990
21267235 1 18410865355733435394
21501502 16 18411423877596075912
221490 88 18119533390735061691
22721475 48 18410859862469744134
22802520 49 17770508525602336670
2334 1 17978511167216214533
23402539 116 18269823242580139839
23463225 33 18410576218550431783
23557571 272 18129106624161856638
23559900 14 17838330784403840726
2748010 2 18122061180545654773
3091708 16 9138052691951008712
335352 9 18338798888514029301
34934 24 18410845564523784650
352729 6 17690277105977327049
427121 178 15693259494467393081
5104073 3 18411136935126297258
54173680 148 18122344575678929194
7364860 26 18196934581049878616
81228 2 18265624190477645018
8809292 202 18261115196429892675
9709674 26 18270118985702224710

> <PUBCHEM_SHAPE_MULTIPOLES>
317.53
5.23
2.88
0.6
0
1.32
0
-2.28
0
0
0
0
-0.03
0

> <PUBCHEM_SHAPE_SELFOVERLAP>
721.574

> <PUBCHEM_SHAPE_VOLUME>
166.5

> <PUBCHEM_COORDINATE_TYPE>
2
5
10

$$$$
