68489
  -OEChem-11012401103D

 27 27  0     0  0  0  0  0  0999 V2000
   -0.9764   -1.1382   -0.2301 O   0  0  0  0  0  0  0  0  0  0  0  0
   -1.3860    1.2085   -0.1447 O   0  0  0  0  0  0  0  0  0  0  0  0
    0.5760   -2.3145    1.0153 O   0  0  0  0  0  0  0  0  0  0  0  0
   -3.3703    0.2209    0.5075 O   0  0  0  0  0  0  0  0  0  0  0  0
   -0.6226    0.1107    0.4024 C   0  0  0  0  0  0  0  0  0  0  0  0
    0.8365    0.4134    0.1515 C   0  0  0  0  0  0  0  0  0  0  0  0
    1.4272   -0.0237   -1.0227 C   0  0  0  0  0  0  0  0  0  0  0  0
    1.5547    1.1224    1.1004 C   0  0  0  0  0  0  0  0  0  0  0  0
    2.7740    0.2557   -1.2545 C   0  0  0  0  0  0  0  0  0  0  0  0
    2.9015    1.4019    0.8684 C   0  0  0  0  0  0  0  0  0  0  0  0
    3.5110    0.9685   -0.3091 C   0  0  0  0  0  0  0  0  0  0  0  0
   -0.3050   -2.2560    0.1686 C   0  0  0  0  0  0  0  0  0  0  0  0
   -2.7413    1.1280   -0.0201 C   0  0  0  0  0  0  0  0  0  0  0  0
   -0.8072   -3.4393   -0.6015 C   0  0  0  0  0  0  0  0  0  0  0  0
   -3.3721    2.3418   -0.6314 C   0  0  0  0  0  0  0  0  0  0  0  0
   -0.8306    0.0333    1.4780 H   0  0  0  0  0  0  0  0  0  0  0  0
    0.8717   -0.5571   -1.7882 H   0  0  0  0  0  0  0  0  0  0  0  0
    1.0877    1.4650    2.0192 H   0  0  0  0  0  0  0  0  0  0  0  0
    3.2473   -0.0763   -2.1739 H   0  0  0  0  0  0  0  0  0  0  0  0
    3.4754    1.9576    1.6042 H   0  0  0  0  0  0  0  0  0  0  0  0
    4.5593    1.1875   -0.4903 H   0  0  0  0  0  0  0  0  0  0  0  0
   -1.8751   -3.5774   -0.4146 H   0  0  0  0  0  0  0  0  0  0  0  0
   -0.6179   -3.2945   -1.6681 H   0  0  0  0  0  0  0  0  0  0  0  0
   -0.2775   -4.3377   -0.2721 H   0  0  0  0  0  0  0  0  0  0  0  0
   -4.4597    2.2702   -0.5401 H   0  0  0  0  0  0  0  0  0  0  0  0
   -3.1157    2.3986   -1.6923 H   0  0  0  0  0  0  0  0  0  0  0  0
   -3.0365    3.2389   -0.1052 H   0  0  0  0  0  0  0  0  0  0  0  0
  1  5  1  0  0  0  0
  1 12  1  0  0  0  0
  2  5  1  0  0  0  0
  2 13  1  0  0  0  0
  3 12  2  0  0  0  0
  4 13  2  0  0  0  0
  5  6  1  0  0  0  0
  5 16  1  0  0  0  0
  6  7  2  0  0  0  0
  6  8  1  0  0  0  0
  7  9  1  0  0  0  0
  7 17  1  0  0  0  0
  8 10  2  0  0  0  0
  8 18  1  0  0  0  0
  9 11  2  0  0  0  0
  9 19  1  0  0  0  0
 10 11  1  0  0  0  0
 10 20  1  0  0  0  0
 11 21  1  0  0  0  0
 12 14  1  0  0  0  0
 13 15  1  0  0  0  0
 14 22  1  0  0  0  0
 14 23  1  0  0  0  0
 14 24  1  0  0  0  0
 15 25  1  0  0  0  0
 15 26  1  0  0  0  0
 15 27  1  0  0  0  0
M  END
> <PUBCHEM_COMPOUND_CID>
68489

> <PUBCHEM_CONFORMER_RMSD>
0.6

> <PUBCHEM_CONFORMER_DIVERSEORDER>
1
22
12
8
18
21
19
3
7
11
10
4
6
16
20
5
14
13
9
17
15
2

> <PUBCHEM_MMFF94_PARTIAL_CHARGES>
20
1 -0.43
10 -0.15
11 -0.15
12 0.66
13 0.66
14 0.06
15 0.06
17 0.15
18 0.15
19 0.15
2 -0.43
20 0.15
21 0.15
3 -0.57
4 -0.57
5 0.7
6 -0.14
7 -0.15
8 -0.15
9 -0.15

> <PUBCHEM_EFFECTIVE_ROTOR_COUNT>
5

> <PUBCHEM_PHARMACOPHORE_FEATURES>
3
1 3 acceptor
1 4 acceptor
6 6 7 8 9 10 11 rings

> <PUBCHEM_HEAVY_ATOM_COUNT>
15

> <PUBCHEM_ATOM_DEF_STEREO_COUNT>
0

> <PUBCHEM_ATOM_UDEF_STEREO_COUNT>
0

> <PUBCHEM_BOND_DEF_STEREO_COUNT>
0

> <PUBCHEM_BOND_UDEF_STEREO_COUNT>
0

> <PUBCHEM_ISOTOPIC_ATOM_COUNT>
0

> <PUBCHEM_COMPONENT_COUNT>
1

> <PUBCHEM_CACTVS_TAUTO_COUNT>
1

> <PUBCHEM_CONFORMER_ID>
00010B8900000001

> <PUBCHEM_MMFF94_ENERGY>
30.1267

> <PUBCHEM_FEATURE_SELFOVERLAP>
15.223

> <PUBCHEM_SHAPE_FINGERPRINT>
1 1 18265050223933304215
116883 192 17838898492457923999
12138202 97 18342462590233430636
12500047 106 18411418440805893236
12532896 13 18412820313266556599
12716758 59 18340492265428104386
12730499 353 18267027159627339057
13294875 104 18198886046901669720
13380537 58 18336827606036627300
13538477 17 17460037490009701288
14178000 22 18338219527348404588
15279308 132 18341618113716218184
15490181 7 18411414029452519563
15775835 57 18409449167618760129
15852999 172 18130787863033889428
15906896 17 17969228995665801131
16945 1 18267300031035021350
17134986 127 18335979774854778836
18186145 218 18201447934411107544
18380122 1 17411620598981923320
20524608 308 18269557298389748646
20645476 183 18186812404216813244
20645477 56 18339086011637023632
20645477 70 18120931703738228269
20711985 344 18048313633062686866
21501502 16 17979076312288697520
21524375 3 18334575720091390139
21930827 45 18341048639681094040
23402539 116 17983563393440264463
23419403 2 16964703979845159970
23526113 38 17846789528554398978
23557571 272 17981620560984493388
23559900 14 18272942618389588100
25 1 18131079186028056148
2748010 2 18337687329450415575
276578 36 18334861580187583632
298252 57 18114194024836564912
305870 269 18335976459234737713
3060560 45 18337946797009673925
3071541 158 17541658309847625127
633830 44 18060143085466584749
69090 78 18130227159132261519
7364860 26 17979350863608938703
81228 2 17978511163164165499
81539 233 18187644635761211045
88987 49 18265332983643416956

> <PUBCHEM_SHAPE_MULTIPOLES>
285.22
5.2
3.04
1.07
0.58
3.12
-0.05
-4.31
-0.62
2.08
-0.14
-0.57
-0.05
0.47

> <PUBCHEM_SHAPE_SELFOVERLAP>
586.373

> <PUBCHEM_SHAPE_VOLUME>
162.4

> <PUBCHEM_COORDINATE_TYPE>
2
5
10

$$$$
