135404412
  -OEChem-10312420072D

 94102  0     0  0  0  0  0  0999 V2000
   12.1393    4.4221    0.0000 O   0  0  0  0  0  0  0  0  0  0  0  0
   12.0608   -4.5589    0.0000 O   0  0  0  0  0  0  0  0  0  0  0  0
    2.8221    4.5610    0.0000 O   0  0  0  0  0  0  0  0  0  0  0  0
    2.9777   -4.6964    0.0000 O   0  0  0  0  0  0  0  0  0  0  0  0
    8.9320   -0.0269    0.0000 N   0  0  0  0  0  0  0  0  0  0  0  0
    5.9268   -0.0269    0.0000 N   0  0  0  0  0  0  0  0  0  0  0  0
    7.3967    1.3426    0.0000 N   0  0  0  0  0  0  0  0  0  0  0  0
    7.4302   -1.3963    0.0000 N   0  0  0  0  0  0  0  0  0  0  0  0
    9.4995    0.7751    0.0000 C   0  0  0  0  0  0  0  0  0  0  0  0
    9.5330   -0.7618    0.0000 C   0  0  0  0  0  0  0  0  0  0  0  0
    5.3592    0.7416    0.0000 C   0  0  0  0  0  0  0  0  0  0  0  0
    5.3592   -0.7953    0.0000 C   0  0  0  0  0  0  0  0  0  0  0  0
    9.1998    1.7093    0.0000 C   0  0  0  0  0  0  0  0  0  0  0  0
    9.2333   -1.7295    0.0000 C   0  0  0  0  0  0  0  0  0  0  0  0
    5.6271    1.7093    0.0000 C   0  0  0  0  0  0  0  0  0  0  0  0
    5.6606   -1.7295    0.0000 C   0  0  0  0  0  0  0  0  0  0  0  0
    8.2322    2.0107    0.0000 C   0  0  0  0  0  0  0  0  0  0  0  0
    8.2322   -1.9974    0.0000 C   0  0  0  0  0  0  0  0  0  0  0  0
    6.5948    1.9772    0.0000 C   0  0  0  0  0  0  0  0  0  0  0  0
    6.6283   -2.0309    0.0000 C   0  0  0  0  0  0  0  0  0  0  0  0
   10.4689    0.5072    0.0000 C   0  0  0  0  0  0  0  0  0  0  0  0
   10.4689   -0.4940    0.0000 C   0  0  0  0  0  0  0  0  0  0  0  0
    4.3915    0.4737    0.0000 C   0  0  0  0  0  0  0  0  0  0  0  0
    4.3915   -0.5274    0.0000 C   0  0  0  0  0  0  0  0  0  0  0  0
    9.9347    2.3875    0.0000 C   0  0  0  0  0  0  0  0  0  0  0  0
    9.9402   -2.4369    0.0000 C   0  0  0  0  0  0  0  0  0  0  0  0
    4.9258    2.4222    0.0000 C   0  0  0  0  0  0  0  0  0  0  0  0
    4.9899   -2.4712    0.0000 C   0  0  0  0  0  0  0  0  0  0  0  0
    7.8973    2.9449    0.0000 C   0  0  0  0  0  0  0  0  0  0  0  0
    7.9308   -2.9651    0.0000 C   0  0  0  0  0  0  0  0  0  0  0  0
    6.8962    2.9449    0.0000 C   0  0  0  0  0  0  0  0  0  0  0  0
    6.9296   -2.9651    0.0000 C   0  0  0  0  0  0  0  0  0  0  0  0
    9.7148    3.3630    0.0000 C   0  0  0  0  0  0  0  0  0  0  0  0
   10.9062   -2.1784    0.0000 C   0  0  0  0  0  0  0  0  0  0  0  0
   10.8895    2.0902    0.0000 C   0  0  0  0  0  0  0  0  0  0  0  0
    9.6811   -3.4027    0.0000 C   0  0  0  0  0  0  0  0  0  0  0  0
    3.9578    2.1714    0.0000 C   0  0  0  0  0  0  0  0  0  0  0  0
    5.2968   -3.4229    0.0000 C   0  0  0  0  0  0  0  0  0  0  0  0
    5.1926    3.3860    0.0000 C   0  0  0  0  0  0  0  0  0  0  0  0
    4.0122   -2.2612    0.0000 C   0  0  0  0  0  0  0  0  0  0  0  0
   10.4497    4.0412    0.0000 C   0  0  0  0  0  0  0  0  0  0  0  0
   11.6131   -2.8857    0.0000 C   0  0  0  0  0  0  0  0  0  0  0  0
   11.6244    2.7684    0.0000 C   0  0  0  0  0  0  0  0  0  0  0  0
   10.3879   -4.1100    0.0000 C   0  0  0  0  0  0  0  0  0  0  0  0
    3.2566    2.8843    0.0000 C   0  0  0  0  0  0  0  0  0  0  0  0
    4.6261   -4.1646    0.0000 C   0  0  0  0  0  0  0  0  0  0  0  0
    4.4914    4.0989    0.0000 C   0  0  0  0  0  0  0  0  0  0  0  0
    3.3414   -3.0029    0.0000 C   0  0  0  0  0  0  0  0  0  0  0  0
   11.4045    3.7439    0.0000 C   0  0  0  0  0  0  0  0  0  0  0  0
   11.3540   -3.8515    0.0000 C   0  0  0  0  0  0  0  0  0  0  0  0
    3.5233    3.8480    0.0000 C   0  0  0  0  0  0  0  0  0  0  0  0
    3.6484   -3.9546    0.0000 C   0  0  0  0  0  0  0  0  0  0  0  0
   11.9194    5.3976    0.0000 C   0  0  0  0  0  0  0  0  0  0  0  0
   11.8017   -5.5247    0.0000 C   0  0  0  0  0  0  0  0  0  0  0  0
    3.0889    5.5247    0.0000 C   0  0  0  0  0  0  0  0  0  0  0  0
    2.0000   -4.4864    0.0000 C   0  0  0  0  0  0  0  0  0  0  0  0
    8.3123   -0.0484    0.0000 H   0  0  0  0  0  0  0  0  0  0  0  0
    6.5468   -0.0269    0.0000 H   0  0  0  0  0  0  0  0  0  0  0  0
   10.9622    0.8827    0.0000 H   0  0  0  0  0  0  0  0  0  0  0  0
   10.9640   -0.8672    0.0000 H   0  0  0  0  0  0  0  0  0  0  0  0
    3.8981    0.8491    0.0000 H   0  0  0  0  0  0  0  0  0  0  0  0
    3.8981   -0.9028    0.0000 H   0  0  0  0  0  0  0  0  0  0  0  0
    8.2542    3.4519    0.0000 H   0  0  0  0  0  0  0  0  0  0  0  0
    8.2983   -3.4644    0.0000 H   0  0  0  0  0  0  0  0  0  0  0  0
    6.5287    3.4442    0.0000 H   0  0  0  0  0  0  0  0  0  0  0  0
    6.5647   -3.4663    0.0000 H   0  0  0  0  0  0  0  0  0  0  0  0
    9.1228    3.5474    0.0000 H   0  0  0  0  0  0  0  0  0  0  0  0
   11.0669   -1.5795    0.0000 H   0  0  0  0  0  0  0  0  0  0  0  0
   11.0258    1.4854    0.0000 H   0  0  0  0  0  0  0  0  0  0  0  0
    9.0821   -3.5630    0.0000 H   0  0  0  0  0  0  0  0  0  0  0  0
    3.7924    1.5738    0.0000 H   0  0  0  0  0  0  0  0  0  0  0  0
    5.9030   -3.5531    0.0000 H   0  0  0  0  0  0  0  0  0  0  0  0
    5.7928    3.5415    0.0000 H   0  0  0  0  0  0  0  0  0  0  0  0
    3.8218   -1.6712    0.0000 H   0  0  0  0  0  0  0  0  0  0  0  0
   10.3133    4.6460    0.0000 H   0  0  0  0  0  0  0  0  0  0  0  0
   12.2120   -2.7254    0.0000 H   0  0  0  0  0  0  0  0  0  0  0  0
   12.2163    2.5841    0.0000 H   0  0  0  0  0  0  0  0  0  0  0  0
   10.2273   -4.7088    0.0000 H   0  0  0  0  0  0  0  0  0  0  0  0
    2.6564    2.7287    0.0000 H   0  0  0  0  0  0  0  0  0  0  0  0
    4.8164   -4.7547    0.0000 H   0  0  0  0  0  0  0  0  0  0  0  0
    4.6568    4.6964    0.0000 H   0  0  0  0  0  0  0  0  0  0  0  0
    2.7353   -2.8727    0.0000 H   0  0  0  0  0  0  0  0  0  0  0  0
   12.5242    5.5340    0.0000 H   0  0  0  0  0  0  0  0  0  0  0  0
   11.7831    6.0025    0.0000 H   0  0  0  0  0  0  0  0  0  0  0  0
   11.3146    5.2613    0.0000 H   0  0  0  0  0  0  0  0  0  0  0  0
   11.2029   -5.3640    0.0000 H   0  0  0  0  0  0  0  0  0  0  0  0
   11.6410   -6.1235    0.0000 H   0  0  0  0  0  0  0  0  0  0  0  0
   12.4005   -5.6854    0.0000 H   0  0  0  0  0  0  0  0  0  0  0  0
    3.6864    5.3593    0.0000 H   0  0  0  0  0  0  0  0  0  0  0  0
    3.2543    6.1222    0.0000 H   0  0  0  0  0  0  0  0  0  0  0  0
    2.4913    5.6901    0.0000 H   0  0  0  0  0  0  0  0  0  0  0  0
    2.1302   -3.8802    0.0000 H   0  0  0  0  0  0  0  0  0  0  0  0
    1.3938   -4.3562    0.0000 H   0  0  0  0  0  0  0  0  0  0  0  0
    1.8698   -5.0925    0.0000 H   0  0  0  0  0  0  0  0  0  0  0  0
  1 49  1  0  0  0  0
  1 53  1  0  0  0  0
  2 50  1  0  0  0  0
  2 54  1  0  0  0  0
  3 51  1  0  0  0  0
  3 55  1  0  0  0  0
  4 52  1  0  0  0  0
  4 56  1  0  0  0  0
  5  9  1  0  0  0  0
  5 10  1  0  0  0  0
  5 57  1  0  0  0  0
  6 11  1  0  0  0  0
  6 12  1  0  0  0  0
  6 58  1  0  0  0  0
  7 17  2  0  0  0  0
  7 19  1  0  0  0  0
  8 18  2  0  0  0  0
  8 20  1  0  0  0  0
  9 13  2  0  0  0  0
  9 21  1  0  0  0  0
 10 14  2  0  0  0  0
 10 22  1  0  0  0  0
 11 15  1  0  0  0  0
 11 23  2  0  0  0  0
 12 16  1  0  0  0  0
 12 24  2  0  0  0  0
 13 17  1  0  0  0  0
 13 25  1  0  0  0  0
 14 18  1  0  0  0  0
 14 26  1  0  0  0  0
 15 19  2  0  0  0  0
 15 27  1  0  0  0  0
 16 20  2  0  0  0  0
 16 28  1  0  0  0  0
 17 29  1  0  0  0  0
 18 30  1  0  0  0  0
 19 31  1  0  0  0  0
 20 32  1  0  0  0  0
 21 22  2  0  0  0  0
 21 59  1  0  0  0  0
 22 60  1  0  0  0  0
 23 24  1  0  0  0  0
 23 61  1  0  0  0  0
 24 62  1  0  0  0  0
 25 33  2  0  0  0  0
 25 35  1  0  0  0  0
 26 34  2  0  0  0  0
 26 36  1  0  0  0  0
 27 37  2  0  0  0  0
 27 39  1  0  0  0  0
 28 38  2  0  0  0  0
 28 40  1  0  0  0  0
 29 31  2  0  0  0  0
 29 63  1  0  0  0  0
 30 32  2  0  0  0  0
 30 64  1  0  0  0  0
 31 65  1  0  0  0  0
 32 66  1  0  0  0  0
 33 41  1  0  0  0  0
 33 67  1  0  0  0  0
 34 42  1  0  0  0  0
 34 68  1  0  0  0  0
 35 43  2  0  0  0  0
 35 69  1  0  0  0  0
 36 44  2  0  0  0  0
 36 70  1  0  0  0  0
 37 45  1  0  0  0  0
 37 71  1  0  0  0  0
 38 46  1  0  0  0  0
 38 72  1  0  0  0  0
 39 47  2  0  0  0  0
 39 73  1  0  0  0  0
 40 48  2  0  0  0  0
 40 74  1  0  0  0  0
 41 49  2  0  0  0  0
 41 75  1  0  0  0  0
 42 50  2  0  0  0  0
 42 76  1  0  0  0  0
 43 49  1  0  0  0  0
 43 77  1  0  0  0  0
 44 50  1  0  0  0  0
 44 78  1  0  0  0  0
 45 51  2  0  0  0  0
 45 79  1  0  0  0  0
 46 52  2  0  0  0  0
 46 80  1  0  0  0  0
 47 51  1  0  0  0  0
 47 81  1  0  0  0  0
 48 52  1  0  0  0  0
 48 82  1  0  0  0  0
 53 83  1  0  0  0  0
 53 84  1  0  0  0  0
 53 85  1  0  0  0  0
 54 86  1  0  0  0  0
 54 87  1  0  0  0  0
 54 88  1  0  0  0  0
 55 89  1  0  0  0  0
 55 90  1  0  0  0  0
 55 91  1  0  0  0  0
 56 92  1  0  0  0  0
 56 93  1  0  0  0  0
 56 94  1  0  0  0  0
M  END
> <PUBCHEM_COMPOUND_CID>
135404412

> <PUBCHEM_COMPOUND_CANONICALIZED>
1

> <PUBCHEM_CACTVS_COMPLEXITY>
1030

> <PUBCHEM_CACTVS_HBOND_ACCEPTOR>
6

> <PUBCHEM_CACTVS_HBOND_DONOR>
2

> <PUBCHEM_CACTVS_ROTATABLE_BOND>
8

> <PUBCHEM_CACTVS_SUBSKEYS>
AAADcfB/uAAAAAAAAAAAAAAAAAAAAWLFiwAwYMGAAAAAAAAB/gAAHgAQAAAADAyBngIyxrLJlACgAyRiRACCiCAhIiAImSA2bJgMJuLE8duENChk0BHI6AeQwPAOoAAAAAAAAABAAAAAAAAAAAAAAAAAAA==

> <PUBCHEM_IUPAC_OPENEYE_NAME>
5,10,15,20-tetrakis(4-methoxyphenyl)-21,23-dihydroporphyrin

> <PUBCHEM_IUPAC_CAS_NAME>
5,10,15,20-tetrakis(4-methoxyphenyl)-21,23-dihydroporphyrin

> <PUBCHEM_IUPAC_NAME_MARKUP>
5,10,15,20-tetrakis(4-methoxyphenyl)-21,23-dihydroporphyrin

> <PUBCHEM_IUPAC_NAME>
5,10,15,20-tetrakis(4-methoxyphenyl)-21,23-dihydroporphyrin

> <PUBCHEM_IUPAC_SYSTEMATIC_NAME>
5,10,15,20-tetrakis(4-methoxyphenyl)-21,23-dihydroporphyrin

> <PUBCHEM_IUPAC_TRADITIONAL_NAME>
5,10,15,20-tetrakis(4-methoxyphenyl)-21,23-dihydroporphine

> <PUBCHEM_IUPAC_INCHI>
InChI=1S/C48H38N4O4/c1-53-33-13-5-29(6-14-33)45-37-21-23-39(49-37)46(30-7-15-34(54-2)16-8-30)41-25-27-43(51-41)48(32-11-19-36(56-4)20-12-32)44-28-26-42(52-44)47(40-24-22-38(45)50-40)31-9-17-35(55-3)18-10-31/h5-28,49,52H,1-4H3

> <PUBCHEM_IUPAC_INCHIKEY>
PJOJZHHAECOAFH-UHFFFAOYSA-N

> <PUBCHEM_XLOGP3_AA>
10.3

> <PUBCHEM_EXACT_MASS>
734.28930571

> <PUBCHEM_MOLECULAR_FORMULA>
C48H38N4O4

> <PUBCHEM_MOLECULAR_WEIGHT>
734.8

> <PUBCHEM_OPENEYE_CAN_SMILES>
COC1=CC=C(C=C1)C2=C3C=CC(=C(C4=NC(=C(C5=CC=C(N5)C(=C6C=CC2=N6)C7=CC=C(C=C7)OC)C8=CC=C(C=C8)OC)C=C4)C9=CC=C(C=C9)OC)N3

> <PUBCHEM_OPENEYE_ISO_SMILES>
COC1=CC=C(C=C1)C2=C3C=CC(=C(C4=NC(=C(C5=CC=C(N5)C(=C6C=CC2=N6)C7=CC=C(C=C7)OC)C8=CC=C(C=C8)OC)C=C4)C9=CC=C(C=C9)OC)N3

> <PUBCHEM_CACTVS_TPSA>
94.3

> <PUBCHEM_MONOISOTOPIC_WEIGHT>
734.28930571

> <PUBCHEM_TOTAL_CHARGE>
0

> <PUBCHEM_HEAVY_ATOM_COUNT>
56

> <PUBCHEM_ATOM_DEF_STEREO_COUNT>
0

> <PUBCHEM_ATOM_UDEF_STEREO_COUNT>
0

> <PUBCHEM_BOND_DEF_STEREO_COUNT>
0

> <PUBCHEM_BOND_UDEF_STEREO_COUNT>
0

> <PUBCHEM_ISOTOPIC_ATOM_COUNT>
0

> <PUBCHEM_COMPONENT_COUNT>
1

> <PUBCHEM_CACTVS_TAUTO_COUNT>
-1

> <PUBCHEM_COORDINATE_TYPE>
1
5
255

> <PUBCHEM_BONDANNOTATIONS>
10  14  8
10  22  8
11  15  8
11  23  8
12  16  8
12  24  8
13  17  8
14  18  8
15  19  8
16  20  8
21  22  8
23  24  8
25  33  8
25  35  8
26  34  8
26  36  8
27  37  8
27  39  8
28  38  8
28  40  8
33  41  8
34  42  8
35  43  8
36  44  8
37  45  8
38  46  8
39  47  8
40  48  8
41  49  8
42  50  8
43  49  8
44  50  8
45  51  8
46  52  8
47  51  8
48  52  8
5  10  8
5  9  8
6  11  8
6  12  8
7  17  8
7  19  8
8  18  8
8  20  8
9  13  8
9  21  8

$$$$
