95334
  -OEChem-11012401263D

 22 22  0     1  0  0  0  0  0999 V2000
   -2.2828   -1.9907    0.8401 N   0  0  0  0  0  0  0  0  0  0  0  0
   -1.1269    0.0125   -0.4515 C   0  0  1  0  0  0  0  0  0  0  0  0
   -1.8550    1.3319   -0.0739 C   0  0  0  0  0  0  0  0  0  0  0  0
    0.3471    0.0428   -0.2256 C   0  0  0  0  0  0  0  0  0  0  0  0
   -3.3186    1.3374   -0.4985 C   0  0  0  0  0  0  0  0  0  0  0  0
    0.8739    0.7653    0.8450 C   0  0  0  0  0  0  0  0  0  0  0  0
    1.1988   -0.6511   -1.0850 C   0  0  0  0  0  0  0  0  0  0  0  0
    2.2525    0.7939    1.0561 C   0  0  0  0  0  0  0  0  0  0  0  0
    2.5773   -0.6226   -0.8739 C   0  0  0  0  0  0  0  0  0  0  0  0
   -1.7703   -1.1192    0.2704 C   0  0  0  0  0  0  0  0  0  0  0  0
    3.1041    0.1000    0.1966 C   0  0  0  0  0  0  0  0  0  0  0  0
   -1.2996   -0.1386   -1.5268 H   0  0  0  0  0  0  0  0  0  0  0  0
   -1.8283    1.5074    1.0085 H   0  0  0  0  0  0  0  0  0  0  0  0
   -1.3502    2.1801   -0.5536 H   0  0  0  0  0  0  0  0  0  0  0  0
   -3.9025    0.5833    0.0376 H   0  0  0  0  0  0  0  0  0  0  0  0
   -3.7655    2.3136   -0.2836 H   0  0  0  0  0  0  0  0  0  0  0  0
   -3.4166    1.1528   -1.5730 H   0  0  0  0  0  0  0  0  0  0  0  0
    0.2450    1.3028    1.5469 H   0  0  0  0  0  0  0  0  0  0  0  0
    0.8027   -1.2197   -1.9223 H   0  0  0  0  0  0  0  0  0  0  0  0
    2.6629    1.3527    1.8921 H   0  0  0  0  0  0  0  0  0  0  0  0
    3.2406   -1.1635   -1.5426 H   0  0  0  0  0  0  0  0  0  0  0  0
    4.1774    0.1212    0.3617 H   0  0  0  0  0  0  0  0  0  0  0  0
  1 10  3  0  0  0  0
  2  3  1  0  0  0  0
  2  4  1  0  0  0  0
  2 10  1  0  0  0  0
  2 12  1  0  0  0  0
  3  5  1  0  0  0  0
  3 13  1  0  0  0  0
  3 14  1  0  0  0  0
  4  6  2  0  0  0  0
  4  7  1  0  0  0  0
  5 15  1  0  0  0  0
  5 16  1  0  0  0  0
  5 17  1  0  0  0  0
  6  8  1  0  0  0  0
  6 18  1  0  0  0  0
  7  9  2  0  0  0  0
  7 19  1  0  0  0  0
  8 11  2  0  0  0  0
  8 20  1  0  0  0  0
  9 11  1  0  0  0  0
  9 21  1  0  0  0  0
 11 22  1  0  0  0  0
M  END
> <PUBCHEM_COMPOUND_CID>
95334

> <PUBCHEM_CONFORMER_RMSD>
0.4

> <PUBCHEM_CONFORMER_DIVERSEORDER>
1
10
12
2
11
9
5
4
8
3
7
6

> <PUBCHEM_MMFF94_PARTIAL_CHARGES>
14
1 -0.56
10 0.36
11 -0.15
18 0.15
19 0.15
2 0.34
20 0.15
21 0.15
22 0.15
4 -0.14
6 -0.15
7 -0.15
8 -0.15
9 -0.15

> <PUBCHEM_EFFECTIVE_ROTOR_COUNT>
2

> <PUBCHEM_PHARMACOPHORE_FEATURES>
3
1 1 acceptor
1 5 hydrophobe
6 4 6 7 8 9 11 rings

> <PUBCHEM_HEAVY_ATOM_COUNT>
11

> <PUBCHEM_ATOM_DEF_STEREO_COUNT>
0

> <PUBCHEM_ATOM_UDEF_STEREO_COUNT>
1

> <PUBCHEM_BOND_DEF_STEREO_COUNT>
0

> <PUBCHEM_BOND_UDEF_STEREO_COUNT>
0

> <PUBCHEM_ISOTOPIC_ATOM_COUNT>
0

> <PUBCHEM_COMPONENT_COUNT>
1

> <PUBCHEM_CACTVS_TAUTO_COUNT>
1

> <PUBCHEM_CONFORMER_ID>
0001746600000001

> <PUBCHEM_MMFF94_ENERGY>
21.6726

> <PUBCHEM_FEATURE_SELFOVERLAP>
15.223

> <PUBCHEM_SHAPE_FINGERPRINT>
10857977 72 18339079418418709826
12138202 97 18410285896188920527
124424 183 18272364218652851702
12716758 59 18336549313361618683
12932741 1 18272655640378083692
12932764 1 17917434271504204214
14648413 74 18270955842710077072
15219456 202 18201438103351929096
16945 1 18337682892738694764
17844478 74 18199476621778777010
18186145 218 18198902501048344749
18380122 1 18055916738603993098
18534176 82 18410577279533915557
19973954 147 18341049708938429888
20201158 50 17988360369166120292
20279233 1 18201717353656899678
20653085 51 17345755175248407369
20715346 28 18202564016259646632
21930827 45 18335703819153324585
23402539 116 18266441153661595845
23402655 69 17417237720347133917
2748010 2 18131350838614832588
276578 36 17969505892502591241
29004967 10 17917999381994876298
3248919 1 18334566967053536092
63268167 104 16702295771926355352
6333449 129 18411980261003424663
77492 1 16732702761433815175
81228 2 18261677086116774275

> <PUBCHEM_SHAPE_MULTIPOLES>
221.39
4.93
1.52
1.06
0.5
0.33
0.03
-0.7
-0.19
1.17
0.3
-0.22
0.12
1.1

> <PUBCHEM_SHAPE_SELFOVERLAP>
450.14

> <PUBCHEM_SHAPE_VOLUME>
127

> <PUBCHEM_COORDINATE_TYPE>
2
5
10

$$$$
