227756
  -OEChem-11012400493D

 21 21  0     1  0  0  0  0  0999 V2000
    0.6470   -0.7274   -0.9179 O   0  0  0  0  0  0  0  0  0  0  0  0
   -0.6651    2.0102   -1.0149 O   0  0  0  0  0  0  0  0  0  0  0  0
   -0.8752   -0.2834    1.7889 O   0  0  0  0  0  0  0  0  0  0  0  0
    3.2388   -0.4110    0.1505 O   0  0  0  0  0  0  0  0  0  0  0  0
   -1.1755   -2.0832   -0.6315 O   0  0  0  0  0  0  0  0  0  0  0  0
   -0.1496    1.2409    0.0704 C   0  0  1  0  0  0  0  0  0  0  0  0
   -1.0939    0.1034    0.4404 C   0  0  1  0  0  0  0  0  0  0  0  0
    1.1121    0.5299   -0.3962 C   0  0  1  0  0  0  0  0  0  0  0  0
   -0.5901   -1.0319   -0.4189 C   0  0  0  0  0  0  0  0  0  0  0  0
   -2.5714    0.3926    0.2199 C   0  0  0  0  0  0  0  0  0  0  0  0
    2.1228    0.2599    0.7094 C   0  0  0  0  0  0  0  0  0  0  0  0
    0.0456    1.9295    0.8985 H   0  0  0  0  0  0  0  0  0  0  0  0
    1.5963    1.0584   -1.2256 H   0  0  0  0  0  0  0  0  0  0  0  0
   -2.8832    1.2706    0.7961 H   0  0  0  0  0  0  0  0  0  0  0  0
   -2.8091    0.5597   -0.8356 H   0  0  0  0  0  0  0  0  0  0  0  0
   -3.1893   -0.4444    0.5657 H   0  0  0  0  0  0  0  0  0  0  0  0
    1.7191   -0.3803    1.4990 H   0  0  0  0  0  0  0  0  0  0  0  0
    2.4726    1.1941    1.1584 H   0  0  0  0  0  0  0  0  0  0  0  0
   -0.7747    1.4205   -1.7805 H   0  0  0  0  0  0  0  0  0  0  0  0
   -1.4751   -1.0205    1.9950 H   0  0  0  0  0  0  0  0  0  0  0  0
    2.9149   -1.2361   -0.2496 H   0  0  0  0  0  0  0  0  0  0  0  0
  1  8  1  0  0  0  0
  1  9  1  0  0  0  0
  2  6  1  0  0  0  0
  2 19  1  0  0  0  0
  3  7  1  0  0  0  0
  3 20  1  0  0  0  0
  4 11  1  0  0  0  0
  4 21  1  0  0  0  0
  5  9  2  0  0  0  0
  6  7  1  0  0  0  0
  6  8  1  0  0  0  0
  6 12  1  0  0  0  0
  7  9  1  0  0  0  0
  7 10  1  0  0  0  0
  8 11  1  0  0  0  0
  8 13  1  0  0  0  0
 10 14  1  0  0  0  0
 10 15  1  0  0  0  0
 10 16  1  0  0  0  0
 11 17  1  0  0  0  0
 11 18  1  0  0  0  0
M  END
> <PUBCHEM_COMPOUND_CID>
227756

> <PUBCHEM_CONFORMER_RMSD>
0.4

> <PUBCHEM_CONFORMER_DIVERSEORDER>
14
10
2
17
7
21
13
16
5
12
20
18
9
11
3
15
8
19
4
1
6

> <PUBCHEM_MMFF94_PARTIAL_CHARGES>
13
1 -0.43
11 0.28
19 0.4
2 -0.68
20 0.4
21 0.4
3 -0.68
4 -0.68
5 -0.57
6 0.28
7 0.34
8 0.28
9 0.66

> <PUBCHEM_EFFECTIVE_ROTOR_COUNT>
1.8

> <PUBCHEM_PHARMACOPHORE_FEATURES>
8
1 2 acceptor
1 2 donor
1 3 acceptor
1 3 donor
1 4 acceptor
1 4 donor
1 5 acceptor
5 1 6 7 8 9 rings

> <PUBCHEM_HEAVY_ATOM_COUNT>
11

> <PUBCHEM_ATOM_DEF_STEREO_COUNT>
0

> <PUBCHEM_ATOM_UDEF_STEREO_COUNT>
3

> <PUBCHEM_BOND_DEF_STEREO_COUNT>
0

> <PUBCHEM_BOND_UDEF_STEREO_COUNT>
0

> <PUBCHEM_ISOTOPIC_ATOM_COUNT>
0

> <PUBCHEM_COMPONENT_COUNT>
1

> <PUBCHEM_CACTVS_TAUTO_COUNT>
1

> <PUBCHEM_CONFORMER_ID>
000379AC0000000E

> <PUBCHEM_MMFF94_ENERGY>
21.3127

> <PUBCHEM_FEATURE_SELFOVERLAP>
40.599

> <PUBCHEM_SHAPE_FINGERPRINT>
12423570 1 9550430876004798625
13024252 1 16805317773639169024
137420 1 11821788132557325167
16945 1 18411689980874388621
18185500 45 17118883388649342534
21040471 1 18201173095343082845
23552423 10 17689154934181199397
29004967 10 17677055770964486448
369184 2 18201429281705303056
5084963 1 18059856130068750216
54338 74 18192416679107559342
68250623 7 17900268807798685955

> <PUBCHEM_SHAPE_MULTIPOLES>
197.03
3.03
1.58
1.09
1.79
0.13
-0.3
0.17
-0.53
-0.58
0.58
-0.16
-0.03
0

> <PUBCHEM_SHAPE_SELFOVERLAP>
402.276

> <PUBCHEM_SHAPE_VOLUME>
116.4

> <PUBCHEM_COORDINATE_TYPE>
2
5
10

$$$$
