816742
  -OEChem-11012401253D

 28 29  0     1  0  0  0  0  0999 V2000
   -2.4789   -0.5478   -0.0778 O   0  0  0  0  0  0  0  0  0  0  0  0
   -3.0684    1.6582   -0.4449 O   0  0  0  0  0  0  0  0  0  0  0  0
    0.1301    0.6636    0.6178 C   0  0  2  0  0  0  0  0  0  0  0  0
   -0.7991    1.0298   -0.4977 C   0  0  2  0  0  0  0  0  0  0  0  0
   -0.1603    2.1044    0.3321 C   0  0  0  0  0  0  0  0  0  0  0  0
    1.4768    0.1152    0.2928 C   0  0  0  0  0  0  0  0  0  0  0  0
   -2.2389    0.7659   -0.3409 C   0  0  0  0  0  0  0  0  0  0  0  0
    1.6177   -1.2288   -0.0533 C   0  0  0  0  0  0  0  0  0  0  0  0
    2.5971    0.9451    0.3368 C   0  0  0  0  0  0  0  0  0  0  0  0
    2.8787   -1.7429   -0.3551 C   0  0  0  0  0  0  0  0  0  0  0  0
    3.8582    0.4310    0.0349 C   0  0  0  0  0  0  0  0  0  0  0  0
   -3.8561   -0.8985    0.0911 C   0  0  0  0  0  0  0  0  0  0  0  0
    3.9989   -0.9131   -0.3110 C   0  0  0  0  0  0  0  0  0  0  0  0
   -3.9559   -2.3821    0.3752 C   0  0  0  0  0  0  0  0  0  0  0  0
   -0.3205    0.2772    1.5301 H   0  0  0  0  0  0  0  0  0  0  0  0
   -0.4376    0.9405   -1.5178 H   0  0  0  0  0  0  0  0  0  0  0  0
   -0.7721    2.6412    1.0492 H   0  0  0  0  0  0  0  0  0  0  0  0
    0.5503    2.7410   -0.1806 H   0  0  0  0  0  0  0  0  0  0  0  0
    0.7511   -1.8839   -0.0899 H   0  0  0  0  0  0  0  0  0  0  0  0
    2.5239    1.9897    0.6246 H   0  0  0  0  0  0  0  0  0  0  0  0
    2.9885   -2.7894   -0.6240 H   0  0  0  0  0  0  0  0  0  0  0  0
    4.7316    1.0755    0.0742 H   0  0  0  0  0  0  0  0  0  0  0  0
   -4.2769   -0.3319    0.9293 H   0  0  0  0  0  0  0  0  0  0  0  0
   -4.4089   -0.6586   -0.8241 H   0  0  0  0  0  0  0  0  0  0  0  0
    4.9810   -1.3137   -0.5447 H   0  0  0  0  0  0  0  0  0  0  0  0
   -4.9978   -2.6853    0.5104 H   0  0  0  0  0  0  0  0  0  0  0  0
   -3.5224   -2.9617   -0.4465 H   0  0  0  0  0  0  0  0  0  0  0  0
   -3.3923   -2.6402    1.2779 H   0  0  0  0  0  0  0  0  0  0  0  0
  1  7  1  0  0  0  0
  1 12  1  0  0  0  0
  2  7  2  0  0  0  0
  3  4  1  0  0  0  0
  3  5  1  0  0  0  0
  3  6  1  0  0  0  0
  3 15  1  0  0  0  0
  4  5  1  0  0  0  0
  4  7  1  0  0  0  0
  4 16  1  0  0  0  0
  5 17  1  0  0  0  0
  5 18  1  0  0  0  0
  6  8  2  0  0  0  0
  6  9  1  0  0  0  0
  8 10  1  0  0  0  0
  8 19  1  0  0  0  0
  9 11  2  0  0  0  0
  9 20  1  0  0  0  0
 10 13  2  0  0  0  0
 10 21  1  0  0  0  0
 11 13  1  0  0  0  0
 11 22  1  0  0  0  0
 12 14  1  0  0  0  0
 12 23  1  0  0  0  0
 12 24  1  0  0  0  0
 13 25  1  0  0  0  0
 14 26  1  0  0  0  0
 14 27  1  0  0  0  0
 14 28  1  0  0  0  0
M  END
> <PUBCHEM_COMPOUND_CID>
816742

> <PUBCHEM_CONFORMER_RMSD>
0.6

> <PUBCHEM_CONFORMER_DIVERSEORDER>
1
22
18
20
13
8
7
16
28
27
5
23
15
4
29
2
9
3
25
26
19
12
10
14
6
24
11
17
21

> <PUBCHEM_MMFF94_PARTIAL_CHARGES>
22
1 -0.43
10 -0.15
11 -0.15
12 0.28
13 -0.15
15 0.1
16 0.1
17 0.1
18 0.1
19 0.15
2 -0.57
20 0.15
21 0.15
22 0.15
25 0.15
3 -0.07
4 -0.1
5 -0.2
6 -0.03
7 0.72
8 -0.15
9 -0.15

> <PUBCHEM_EFFECTIVE_ROTOR_COUNT>
4.6

> <PUBCHEM_PHARMACOPHORE_FEATURES>
2
1 2 acceptor
6 6 8 9 10 11 13 rings

> <PUBCHEM_HEAVY_ATOM_COUNT>
14

> <PUBCHEM_ATOM_DEF_STEREO_COUNT>
2

> <PUBCHEM_ATOM_UDEF_STEREO_COUNT>
0

> <PUBCHEM_BOND_DEF_STEREO_COUNT>
0

> <PUBCHEM_BOND_UDEF_STEREO_COUNT>
0

> <PUBCHEM_ISOTOPIC_ATOM_COUNT>
0

> <PUBCHEM_COMPONENT_COUNT>
1

> <PUBCHEM_CACTVS_TAUTO_COUNT>
1

> <PUBCHEM_CONFORMER_ID>
000C766600000001

> <PUBCHEM_MMFF94_ENERGY>
29.1276

> <PUBCHEM_FEATURE_SELFOVERLAP>
10.148

> <PUBCHEM_SHAPE_FINGERPRINT>
10616163 171 18411983520562336207
10618630 7 18410013251607038863
11543360 7 17749115495374628780
11806522 49 18263362649778378437
12032990 46 18412827992752406352
12500047 106 18118114784485324541
12932764 1 17459184084324376968
13296908 3 18412542093817027469
14252887 29 17489597774513276510
15375462 189 17917427678497244003
17834074 16 18411699898091129103
18186145 218 17968372347348298204
19107657 46 18412543180438686670
19141452 34 18341618144382687803
19422 9 18341619208632380152
20261772 1 17916585469844629471
20281407 28 18412826867339249057
20281475 54 18411985740912293432
20645477 70 17916856924609235151
20871998 22 18338237180106842993
20871999 31 18186515488975176421
21079973 296 18334856155717806794
21713013 43 18260547792589779638
221490 88 18412830157864634806
22213442 358 18410011069726748685
22485316 2 18411135827230143931
23402539 116 16515683308470215428
23500284 214 9799421044145859247
23559900 14 18267296535432971306
25610 137 18342459244475304744
2871803 45 18334569166182715175
305870 269 10375878463011575925
3312278 4 18340486664495533241
4416823 128 18410576231920695275
449060 23 18187361077862505403
474229 33 18338795736488166074
5104073 3 18342453708383442554
83771 10 18341896320212228139
8809292 202 18337112263272978451
9709674 26 18198904699596716951

> <PUBCHEM_SHAPE_MULTIPOLES>
276.37
7.89
2.21
0.72
2.06
0.36
0.01
4.09
-0.22
1.31
0.05
0.01
-0.04
0.76

> <PUBCHEM_SHAPE_SELFOVERLAP>
573.414

> <PUBCHEM_SHAPE_VOLUME>
159

> <PUBCHEM_COORDINATE_TYPE>
2
5
10

$$$$
