143010
  -OEChem-11012401193D

 26 28  0     1  0  0  0  0  0999 V2000
   -0.4827    0.3499   -1.2678 C   0  0  2  0  0  0  0  0  0  0  0  0
    0.0851    1.3831   -0.2435 C   0  0  1  0  0  0  0  0  0  0  0  0
   -1.3918   -0.2037    0.8287 C   0  0  2  0  0  0  0  0  0  0  0  0
    0.8519   -1.2802    0.0593 C   0  0  2  0  0  0  0  0  0  0  0  0
   -1.8083   -0.0808   -0.6349 C   0  0  0  0  0  0  0  0  0  0  0  0
   -0.7333    1.1577    1.0454 C   0  0  0  0  0  0  0  0  0  0  0  0
    0.4107   -0.8998   -1.3598 C   0  0  0  0  0  0  0  0  0  0  0  0
   -0.3832   -1.3639    0.9974 C   0  0  0  0  0  0  0  0  0  0  0  0
    1.5767    1.1745    0.0258 C   0  0  0  0  0  0  0  0  0  0  0  0
    1.8749   -0.2367    0.5494 C   0  0  0  0  0  0  0  0  0  0  0  0
   -0.6317    0.7870   -2.2599 H   0  0  0  0  0  0  0  0  0  0  0  0
   -0.0812    2.4045   -0.6058 H   0  0  0  0  0  0  0  0  0  0  0  0
   -2.2521   -0.3476    1.4896 H   0  0  0  0  0  0  0  0  0  0  0  0
    1.3431   -2.2607    0.0512 H   0  0  0  0  0  0  0  0  0  0  0  0
   -2.2032   -1.0157   -1.0454 H   0  0  0  0  0  0  0  0  0  0  0  0
   -2.5718    0.6960   -0.7638 H   0  0  0  0  0  0  0  0  0  0  0  0
   -0.1394    1.2043    1.9639 H   0  0  0  0  0  0  0  0  0  0  0  0
   -1.5071    1.9325    1.1215 H   0  0  0  0  0  0  0  0  0  0  0  0
    1.2837   -0.7026   -1.9940 H   0  0  0  0  0  0  0  0  0  0  0  0
   -0.1331   -1.7297   -1.8272 H   0  0  0  0  0  0  0  0  0  0  0  0
   -0.9100   -2.3031    0.7830 H   0  0  0  0  0  0  0  0  0  0  0  0
   -0.0571   -1.4233    2.0427 H   0  0  0  0  0  0  0  0  0  0  0  0
    1.9483    1.9167    0.7422 H   0  0  0  0  0  0  0  0  0  0  0  0
    2.1332    1.3418   -0.9053 H   0  0  0  0  0  0  0  0  0  0  0  0
    2.8784   -0.5217    0.2086 H   0  0  0  0  0  0  0  0  0  0  0  0
    1.9201   -0.2333    1.6451 H   0  0  0  0  0  0  0  0  0  0  0  0
  1  2  1  0  0  0  0
  1  5  1  0  0  0  0
  1  7  1  0  0  0  0
  1 11  1  0  0  0  0
  2  6  1  0  0  0  0
  2  9  1  0  0  0  0
  2 12  1  0  0  0  0
  3  5  1  0  0  0  0
  3  6  1  0  0  0  0
  3  8  1  0  0  0  0
  3 13  1  0  0  0  0
  4  7  1  0  0  0  0
  4  8  1  0  0  0  0
  4 10  1  0  0  0  0
  4 14  1  0  0  0  0
  5 15  1  0  0  0  0
  5 16  1  0  0  0  0
  6 17  1  0  0  0  0
  6 18  1  0  0  0  0
  7 19  1  0  0  0  0
  7 20  1  0  0  0  0
  8 21  1  0  0  0  0
  8 22  1  0  0  0  0
  9 10  1  0  0  0  0
  9 23  1  0  0  0  0
  9 24  1  0  0  0  0
 10 25  1  0  0  0  0
 10 26  1  0  0  0  0
M  END
> <PUBCHEM_COMPOUND_CID>
143010

> <PUBCHEM_CONFORMER_RMSD>
0.4

> <PUBCHEM_CONFORMER_DIVERSEORDER>
1
2

> <PUBCHEM_MMFF94_PARTIAL_CHARGES>
0

> <PUBCHEM_EFFECTIVE_ROTOR_COUNT>
1.2

> <PUBCHEM_PHARMACOPHORE_FEATURES>
1
10 1 2 3 4 5 6 7 8 9 10 rings

> <PUBCHEM_HEAVY_ATOM_COUNT>
10

> <PUBCHEM_ATOM_DEF_STEREO_COUNT>
0

> <PUBCHEM_ATOM_UDEF_STEREO_COUNT>
4

> <PUBCHEM_BOND_DEF_STEREO_COUNT>
0

> <PUBCHEM_BOND_UDEF_STEREO_COUNT>
0

> <PUBCHEM_ISOTOPIC_ATOM_COUNT>
0

> <PUBCHEM_COMPONENT_COUNT>
1

> <PUBCHEM_CACTVS_TAUTO_COUNT>
1

> <PUBCHEM_CONFORMER_ID>
00022EA200000001

> <PUBCHEM_MMFF94_ENERGY>
31.4446

> <PUBCHEM_FEATURE_SELFOVERLAP>
5.074

> <PUBCHEM_SHAPE_FINGERPRINT>
12423570 1 16085338713328368287
13024252 1 13047311326407574864
137420 1 11915741602871803103
16945 1 18338222834441288197
241688 4 17907575831121635008
29004967 10 18335128778687642985
369184 2 17896295013867329984
5084963 1 18341038645276313504
68250623 7 17843420495697994999

> <PUBCHEM_SHAPE_MULTIPOLES>
205.8
1.92
1.53
1.32
0.2
0.05
-0.2
0.09
0.17
0.23
0.17
-0.23
-0.14
0.02

> <PUBCHEM_SHAPE_SELFOVERLAP>
446.452

> <PUBCHEM_SHAPE_VOLUME>
104.3

> <PUBCHEM_COORDINATE_TYPE>
2
5
10

$$$$
