13806145
  -OEChem-11012401233D

 28 29  0     0  0  0  0  0  0999 V2000
   -2.8246   -0.0426   -0.5007 C   0  0  0  0  0  0  0  0  0  0  0  0
   -3.7215    0.5579    0.5364 C   0  0  0  0  0  0  0  0  0  0  0  0
   -3.6155   -0.9334    0.4059 C   0  0  0  0  0  0  0  0  0  0  0  0
   -1.3477    0.0454   -0.3257 C   0  0  0  0  0  0  0  0  0  0  0  0
   -0.7404    1.2869   -0.1379 C   0  0  0  0  0  0  0  0  0  0  0  0
   -0.5722   -1.1138   -0.3514 C   0  0  0  0  0  0  0  0  0  0  0  0
    1.4183    0.2102   -0.0015 C   0  0  0  0  0  0  0  0  0  0  0  0
    2.8965    0.2986    0.1731 C   0  0  0  0  0  0  0  0  0  0  0  0
    0.6426    1.3693    0.0241 C   0  0  0  0  0  0  0  0  0  0  0  0
    0.8108   -1.0314   -0.1892 C   0  0  0  0  0  0  0  0  0  0  0  0
    3.6667   -0.2027   -1.0633 C   0  0  0  0  0  0  0  0  0  0  0  0
    3.3869   -0.4445    1.4303 C   0  0  0  0  0  0  0  0  0  0  0  0
   -3.1807    0.0221   -1.5266 H   0  0  0  0  0  0  0  0  0  0  0  0
   -4.6376    1.0288    0.2001 H   0  0  0  0  0  0  0  0  0  0  0  0
   -3.2921    1.0099    1.4224 H   0  0  0  0  0  0  0  0  0  0  0  0
   -3.1163   -1.4669    1.2059 H   0  0  0  0  0  0  0  0  0  0  0  0
   -4.4604   -1.4630   -0.0181 H   0  0  0  0  0  0  0  0  0  0  0  0
   -1.3318    2.1987   -0.1207 H   0  0  0  0  0  0  0  0  0  0  0  0
   -1.0316   -2.0873   -0.5018 H   0  0  0  0  0  0  0  0  0  0  0  0
    3.1754    1.3528    0.3067 H   0  0  0  0  0  0  0  0  0  0  0  0
    1.0996    2.3447    0.1684 H   0  0  0  0  0  0  0  0  0  0  0  0
    1.3955   -1.9468   -0.2135 H   0  0  0  0  0  0  0  0  0  0  0  0
    3.5134   -1.2735   -1.2350 H   0  0  0  0  0  0  0  0  0  0  0  0
    4.7422   -0.0357   -0.9391 H   0  0  0  0  0  0  0  0  0  0  0  0
    3.3454    0.3312   -1.9645 H   0  0  0  0  0  0  0  0  0  0  0  0
    2.8642   -0.0847    2.3235 H   0  0  0  0  0  0  0  0  0  0  0  0
    4.4595   -0.2799    1.5793 H   0  0  0  0  0  0  0  0  0  0  0  0
    3.2225   -1.5250    1.3577 H   0  0  0  0  0  0  0  0  0  0  0  0
  1  2  1  0  0  0  0
  1  3  1  0  0  0  0
  1  4  1  0  0  0  0
  1 13  1  0  0  0  0
  2  3  1  0  0  0  0
  2 14  1  0  0  0  0
  2 15  1  0  0  0  0
  3 16  1  0  0  0  0
  3 17  1  0  0  0  0
  4  5  2  0  0  0  0
  4  6  1  0  0  0  0
  5  9  1  0  0  0  0
  5 18  1  0  0  0  0
  6 10  2  0  0  0  0
  6 19  1  0  0  0  0
  7  8  1  0  0  0  0
  7  9  2  0  0  0  0
  7 10  1  0  0  0  0
  8 11  1  0  0  0  0
  8 12  1  0  0  0  0
  8 20  1  0  0  0  0
  9 21  1  0  0  0  0
 10 22  1  0  0  0  0
 11 23  1  0  0  0  0
 11 24  1  0  0  0  0
 11 25  1  0  0  0  0
 12 26  1  0  0  0  0
 12 27  1  0  0  0  0
 12 28  1  0  0  0  0
M  END
> <PUBCHEM_COMPOUND_CID>
13806145

> <PUBCHEM_CONFORMER_RMSD>
0.6

> <PUBCHEM_CONFORMER_DIVERSEORDER>
1
2

> <PUBCHEM_MMFF94_PARTIAL_CHARGES>
19
1 -0.07
10 -0.15
13 0.1
14 0.1
15 0.1
16 0.1
17 0.1
18 0.15
19 0.15
2 -0.2
21 0.15
22 0.15
3 -0.2
4 -0.03
5 -0.15
6 -0.15
7 -0.14
8 0.14
9 -0.15

> <PUBCHEM_EFFECTIVE_ROTOR_COUNT>
2.6

> <PUBCHEM_PHARMACOPHORE_FEATURES>
2
3 8 11 12 hydrophobe
6 4 5 6 7 9 10 rings

> <PUBCHEM_HEAVY_ATOM_COUNT>
12

> <PUBCHEM_ATOM_DEF_STEREO_COUNT>
0

> <PUBCHEM_ATOM_UDEF_STEREO_COUNT>
0

> <PUBCHEM_BOND_DEF_STEREO_COUNT>
0

> <PUBCHEM_BOND_UDEF_STEREO_COUNT>
0

> <PUBCHEM_ISOTOPIC_ATOM_COUNT>
0

> <PUBCHEM_COMPONENT_COUNT>
1

> <PUBCHEM_CACTVS_TAUTO_COUNT>
1

> <PUBCHEM_CONFORMER_ID>
00D2AA4100000001

> <PUBCHEM_MMFF94_ENERGY>
30.3206

> <PUBCHEM_FEATURE_SELFOVERLAP>
10.148

> <PUBCHEM_SHAPE_FINGERPRINT>
10130415 120 18335136509681666336
10219947 1 18342458153294791437
11062470 55 12251901512023557951
11132069 177 18201712964005085847
11543360 7 15647340783155578343
11769659 78 16805592659967346834
12032990 46 18413114960823639606
12251169 10 18411706504315099027
124424 183 18040703754457564437
12932764 1 17968086555770998228
13675066 3 17704075105338700299
13705890 14 15357416008272495304
13760787 19 17458064854559605027
13760787 5 18113052740077020455
14144814 61 18410008836269732947
14289901 80 16370727040848306965
14325111 11 18341332270657625157
14993402 34 18408888459632843325
16945 1 18412536613428156484
17844478 74 18113618980270893589
18186145 218 18334856138474685972
18522853 295 18411981347704230830
190213 19 17846499235867300913
19026448 4 16056879151934059519
19026448 5 16588022394290196205
193761 8 17692254032268667533
19422 9 17458624492987642152
20281407 28 18040432200554711681
20281475 54 18113899359867426339
20645476 183 17677062342422925814
20645477 70 16009017367806471627
22485316 2 17386000689342884123
23402539 116 17988635285796406876
23463225 33 18334290950916954882
2748010 2 18053379903248753317
449060 50 17131546249639853424

> <PUBCHEM_SHAPE_MULTIPOLES>
246.95
6.78
1.23
0.97
0.69
0.13
-0.14
-0.78
-0.95
0.25
0
-0.72
-0.11
-0.08

> <PUBCHEM_SHAPE_SELFOVERLAP>
510.358

> <PUBCHEM_SHAPE_VOLUME>
138.8

> <PUBCHEM_COORDINATE_TYPE>
2
5
10

$$$$
