97340
  -OEChem-11012401003D

 24 24  0     0  0  0  0  0  0999 V2000
    0.9049   -2.8433    0.0032 O   0  5  0  0  0  0  0  0  0  0  0  0
    2.6082   -1.4585    0.0009 O   0  0  0  0  0  0  0  0  0  0  0  0
   -3.9874    0.9593    0.0000 O   0  5  0  0  0  0  0  0  0  0  0  0
   -3.5980   -1.2011   -0.0004 O   0  0  0  0  0  0  0  0  0  0  0  0
    2.3338    1.0137   -0.0007 N   0  0  0  0  0  0  0  0  0  0  0  0
    1.3749   -1.6814    0.0014 N   0  3  0  0  0  0  0  0  0  0  0  0
   -3.1945   -0.0131   -0.0001 N   0  3  0  0  0  0  0  0  0  0  0  0
    0.9482    0.7356   -0.0008 C   0  0  0  0  0  0  0  0  0  0  0  0
    0.4771   -0.5774   -0.0006 C   0  0  0  0  0  0  0  0  0  0  0  0
    0.0469    1.8001   -0.0007 C   0  0  0  0  0  0  0  0  0  0  0  0
   -0.8956   -0.8258   -0.0003 C   0  0  0  0  0  0  0  0  0  0  0  0
   -1.7969    0.2388   -0.0003 C   0  0  0  0  0  0  0  0  0  0  0  0
   -1.3256    1.5517   -0.0005 C   0  0  0  0  0  0  0  0  0  0  0  0
    3.0505    1.1575    1.2492 C   0  0  0  0  0  0  0  0  0  0  0  0
    3.0534    1.1441   -1.2505 C   0  0  0  0  0  0  0  0  0  0  0  0
    0.4021    2.8275   -0.0008 H   0  0  0  0  0  0  0  0  0  0  0  0
   -1.2675   -1.8478    0.0001 H   0  0  0  0  0  0  0  0  0  0  0  0
   -1.9982    2.4056   -0.0004 H   0  0  0  0  0  0  0  0  0  0  0  0
    2.9108    2.1689    1.6451 H   0  0  0  0  0  0  0  0  0  0  0  0
    4.1256    0.9918    1.1229 H   0  0  0  0  0  0  0  0  0  0  0  0
    2.6949    0.4467    2.0035 H   0  0  0  0  0  0  0  0  0  0  0  0
    4.1208    0.9323   -1.1283 H   0  0  0  0  0  0  0  0  0  0  0  0
    2.9541    2.1655   -1.6328 H   0  0  0  0  0  0  0  0  0  0  0  0
    2.6682    0.4584   -2.0135 H   0  0  0  0  0  0  0  0  0  0  0  0
  1  6  1  0  0  0  0
  2  6  2  0  0  0  0
  3  7  1  0  0  0  0
  4  7  2  0  0  0  0
  5  8  1  0  0  0  0
  5 14  1  0  0  0  0
  5 15  1  0  0  0  0
  6  9  1  0  0  0  0
  7 12  1  0  0  0  0
  8  9  2  0  0  0  0
  8 10  1  0  0  0  0
  9 11  1  0  0  0  0
 10 13  2  0  0  0  0
 10 16  1  0  0  0  0
 11 12  2  0  0  0  0
 11 17  1  0  0  0  0
 12 13  1  0  0  0  0
 13 18  1  0  0  0  0
 14 19  1  0  0  0  0
 14 20  1  0  0  0  0
 14 21  1  0  0  0  0
 15 22  1  0  0  0  0
 15 23  1  0  0  0  0
 15 24  1  0  0  0  0
M  CHG  4   1  -1   3  -1   6   1   7   1
M  END
> <PUBCHEM_COMPOUND_CID>
97340

> <PUBCHEM_CONFORMER_RMSD>
0.6

> <PUBCHEM_CONFORMER_DIVERSEORDER>
1

> <PUBCHEM_MMFF94_PARTIAL_CHARGES>
18
1 -0.52
10 -0.15
11 -0.15
12 0.13
13 -0.15
14 0.37
15 0.37
16 0.15
17 0.15
18 0.15
2 -0.52
3 -0.52
4 -0.52
5 -0.84
6 0.91
7 0.91
8 0.1
9 0.13

> <PUBCHEM_EFFECTIVE_ROTOR_COUNT>
3

> <PUBCHEM_PHARMACOPHORE_FEATURES>
8
1 1 acceptor
1 1 anion
1 2 acceptor
1 3 acceptor
1 3 anion
1 4 acceptor
1 5 cation
6 8 9 10 11 12 13 rings

> <PUBCHEM_HEAVY_ATOM_COUNT>
15

> <PUBCHEM_ATOM_DEF_STEREO_COUNT>
0

> <PUBCHEM_ATOM_UDEF_STEREO_COUNT>
0

> <PUBCHEM_BOND_DEF_STEREO_COUNT>
0

> <PUBCHEM_BOND_UDEF_STEREO_COUNT>
0

> <PUBCHEM_ISOTOPIC_ATOM_COUNT>
0

> <PUBCHEM_COMPONENT_COUNT>
1

> <PUBCHEM_CACTVS_TAUTO_COUNT>
1

> <PUBCHEM_CONFORMER_ID>
00017C3C00000001

> <PUBCHEM_MMFF94_ENERGY>
75.3193

> <PUBCHEM_FEATURE_SELFOVERLAP>
40.76

> <PUBCHEM_SHAPE_FINGERPRINT>
10967382 1 18338797917751258151
10980938 120 18410575084916390467
11132069 177 18408597089199370513
11471102 20 18410288086743690573
12932764 1 17846213375892693285
13380535 21 18410022017893629369
13380535 76 18335136539699140067
14251717 144 18410568513690423647
14325111 11 18410856581404951781
14787075 74 17270589510772799841
15219456 202 18263354820269555133
15536298 74 18271805696504672970
15775835 57 18201998863014499664
161256 15 18339359643707604436
16945 1 18338799021558080581
18186145 218 17917439751729622961
193761 8 18050286964149960645
20511035 2 17910940353867044812
20645476 183 17751370705534700340
20645477 70 18340765941087337583
21501502 16 18267028254020865409
21650355 55 17037235321871793786
2334 1 18410575046256487969
23402539 116 18270956964176413916
23402655 69 18341036438497060885
23419403 2 15670606243009525856
23463225 33 18334008389398024920
23493267 7 17604444005996910792
23552423 10 18262805034052980485
2748010 2 18337387115520869061
3312278 4 18412550933382105105
449060 62 18412269415097005749
528886 8 18338795722964960768
53812653 166 18272364325605268624
581208 293 18410852183084101644
7364860 26 18200311005344597534

> <PUBCHEM_SHAPE_MULTIPOLES>
270.27
5.51
2.22
0.81
3.24
1.26
0
-0.98
0
-0.73
0
-0.74
-0.26
0

> <PUBCHEM_SHAPE_SELFOVERLAP>
565.69

> <PUBCHEM_SHAPE_VOLUME>
154.2

> <PUBCHEM_COORDINATE_TYPE>
2
5
10

$$$$
