123376
  -OEChem-11012401283D

 23 22  0     0  0  0  0  0  0999 V2000
   -0.4376    1.9020   -0.5328 O   0  5  0  0  0  0  0  0  0  0  0  0
   -0.4143    0.8067    0.1300 N   0  3  0  0  0  0  0  0  0  0  0  0
    0.6150    0.1023    0.4037 N   0  0  0  0  0  0  0  0  0  0  0  0
   -1.6724    0.2718    0.6436 C   0  0  0  0  0  0  0  0  0  0  0  0
   -2.2583   -0.6426   -0.4193 C   0  0  0  0  0  0  0  0  0  0  0  0
    3.0317   -0.2435    0.2484 C   0  0  0  0  0  0  0  0  0  0  0  0
    1.8631    0.6608   -0.1231 C   0  0  0  0  0  0  0  0  0  0  0  0
   -3.6166   -1.2098   -0.0294 C   0  0  0  0  0  0  0  0  0  0  0  0
    2.8895   -1.6478   -0.3211 C   0  0  0  0  0  0  0  0  0  0  0  0
   -2.3376    1.1155    0.8573 H   0  0  0  0  0  0  0  0  0  0  0  0
   -1.4835   -0.2621    1.5813 H   0  0  0  0  0  0  0  0  0  0  0  0
   -2.3646   -0.0971   -1.3653 H   0  0  0  0  0  0  0  0  0  0  0  0
   -1.5707   -1.4741   -0.6180 H   0  0  0  0  0  0  0  0  0  0  0  0
    3.9621    0.2018   -0.1222 H   0  0  0  0  0  0  0  0  0  0  0  0
    3.1165   -0.3101    1.3395 H   0  0  0  0  0  0  0  0  0  0  0  0
    2.0434    1.6565    0.3003 H   0  0  0  0  0  0  0  0  0  0  0  0
    1.8122    0.7551   -1.2150 H   0  0  0  0  0  0  0  0  0  0  0  0
   -4.3429   -0.4068    0.1318 H   0  0  0  0  0  0  0  0  0  0  0  0
   -3.9981   -1.8612   -0.8217 H   0  0  0  0  0  0  0  0  0  0  0  0
   -3.5436   -1.7979    0.8910 H   0  0  0  0  0  0  0  0  0  0  0  0
    3.7741   -2.2441   -0.0752 H   0  0  0  0  0  0  0  0  0  0  0  0
    2.0157   -2.1623    0.0905 H   0  0  0  0  0  0  0  0  0  0  0  0
    2.7921   -1.6205   -1.4111 H   0  0  0  0  0  0  0  0  0  0  0  0
  1  2  1  0  0  0  0
  2  3  2  0  0  0  0
  2  4  1  0  0  0  0
  3  7  1  0  0  0  0
  4  5  1  0  0  0  0
  4 10  1  0  0  0  0
  4 11  1  0  0  0  0
  5  8  1  0  0  0  0
  5 12  1  0  0  0  0
  5 13  1  0  0  0  0
  6  7  1  0  0  0  0
  6  9  1  0  0  0  0
  6 14  1  0  0  0  0
  6 15  1  0  0  0  0
  7 16  1  0  0  0  0
  7 17  1  0  0  0  0
  8 18  1  0  0  0  0
  8 19  1  0  0  0  0
  8 20  1  0  0  0  0
  9 21  1  0  0  0  0
  9 22  1  0  0  0  0
  9 23  1  0  0  0  0
M  CHG  2   1  -1   2   1
M  END
> <PUBCHEM_COMPOUND_CID>
123376

> <PUBCHEM_CONFORMER_RMSD>
0.6

> <PUBCHEM_CONFORMER_DIVERSEORDER>
1
36
41
48
58
12
30
19
50
54
35
43
55
45
11
34
40
3
53
16
22
14
4
49
39
42
33
46
10
47
13
38
52
56
5
2
37
9
51
7
29
8
25
57
31
6
28
23
18
21
59
20
24
17
26
44
27
32
15

> <PUBCHEM_MMFF94_PARTIAL_CHARGES>
5
1 -0.63
2 0.74
3 -0.45
4 0.1
7 0.25

> <PUBCHEM_EFFECTIVE_ROTOR_COUNT>
4

> <PUBCHEM_PHARMACOPHORE_FEATURES>
3
1 1 anion
1 8 hydrophobe
1 9 hydrophobe

> <PUBCHEM_HEAVY_ATOM_COUNT>
9

> <PUBCHEM_ATOM_DEF_STEREO_COUNT>
0

> <PUBCHEM_ATOM_UDEF_STEREO_COUNT>
0

> <PUBCHEM_BOND_DEF_STEREO_COUNT>
0

> <PUBCHEM_BOND_UDEF_STEREO_COUNT>
0

> <PUBCHEM_ISOTOPIC_ATOM_COUNT>
0

> <PUBCHEM_COMPONENT_COUNT>
1

> <PUBCHEM_CACTVS_TAUTO_COUNT>
1

> <PUBCHEM_CONFORMER_ID>
0001E1F000000001

> <PUBCHEM_MMFF94_ENERGY>
3.3473

> <PUBCHEM_FEATURE_SELFOVERLAP>
15.223

> <PUBCHEM_SHAPE_FINGERPRINT>
10857977 72 14620515653104827451
12932764 1 18190749635233957872
14390081 3 8142074356322409514
177051 138 18131071532401615998
20201158 50 18334295391887200626
20281407 28 18342459235531701930
20653085 51 11674876658631088141
20711985 344 17823127926323486285
21028194 46 9151175376134093763
21293036 1 17385724737419906891
22485316 2 18272082829433179103
23552423 10 18187932733461369546

> <PUBCHEM_SHAPE_MULTIPOLES>
169.38
5.76
1.58
0.72
0.83
0.04
-0.01
-3.39
0.07
-0.21
0.29
0.07
0.03
0.04

> <PUBCHEM_SHAPE_SELFOVERLAP>
301.236

> <PUBCHEM_SHAPE_VOLUME>
111.4

> <PUBCHEM_COORDINATE_TYPE>
2
5
10

$$$$
