14095
  -OEChem-11012400563D

 24 24  0     0  0  0  0  0  0999 V2000
    1.9527   -0.0113    0.6563 C   0  0  0  0  0  0  0  0  0  0  0  0
    0.4873   -0.0061    0.3804 C   0  0  0  0  0  0  0  0  0  0  0  0
    2.7873   -0.0103   -0.6322 C   0  0  0  0  0  0  0  0  0  0  0  0
   -0.1943    1.2043    0.2544 C   0  0  0  0  0  0  0  0  0  0  0  0
   -0.2017   -1.2115    0.2479 C   0  0  0  0  0  0  0  0  0  0  0  0
   -2.2541    0.0039   -0.1366 C   0  0  0  0  0  0  0  0  0  0  0  0
    4.2797    0.0191   -0.3433 C   0  0  0  0  0  0  0  0  0  0  0  0
   -1.5650    1.2094   -0.0040 C   0  0  0  0  0  0  0  0  0  0  0  0
   -1.5725   -1.2066   -0.0106 C   0  0  0  0  0  0  0  0  0  0  0  0
   -3.7195    0.0092   -0.4122 C   0  0  0  0  0  0  0  0  0  0  0  0
    2.2157    0.8607    1.2692 H   0  0  0  0  0  0  0  0  0  0  0  0
    2.2126   -0.8867    1.2657 H   0  0  0  0  0  0  0  0  0  0  0  0
    2.5545   -0.9005   -1.2294 H   0  0  0  0  0  0  0  0  0  0  0  0
    2.5262    0.8597   -1.2472 H   0  0  0  0  0  0  0  0  0  0  0  0
    0.3317    2.1502    0.3532 H   0  0  0  0  0  0  0  0  0  0  0  0
    0.3184   -2.1612    0.3416 H   0  0  0  0  0  0  0  0  0  0  0  0
    4.5521    0.9180    0.2188 H   0  0  0  0  0  0  0  0  0  0  0  0
    4.5826   -0.8564    0.2398 H   0  0  0  0  0  0  0  0  0  0  0  0
    4.8476    0.0179   -1.2789 H   0  0  0  0  0  0  0  0  0  0  0  0
   -2.0845    2.1590   -0.1021 H   0  0  0  0  0  0  0  0  0  0  0  0
   -2.0978   -2.1524   -0.1140 H   0  0  0  0  0  0  0  0  0  0  0  0
   -4.2066   -0.8705    0.0221 H   0  0  0  0  0  0  0  0  0  0  0  0
   -4.2010    0.8902    0.0257 H   0  0  0  0  0  0  0  0  0  0  0  0
   -3.8986    0.0120   -1.4920 H   0  0  0  0  0  0  0  0  0  0  0  0
  1  2  1  0  0  0  0
  1  3  1  0  0  0  0
  1 11  1  0  0  0  0
  1 12  1  0  0  0  0
  2  4  2  0  0  0  0
  2  5  1  0  0  0  0
  3  7  1  0  0  0  0
  3 13  1  0  0  0  0
  3 14  1  0  0  0  0
  4  8  1  0  0  0  0
  4 15  1  0  0  0  0
  5  9  2  0  0  0  0
  5 16  1  0  0  0  0
  6  8  2  0  0  0  0
  6  9  1  0  0  0  0
  6 10  1  0  0  0  0
  7 17  1  0  0  0  0
  7 18  1  0  0  0  0
  7 19  1  0  0  0  0
  8 20  1  0  0  0  0
  9 21  1  0  0  0  0
 10 22  1  0  0  0  0
 10 23  1  0  0  0  0
 10 24  1  0  0  0  0
M  END
> <PUBCHEM_COMPOUND_CID>
14095

> <PUBCHEM_CONFORMER_RMSD>
0.4

> <PUBCHEM_CONFORMER_DIVERSEORDER>
1
2
3
4

> <PUBCHEM_MMFF94_PARTIAL_CHARGES>
12
1 0.14
10 0.14
15 0.15
16 0.15
2 -0.14
20 0.15
21 0.15
4 -0.15
5 -0.15
6 -0.14
8 -0.15
9 -0.15

> <PUBCHEM_EFFECTIVE_ROTOR_COUNT>
2

> <PUBCHEM_PHARMACOPHORE_FEATURES>
2
1 7 hydrophobe
6 2 4 5 6 8 9 rings

> <PUBCHEM_HEAVY_ATOM_COUNT>
10

> <PUBCHEM_ATOM_DEF_STEREO_COUNT>
0

> <PUBCHEM_ATOM_UDEF_STEREO_COUNT>
0

> <PUBCHEM_BOND_DEF_STEREO_COUNT>
0

> <PUBCHEM_BOND_UDEF_STEREO_COUNT>
0

> <PUBCHEM_ISOTOPIC_ATOM_COUNT>
0

> <PUBCHEM_COMPONENT_COUNT>
1

> <PUBCHEM_CACTVS_TAUTO_COUNT>
1

> <PUBCHEM_CONFORMER_ID>
0000370F00000001

> <PUBCHEM_MMFF94_ENERGY>
17.7768

> <PUBCHEM_FEATURE_SELFOVERLAP>
10.148

> <PUBCHEM_SHAPE_FINGERPRINT>
11062470 55 15123511406284867970
11206711 2 18337658738132876629
12032990 46 18341051925521193859
12119455 92 13767918044284886930
12897270 3 18411419514162471798
13024252 1 17749393680321955355
14325111 11 18337391539479433160
14911166 2 18411130351378943861
14993402 34 18113616793921400445
15310529 11 16588292865750514065
15775835 57 17530965782774595028
16945 1 18410844465354743091
20201158 50 17988929963734797838
20645476 183 17749389294939228835
20653085 51 16877951584805666340
21119208 17 18040718065214741886
21293036 1 18408602569461413725
23235685 24 18408316679427082279
23402539 116 18342450430996444980
23402655 69 18123728896027650125
23552423 10 18116429443407294480
23559900 14 18341611543165257136
2748010 2 18049993691288042881

> <PUBCHEM_SHAPE_MULTIPOLES>
205.8
6.02
1.2
0.76
3.7
0
0
-0.03
1.5
-0.52
-0.07
0.18
0
0

> <PUBCHEM_SHAPE_SELFOVERLAP>
412.828

> <PUBCHEM_SHAPE_VOLUME>
117.1

> <PUBCHEM_COORDINATE_TYPE>
2
5
10

$$$$
