144173
  -OEChem-11012400403D

 34 35  0     0  0  0  0  0  0999 V2000
   -0.6880   -0.1149    0.2153 C   0  0  0  0  0  0  0  0  0  0  0  0
   -0.4535   -1.5791    0.4919 C   0  0  0  0  0  0  0  0  0  0  0  0
   -1.5047   -2.4882   -0.1421 C   0  0  0  0  0  0  0  0  0  0  0  0
   -2.9051   -1.9581    0.1370 C   0  0  0  0  0  0  0  0  0  0  0  0
   -3.0887   -0.5773   -0.4899 C   0  0  0  0  0  0  0  0  0  0  0  0
   -1.9421    0.3617   -0.2094 C   0  0  0  0  0  0  0  0  0  0  0  0
    0.3542    0.7966    0.4430 C   0  0  0  0  0  0  0  0  0  0  0  0
    1.7005    0.3450    0.9131 C   0  0  0  0  0  0  0  0  0  0  0  0
   -2.1170    1.7359   -0.4327 C   0  0  0  0  0  0  0  0  0  0  0  0
    2.6394    0.0154   -0.2550 C   0  0  0  0  0  0  0  0  0  0  0  0
    0.1644    2.1611    0.2270 C   0  0  0  0  0  0  0  0  0  0  0  0
   -1.0698    2.6302   -0.2131 C   0  0  0  0  0  0  0  0  0  0  0  0
    3.9983   -0.4820    0.2371 C   0  0  0  0  0  0  0  0  0  0  0  0
    4.9120   -0.8463   -0.9222 C   0  0  0  0  0  0  0  0  0  0  0  0
    0.5201   -1.9071    0.1154 H   0  0  0  0  0  0  0  0  0  0  0  0
   -0.4641   -1.7286    1.5790 H   0  0  0  0  0  0  0  0  0  0  0  0
   -1.3440   -2.5470   -1.2261 H   0  0  0  0  0  0  0  0  0  0  0  0
   -1.3996   -3.5046    0.2539 H   0  0  0  0  0  0  0  0  0  0  0  0
   -3.0665   -1.9005    1.2210 H   0  0  0  0  0  0  0  0  0  0  0  0
   -3.6574   -2.6468   -0.2635 H   0  0  0  0  0  0  0  0  0  0  0  0
   -4.0252   -0.1443   -0.1185 H   0  0  0  0  0  0  0  0  0  0  0  0
   -3.1815   -0.6835   -1.5781 H   0  0  0  0  0  0  0  0  0  0  0  0
    2.1556    1.1358    1.5254 H   0  0  0  0  0  0  0  0  0  0  0  0
    1.6170   -0.5088    1.5954 H   0  0  0  0  0  0  0  0  0  0  0  0
    2.7827    0.9091   -0.8760 H   0  0  0  0  0  0  0  0  0  0  0  0
    2.1882   -0.7428   -0.9061 H   0  0  0  0  0  0  0  0  0  0  0  0
   -3.0744    2.1165   -0.7803 H   0  0  0  0  0  0  0  0  0  0  0  0
    0.9708    2.8706    0.3937 H   0  0  0  0  0  0  0  0  0  0  0  0
   -1.2176    3.6921   -0.3865 H   0  0  0  0  0  0  0  0  0  0  0  0
    4.4789    0.2914    0.8474 H   0  0  0  0  0  0  0  0  0  0  0  0
    3.8629   -1.3627    0.8757 H   0  0  0  0  0  0  0  0  0  0  0  0
    5.0921    0.0201   -1.5667 H   0  0  0  0  0  0  0  0  0  0  0  0
    4.4742   -1.6432   -1.5318 H   0  0  0  0  0  0  0  0  0  0  0  0
    5.8784   -1.1975   -0.5473 H   0  0  0  0  0  0  0  0  0  0  0  0
  1  2  1  0  0  0  0
  1  6  2  0  0  0  0
  1  7  1  0  0  0  0
  2  3  1  0  0  0  0
  2 15  1  0  0  0  0
  2 16  1  0  0  0  0
  3  4  1  0  0  0  0
  3 17  1  0  0  0  0
  3 18  1  0  0  0  0
  4  5  1  0  0  0  0
  4 19  1  0  0  0  0
  4 20  1  0  0  0  0
  5  6  1  0  0  0  0
  5 21  1  0  0  0  0
  5 22  1  0  0  0  0
  6  9  1  0  0  0  0
  7  8  1  0  0  0  0
  7 11  2  0  0  0  0
  8 10  1  0  0  0  0
  8 23  1  0  0  0  0
  8 24  1  0  0  0  0
  9 12  2  0  0  0  0
  9 27  1  0  0  0  0
 10 13  1  0  0  0  0
 10 25  1  0  0  0  0
 10 26  1  0  0  0  0
 11 12  1  0  0  0  0
 11 28  1  0  0  0  0
 12 29  1  0  0  0  0
 13 14  1  0  0  0  0
 13 30  1  0  0  0  0
 13 31  1  0  0  0  0
 14 32  1  0  0  0  0
 14 33  1  0  0  0  0
 14 34  1  0  0  0  0
M  END
> <PUBCHEM_COMPOUND_CID>
144173

> <PUBCHEM_CONFORMER_RMSD>
0.6

> <PUBCHEM_CONFORMER_DIVERSEORDER>
1
9
11
14
7
12
5
4
3
10
13
8
6
2

> <PUBCHEM_MMFF94_PARTIAL_CHARGES>
12
1 -0.14
11 -0.15
12 -0.15
2 0.14
27 0.15
28 0.15
29 0.15
5 0.14
6 -0.14
7 -0.14
8 0.14
9 -0.15

> <PUBCHEM_EFFECTIVE_ROTOR_COUNT>
3.8

> <PUBCHEM_PHARMACOPHORE_FEATURES>
3
1 14 hydrophobe
6 1 2 3 4 5 6 rings
6 1 6 7 9 11 12 rings

> <PUBCHEM_HEAVY_ATOM_COUNT>
14

> <PUBCHEM_ATOM_DEF_STEREO_COUNT>
0

> <PUBCHEM_ATOM_UDEF_STEREO_COUNT>
0

> <PUBCHEM_BOND_DEF_STEREO_COUNT>
0

> <PUBCHEM_BOND_UDEF_STEREO_COUNT>
0

> <PUBCHEM_ISOTOPIC_ATOM_COUNT>
0

> <PUBCHEM_COMPONENT_COUNT>
1

> <PUBCHEM_CACTVS_TAUTO_COUNT>
1

> <PUBCHEM_CONFORMER_ID>
0002332D00000001

> <PUBCHEM_MMFF94_ENERGY>
22.2251

> <PUBCHEM_FEATURE_SELFOVERLAP>
15.244

> <PUBCHEM_SHAPE_FINGERPRINT>
10756046 5 18187933936221531244
11127187 94 18408037407568154198
12032990 46 18338517559524287739
12553582 1 18336256946337815851
14790565 3 18195254312577574457
14911166 2 18336532881291355215
15669948 3 18334571305271250346
16752209 62 18263628615575500803
16945 1 18335684053872233497
17804303 29 18342177790614396683
17870717 6 18199765652331105006
17990270 104 17761202615640414355
19141452 34 17988363771139499575
193761 8 17762327029783848147
20645476 183 17894910672561049509
20645477 70 17471839777257739543
20871998 184 18272368680807328894
20871998 22 18195243557962419849
20871999 31 18408605859670158668
21029758 27 18187936113732526289
21061003 4 17132115749397198160
22213442 358 18267301117767359224
22802520 49 18343297089356971944
2334 1 17831569143778373491
23402539 116 18340478993615124268
23403322 49 18272656706152933142
23557571 272 18341045303008807792
23559900 14 18270674269882190962
2748010 2 18048014548994148193
3071541 250 18118690060941877669
3286 77 16916780863794931323
559249 180 18045497518182042346
573450 72 18116139001367149290
7364860 26 17691966381229556369
77492 1 17458617870622877624
81228 2 18408039636762000872
8809292 202 18412544310246979586
9709674 26 18271529681022655366

> <PUBCHEM_SHAPE_MULTIPOLES>
288.11
6.36
2.71
0.82
9.28
0.45
0
-3.05
-1.72
-2.22
-0.09
0.33
-0.02
0.44

> <PUBCHEM_SHAPE_SELFOVERLAP>
593.178

> <PUBCHEM_SHAPE_VOLUME>
160.8

> <PUBCHEM_COORDINATE_TYPE>
2
5
10

$$$$
