143878
  -OEChem-11012400363D

 29 28  0     1  0  0  0  0  0999 V2000
   -4.9510   -0.7051   -0.4887 Cl  0  0  0  0  0  0  0  0  0  0  0  0
    0.0873   -0.5037   -0.3184 O   0  0  0  0  0  0  0  0  0  0  0  0
   -0.9183    0.5180    1.4889 O   0  0  0  0  0  0  0  0  0  0  0  0
    3.8503   -0.1134   -0.4804 C   0  0  0  0  0  0  0  0  0  0  0  0
    2.4198   -0.5295   -0.8595 C   0  0  0  0  0  0  0  0  0  0  0  0
    1.3594   -0.0454    0.1222 C   0  0  0  0  0  0  0  0  0  0  0  0
    3.9415    1.4116   -0.3906 C   0  0  0  0  0  0  0  0  0  0  0  0
    4.3079   -0.7369    0.8390 C   0  0  0  0  0  0  0  0  0  0  0  0
   -2.2465   -0.7385   -0.1183 C   0  0  0  0  0  0  0  0  0  0  0  0
   -3.4936    0.0996    0.1749 C   0  0  1  0  0  0  0  0  0  0  0  0
   -0.9795   -0.1481    0.4645 C   0  0  0  0  0  0  0  0  0  0  0  0
   -3.3774    1.4915   -0.4336 C   0  0  0  0  0  0  0  0  0  0  0  0
    4.5224   -0.4576   -1.2763 H   0  0  0  0  0  0  0  0  0  0  0  0
    2.3630   -1.6226   -0.9427 H   0  0  0  0  0  0  0  0  0  0  0  0
    2.1779   -0.1511   -1.8613 H   0  0  0  0  0  0  0  0  0  0  0  0
    1.5479   -0.4433    1.1246 H   0  0  0  0  0  0  0  0  0  0  0  0
    1.3352    1.0482    0.1643 H   0  0  0  0  0  0  0  0  0  0  0  0
    4.9891    1.7193   -0.2959 H   0  0  0  0  0  0  0  0  0  0  0  0
    3.4106    1.8128    0.4784 H   0  0  0  0  0  0  0  0  0  0  0  0
    3.5407    1.8853   -1.2929 H   0  0  0  0  0  0  0  0  0  0  0  0
    3.7448   -0.3546    1.6960 H   0  0  0  0  0  0  0  0  0  0  0  0
    5.3659   -0.5152    1.0172 H   0  0  0  0  0  0  0  0  0  0  0  0
    4.1960   -1.8258    0.8132 H   0  0  0  0  0  0  0  0  0  0  0  0
   -2.3549   -1.7470    0.2975 H   0  0  0  0  0  0  0  0  0  0  0  0
   -2.1205   -0.8349   -1.2043 H   0  0  0  0  0  0  0  0  0  0  0  0
   -3.6467    0.1871    1.2558 H   0  0  0  0  0  0  0  0  0  0  0  0
   -4.2877    2.0735   -0.2502 H   0  0  0  0  0  0  0  0  0  0  0  0
   -3.2224    1.4445   -1.5173 H   0  0  0  0  0  0  0  0  0  0  0  0
   -2.5452    2.0546   -0.0001 H   0  0  0  0  0  0  0  0  0  0  0  0
  1 10  1  0  0  0  0
  2  6  1  0  0  0  0
  2 11  1  0  0  0  0
  3 11  2  0  0  0  0
  4  5  1  0  0  0  0
  4  7  1  0  0  0  0
  4  8  1  0  0  0  0
  4 13  1  0  0  0  0
  5  6  1  0  0  0  0
  5 14  1  0  0  0  0
  5 15  1  0  0  0  0
  6 16  1  0  0  0  0
  6 17  1  0  0  0  0
  7 18  1  0  0  0  0
  7 19  1  0  0  0  0
  7 20  1  0  0  0  0
  8 21  1  0  0  0  0
  8 22  1  0  0  0  0
  8 23  1  0  0  0  0
  9 10  1  0  0  0  0
  9 11  1  0  0  0  0
  9 24  1  0  0  0  0
  9 25  1  0  0  0  0
 10 12  1  0  0  0  0
 10 26  1  0  0  0  0
 12 27  1  0  0  0  0
 12 28  1  0  0  0  0
 12 29  1  0  0  0  0
M  END
> <PUBCHEM_COMPOUND_CID>
143878

> <PUBCHEM_CONFORMER_RMSD>
0.6

> <PUBCHEM_CONFORMER_DIVERSEORDER>
1
284
74
341
292
196
317
41
307
116
352
302
54
199
125
236
67
330
92
119
342
279
178
281
299
2
306
354
112
72
315
103
275
40
113
77
14
173
305
58
192
62
311
189
353
146
114
266
10
132
48
349
117
176
232
187
17
274
239
142
320
197
265
277
351
71
313
90
345
89
329
133
350
28
253
255
334
233
38
42
238
5
111
312
84
139
242
23
289
338
140
309
211
145
122
163
22
229
223
310
8
39
98
355
97
297
184
282
32
249
30
151
170
333
267
130
220
326
168
150
96
4
243
147
262
278
246
205
109
221
294
210
87
153
136
118
248
31
273
335
169
251
59
95
61
250
301
348
43
206
228
185
264
101
343
69
25
314
280
331
24
217
94
235
36
322
286
148
260
16
261
60
138
172
85
328
157
325
144
308
66
179
120
298
70
212
123
245
263
203
124
155
324
21
344
276
181
336
226
193
287
3
191
186
183
52
164
91
323
225
241
271
102
63
304
126
171
6
347
20
88
33
149
143
272
332
269
75
44
68
244
247
154
268
177
204
202
9
64
208
104
200
159
227
158
216
7
230
318
105
290
127
53
339
295
115
188
12
81
219
195
213
11
300
128
214
190
135
35
100
222
252
257
291
55
26
137
194
49
283
13
15
46
240
234
319
110
86
108
37
207
45
56
337
218
156
161
174
107
215
288
346
321
182
175
83
79
180
162
131
29
167
258
51
259
198
18
316
296
80
19
201
57
166
34
152
285
340
224
141
27
47
327
50
99
76
293
209
93
106
256
65
73
134
237
121
231
303
254
78
160
270
165
129
82

> <PUBCHEM_MMFF94_PARTIAL_CHARGES>
7
1 -0.29
10 0.29
11 0.66
2 -0.43
3 -0.57
6 0.28
9 0.06

> <PUBCHEM_EFFECTIVE_ROTOR_COUNT>
6

> <PUBCHEM_PHARMACOPHORE_FEATURES>
2
1 3 acceptor
3 4 7 8 hydrophobe

> <PUBCHEM_HEAVY_ATOM_COUNT>
12

> <PUBCHEM_ATOM_DEF_STEREO_COUNT>
0

> <PUBCHEM_ATOM_UDEF_STEREO_COUNT>
1

> <PUBCHEM_BOND_DEF_STEREO_COUNT>
0

> <PUBCHEM_BOND_UDEF_STEREO_COUNT>
0

> <PUBCHEM_ISOTOPIC_ATOM_COUNT>
0

> <PUBCHEM_COMPONENT_COUNT>
1

> <PUBCHEM_CACTVS_TAUTO_COUNT>
1

> <PUBCHEM_CONFORMER_ID>
0002320600000001

> <PUBCHEM_MMFF94_ENERGY>
12.1492

> <PUBCHEM_FEATURE_SELFOVERLAP>
10.148

> <PUBCHEM_SHAPE_FINGERPRINT>
11062470 55 18408325488310119350
11287383 113 18261677073015613883
114248 4 18411699911265954103
12119455 92 13479126913393345211
12670546 56 17603576409459818632
14123238 8 18342739637025012535
17834072 33 18260263079355550295
17834072 8 15719390603471635578
17834076 25 17560804337697626910
18186145 218 18129957679988613614
200 152 17560802108657034118
20279233 1 16702021985025825510
20300324 65 18334575746425761397
20645477 56 18261962843065219677
20645477 70 17703238317093069022
20828058 44 9943804482508746701
21293036 1 17988926673599827911
22959321 105 18201157740740138703
23048698 100 18335144198221511984
23402539 116 18260260855058149055
23557571 272 17917445197816830133
265663 24 18186236221195080131
351380 180 18040995146012959157
366044 4 14706926254836237995
5374978 207 17346595266561793122

> <PUBCHEM_SHAPE_MULTIPOLES>
237.09
10.46
1.17
0.97
0.5
0.45
-0.17
0.11
1.2
-0.01
0.08
-0.17
-0.03
-0.36

> <PUBCHEM_SHAPE_SELFOVERLAP>
429.699

> <PUBCHEM_SHAPE_VOLUME>
153.1

> <PUBCHEM_COORDINATE_TYPE>
2
5
10

$$$$
