8986
  -OEChem-11012401153D

 14 14  0     0  0  0  0  0  0999 V2000
    1.3196   -2.8845   -0.0002 Br  0  0  0  0  0  0  0  0  0  0  0  0
    1.3197    2.8845   -0.0001 Br  0  0  0  0  0  0  0  0  0  0  0  0
   -3.5556    0.0001    0.0000 Br  0  0  0  0  0  0  0  0  0  0  0  0
    2.5402    0.0000    0.0001 N   0  0  0  0  0  0  0  0  0  0  0  0
    1.1242    0.0000    0.0001 C   0  0  0  0  0  0  0  0  0  0  0  0
    0.4267   -1.2080    0.0001 C   0  0  0  0  0  0  0  0  0  0  0  0
    0.4268    1.2080   -0.0001 C   0  0  0  0  0  0  0  0  0  0  0  0
   -0.9682   -1.2081    0.0000 C   0  0  0  0  0  0  0  0  0  0  0  0
   -0.9680    1.2080    0.0000 C   0  0  0  0  0  0  0  0  0  0  0  0
   -1.6655    0.0000    0.0000 C   0  0  0  0  0  0  0  0  0  0  0  0
   -1.5150   -2.1486   -0.0001 H   0  0  0  0  0  0  0  0  0  0  0  0
   -1.5148    2.1486    0.0000 H   0  0  0  0  0  0  0  0  0  0  0  0
    3.0440   -0.8770    0.0009 H   0  0  0  0  0  0  0  0  0  0  0  0
    3.0439    0.8769    0.0008 H   0  0  0  0  0  0  0  0  0  0  0  0
  1  6  1  0  0  0  0
  2  7  1  0  0  0  0
  3 10  1  0  0  0  0
  4  5  1  0  0  0  0
  4 13  1  0  0  0  0
  4 14  1  0  0  0  0
  5  6  2  0  0  0  0
  5  7  1  0  0  0  0
  6  8  1  0  0  0  0
  7  9  2  0  0  0  0
  8 10  2  0  0  0  0
  8 11  1  0  0  0  0
  9 10  1  0  0  0  0
  9 12  1  0  0  0  0
M  END
> <PUBCHEM_COMPOUND_CID>
8986

> <PUBCHEM_CONFORMER_RMSD>
0.4

> <PUBCHEM_CONFORMER_DIVERSEORDER>
1

> <PUBCHEM_MMFF94_PARTIAL_CHARGES>
14
1 -0.11
10 0.11
11 0.15
12 0.15
13 0.4
14 0.4
2 -0.11
3 -0.11
4 -0.9
5 0.1
6 0.11
7 0.11
8 -0.15
9 -0.15

> <PUBCHEM_EFFECTIVE_ROTOR_COUNT>
0

> <PUBCHEM_PHARMACOPHORE_FEATURES>
6
1 1 hydrophobe
1 2 hydrophobe
1 3 hydrophobe
1 4 cation
1 4 donor
6 5 6 7 8 9 10 rings

> <PUBCHEM_HEAVY_ATOM_COUNT>
10

> <PUBCHEM_ATOM_DEF_STEREO_COUNT>
0

> <PUBCHEM_ATOM_UDEF_STEREO_COUNT>
0

> <PUBCHEM_BOND_DEF_STEREO_COUNT>
0

> <PUBCHEM_BOND_UDEF_STEREO_COUNT>
0

> <PUBCHEM_ISOTOPIC_ATOM_COUNT>
0

> <PUBCHEM_COMPONENT_COUNT>
1

> <PUBCHEM_CACTVS_TAUTO_COUNT>
1

> <PUBCHEM_CONFORMER_ID>
0000231A00000001

> <PUBCHEM_MMFF94_ENERGY>
31.8286

> <PUBCHEM_FEATURE_SELFOVERLAP>
30.446

> <PUBCHEM_SHAPE_FINGERPRINT>
1 1 18338233872702417967
12423570 1 10371017595114068287
13380535 76 17980475990258345604
13380536 305 18338805627101639965
161256 15 18196655086137649878
16945 1 18410575089195410053
193761 8 17762056541001275148
20645477 70 18337382829903305903
20871998 184 17408230379057610087
20871998 22 17981891843550149311
21040471 1 17906172106865623393
2334 1 17978228592928290691
23552423 10 18412542150031436567
241688 4 17906173953690719225
2748010 2 18048322429086799415
5084963 1 18130790117533056161
81228 2 17401483749970888467

> <PUBCHEM_SHAPE_MULTIPOLES>
218.64
3.65
3.22
0.65
3.52
0
0
0
0
-2.7
0
0.03
0
0

> <PUBCHEM_SHAPE_SELFOVERLAP>
411.534

> <PUBCHEM_SHAPE_VOLUME>
142.6

> <PUBCHEM_COORDINATE_TYPE>
2
5
10

$$$$
