143209
  -OEChem-11012400313D

 40 41  0     0  0  0  0  0  0999 V2000
    0.8259    0.4791    0.2593 C   0  0  0  0  0  0  0  0  0  0  0  0
   -1.6344    0.3231   -0.2800 C   0  0  0  0  0  0  0  0  0  0  0  0
   -0.4552    1.2606   -0.0270 C   0  0  0  0  0  0  0  0  0  0  0  0
    1.2056   -0.3972   -0.9410 C   0  0  0  0  0  0  0  0  0  0  0  0
    1.9719    1.4318    0.6223 C   0  0  0  0  0  0  0  0  0  0  0  0
    3.6577   -0.1994   -0.3347 C   0  0  0  0  0  0  0  0  0  0  0  0
    2.5115   -1.1519   -0.6983 C   0  0  0  0  0  0  0  0  0  0  0  0
    3.2776    0.6771    0.8653 C   0  0  0  0  0  0  0  0  0  0  0  0
   -1.8760   -0.5837    0.9343 C   0  0  0  0  0  0  0  0  0  0  0  0
   -2.8980    1.1227   -0.6249 C   0  0  0  0  0  0  0  0  0  0  0  0
   -3.0841   -1.4941    0.7264 C   0  0  0  0  0  0  0  0  0  0  0  0
   -4.1045    0.2095   -0.8300 C   0  0  0  0  0  0  0  0  0  0  0  0
   -4.3361   -0.6965    0.3753 C   0  0  0  0  0  0  0  0  0  0  0  0
    4.9380   -0.9811   -0.0470 C   0  0  0  0  0  0  0  0  0  0  0  0
    0.6924   -0.1632    1.1361 H   0  0  0  0  0  0  0  0  0  0  0  0
   -1.4331   -0.3071   -1.1535 H   0  0  0  0  0  0  0  0  0  0  0  0
   -0.3085    1.9130   -0.8975 H   0  0  0  0  0  0  0  0  0  0  0  0
   -0.6810    1.9191    0.8218 H   0  0  0  0  0  0  0  0  0  0  0  0
    1.3047    0.2195   -1.8431 H   0  0  0  0  0  0  0  0  0  0  0  0
    0.4401   -1.1510   -1.1467 H   0  0  0  0  0  0  0  0  0  0  0  0
    1.7138    2.0031    1.5220 H   0  0  0  0  0  0  0  0  0  0  0  0
    2.1218    2.1609   -0.1844 H   0  0  0  0  0  0  0  0  0  0  0  0
    3.8487    0.4559   -1.1949 H   0  0  0  0  0  0  0  0  0  0  0  0
    2.3623   -1.8820    0.1078 H   0  0  0  0  0  0  0  0  0  0  0  0
    2.7718   -1.7221   -1.5981 H   0  0  0  0  0  0  0  0  0  0  0  0
    4.0781    1.3984    1.0692 H   0  0  0  0  0  0  0  0  0  0  0  0
    3.1739    0.0563    1.7645 H   0  0  0  0  0  0  0  0  0  0  0  0
   -2.0283    0.0234    1.8355 H   0  0  0  0  0  0  0  0  0  0  0  0
   -1.0229   -1.2410    1.1245 H   0  0  0  0  0  0  0  0  0  0  0  0
   -2.7325    1.7116   -1.5351 H   0  0  0  0  0  0  0  0  0  0  0  0
   -3.1195    1.8363    0.1792 H   0  0  0  0  0  0  0  0  0  0  0  0
   -3.2644   -2.0809    1.6344 H   0  0  0  0  0  0  0  0  0  0  0  0
   -2.8692   -2.2084   -0.0781 H   0  0  0  0  0  0  0  0  0  0  0  0
   -3.9488   -0.4057   -1.7248 H   0  0  0  0  0  0  0  0  0  0  0  0
   -4.9987    0.8163   -1.0119 H   0  0  0  0  0  0  0  0  0  0  0  0
   -5.1647   -1.3827    0.1673 H   0  0  0  0  0  0  0  0  0  0  0  0
   -4.6341   -0.0874    1.2376 H   0  0  0  0  0  0  0  0  0  0  0  0
    5.7653   -0.3007    0.1811 H   0  0  0  0  0  0  0  0  0  0  0  0
    4.8100   -1.6565    0.8059 H   0  0  0  0  0  0  0  0  0  0  0  0
    5.2287   -1.5828   -0.9147 H   0  0  0  0  0  0  0  0  0  0  0  0
  1  3  1  0  0  0  0
  1  4  1  0  0  0  0
  1  5  1  0  0  0  0
  1 15  1  0  0  0  0
  2  3  1  0  0  0  0
  2  9  1  0  0  0  0
  2 10  1  0  0  0  0
  2 16  1  0  0  0  0
  3 17  1  0  0  0  0
  3 18  1  0  0  0  0
  4  7  1  0  0  0  0
  4 19  1  0  0  0  0
  4 20  1  0  0  0  0
  5  8  1  0  0  0  0
  5 21  1  0  0  0  0
  5 22  1  0  0  0  0
  6  7  1  0  0  0  0
  6  8  1  0  0  0  0
  6 14  1  0  0  0  0
  6 23  1  0  0  0  0
  7 24  1  0  0  0  0
  7 25  1  0  0  0  0
  8 26  1  0  0  0  0
  8 27  1  0  0  0  0
  9 11  1  0  0  0  0
  9 28  1  0  0  0  0
  9 29  1  0  0  0  0
 10 12  1  0  0  0  0
 10 30  1  0  0  0  0
 10 31  1  0  0  0  0
 11 13  1  0  0  0  0
 11 32  1  0  0  0  0
 11 33  1  0  0  0  0
 12 13  1  0  0  0  0
 12 34  1  0  0  0  0
 12 35  1  0  0  0  0
 13 36  1  0  0  0  0
 13 37  1  0  0  0  0
 14 38  1  0  0  0  0
 14 39  1  0  0  0  0
 14 40  1  0  0  0  0
M  END
> <PUBCHEM_COMPOUND_CID>
143209

> <PUBCHEM_CONFORMER_RMSD>
0.6

> <PUBCHEM_CONFORMER_DIVERSEORDER>
1
2
8
7
10
9
11
5
4
6
3

> <PUBCHEM_MMFF94_PARTIAL_CHARGES>
0

> <PUBCHEM_EFFECTIVE_ROTOR_COUNT>
4.4

> <PUBCHEM_PHARMACOPHORE_FEATURES>
2
6 1 4 5 6 7 8 rings
6 2 9 10 11 12 13 rings

> <PUBCHEM_HEAVY_ATOM_COUNT>
14

> <PUBCHEM_ATOM_DEF_STEREO_COUNT>
0

> <PUBCHEM_ATOM_UDEF_STEREO_COUNT>
0

> <PUBCHEM_BOND_DEF_STEREO_COUNT>
0

> <PUBCHEM_BOND_UDEF_STEREO_COUNT>
0

> <PUBCHEM_ISOTOPIC_ATOM_COUNT>
0

> <PUBCHEM_COMPONENT_COUNT>
1

> <PUBCHEM_CACTVS_TAUTO_COUNT>
1

> <PUBCHEM_CONFORMER_ID>
00022F6900000001

> <PUBCHEM_MMFF94_ENERGY>
14.1676

> <PUBCHEM_FEATURE_SELFOVERLAP>
10.149

> <PUBCHEM_SHAPE_FINGERPRINT>
10465860 250 18409164385775642392
10751810 167 16805324405253290385
11543360 7 17386017186523310292
11615757 297 17132114653864078288
12032990 46 18410576201391713553
12236239 1 15719391724294296589
12251169 10 17418095425078138174
124424 183 18410009927133390740
12500047 106 18114175298731402295
13296908 3 18409449210689661369
14115302 16 17749115503742978071
14251717 144 17846497032454256262
14252887 29 17275109388737431886
14386348 63 18411140233697972959
14943859 89 11095884864941368364
14993402 34 15719392841038541038
15219456 202 18412823620322958649
15242439 84 18335977597596282669
15309172 13 17346599668417799607
15375358 24 18411132545859318527
15653759 3 18335138704299054729
15775835 57 12324243883841615137
17834072 14 18411698785567810497
17834074 16 18410293613986818187
17870717 6 18187655660636636263
18175812 5 18411417332145213740
18186145 218 11386361521916189256
19050596 39 16056881346730977931
19141452 34 18341337803330259683
1986462 14 18113617880817118981
200 152 17560795529009827173
20201158 50 18412829070668053739
20279233 1 18411702084171363095
20281407 28 18408610265979465626
20281475 54 18338244872271924841
20325693 3 17385727976294681551
20374829 77 18333729108912245195
20432913 95 17632860815023108430
20645476 183 15864073195571799355
20645477 56 18041558032301630349
20645477 70 18131627868226461302
20871999 31 17821731619570447157
21119208 17 16081089276933271886
22485316 2 18334012800260892082
22854114 59 17775845731094599992
23048698 100 16486972916379642456
23402539 116 16732980907948060846
23403322 49 18335985289629677467
23557571 272 18261391092265178733
23559900 14 18260544520278250264
26918003 58 18060702792766631347
4047638 21 9223234052909994608
474 4 15839836738122788296
4921388 177 16443360783590603595
5104073 3 18343580711959977064
57812782 119 18411134748977074793
58051976 100 17022621996399904267
581208 293 18060415850185711412
69090 78 18272083933440377295
74978 22 15647345194239855113
77492 1 15770057254604546705
8809292 202 18334298694669383667
9709674 26 18189898806302015259

> <PUBCHEM_SHAPE_MULTIPOLES>
288.11
9.24
1.42
1
1.07
0.03
0.01
-2.61
-0.16
-0.01
0.13
-0.14
-0.05
1.08

> <PUBCHEM_SHAPE_SELFOVERLAP>
569.237

> <PUBCHEM_SHAPE_VOLUME>
166.6

> <PUBCHEM_COORDINATE_TYPE>
2
5
10

$$$$
