66765
  -OEChem-11012400463D

 18 19  0     0  0  0  0  0  0999 V2000
    3.6100   -0.3407    0.0006 O   0  0  0  0  0  0  0  0  0  0  0  0
    1.4005   -1.1997   -0.0002 N   0  0  0  0  0  0  0  0  0  0  0  0
    1.6934    1.0538   -0.0001 N   0  0  0  0  0  0  0  0  0  0  0  0
   -3.5108   -0.8260    0.0000 N   0  0  0  0  0  0  0  0  0  0  0  0
    0.1448   -0.5923   -0.0001 C   0  0  0  0  0  0  0  0  0  0  0  0
    0.3241    0.7877   -0.0002 C   0  0  0  0  0  0  0  0  0  0  0  0
   -1.1053   -1.1684    0.0001 C   0  0  0  0  0  0  0  0  0  0  0  0
   -0.7370    1.6643    0.0000 C   0  0  0  0  0  0  0  0  0  0  0  0
   -2.1997   -0.2979    0.0002 C   0  0  0  0  0  0  0  0  0  0  0  0
    2.3975   -0.1834   -0.0003 C   0  0  0  0  0  0  0  0  0  0  0  0
   -2.0175    1.1026    0.0002 C   0  0  0  0  0  0  0  0  0  0  0  0
    1.5617   -2.1993    0.0000 H   0  0  0  0  0  0  0  0  0  0  0  0
   -1.2318   -2.2453    0.0000 H   0  0  0  0  0  0  0  0  0  0  0  0
    2.1048    1.9790    0.0001 H   0  0  0  0  0  0  0  0  0  0  0  0
   -0.5965    2.7385    0.0000 H   0  0  0  0  0  0  0  0  0  0  0  0
   -2.8815    1.7639    0.0003 H   0  0  0  0  0  0  0  0  0  0  0  0
   -3.6523   -1.8274   -0.0008 H   0  0  0  0  0  0  0  0  0  0  0  0
   -4.3070   -0.2025   -0.0007 H   0  0  0  0  0  0  0  0  0  0  0  0
  1 10  2  0  0  0  0
  2  5  1  0  0  0  0
  2 10  1  0  0  0  0
  2 12  1  0  0  0  0
  3  6  1  0  0  0  0
  3 10  1  0  0  0  0
  3 14  1  0  0  0  0
  4  9  1  0  0  0  0
  4 17  1  0  0  0  0
  4 18  1  0  0  0  0
  5  6  2  0  0  0  0
  5  7  1  0  0  0  0
  6  8  1  0  0  0  0
  7  9  2  0  0  0  0
  7 13  1  0  0  0  0
  8 11  2  0  0  0  0
  8 15  1  0  0  0  0
  9 11  1  0  0  0  0
 11 16  1  0  0  0  0
M  END
> <PUBCHEM_COMPOUND_CID>
66765

> <PUBCHEM_CONFORMER_RMSD>
0.4

> <PUBCHEM_CONFORMER_DIVERSEORDER>
1

> <PUBCHEM_MMFF94_PARTIAL_CHARGES>
18
1 -0.57
10 0.69
11 -0.15
12 0.37
13 0.15
14 0.37
15 0.15
16 0.15
17 0.4
18 0.4
2 -0.55
3 -0.55
4 -0.9
5 0.12
6 0.12
7 -0.15
8 -0.15
9 0.1

> <PUBCHEM_EFFECTIVE_ROTOR_COUNT>
0

> <PUBCHEM_PHARMACOPHORE_FEATURES>
7
1 1 acceptor
1 2 donor
1 3 donor
1 4 cation
1 4 donor
5 2 3 5 6 10 rings
6 5 6 7 8 9 11 rings

> <PUBCHEM_HEAVY_ATOM_COUNT>
11

> <PUBCHEM_ATOM_DEF_STEREO_COUNT>
0

> <PUBCHEM_ATOM_UDEF_STEREO_COUNT>
0

> <PUBCHEM_BOND_DEF_STEREO_COUNT>
0

> <PUBCHEM_BOND_UDEF_STEREO_COUNT>
0

> <PUBCHEM_ISOTOPIC_ATOM_COUNT>
0

> <PUBCHEM_COMPONENT_COUNT>
1

> <PUBCHEM_CACTVS_TAUTO_COUNT>
3

> <PUBCHEM_CONFORMER_ID>
000104CD00000001

> <PUBCHEM_MMFF94_ENERGY>
47.1529

> <PUBCHEM_FEATURE_SELFOVERLAP>
35.681

> <PUBCHEM_SHAPE_FINGERPRINT>
10857977 72 18340195353969718977
11206711 2 18335981986899911141
12032990 46 18410299137504775363
12897270 3 18409727352655647381
12932764 1 17060044931054855702
14128692 85 18411703226601015365
14325111 11 18410575054909687104
16945 1 18410855464438966343
193761 8 17762338016035982083
20201158 50 18409166614747799803
20871998 184 18202001010455937007
21040471 1 18122624950938212260
23402539 116 18342446054540944791
23402655 69 18195508317807909245
23552423 10 18260553281589560470
2748010 2 18123471583449762687
369184 2 18411696560769502440
5084963 1 18413671313717843769
528886 8 18339355275804933801

> <PUBCHEM_SHAPE_MULTIPOLES>
205.56
4.47
1.48
0.58
1
0.3
0
-0.99
0
-0.42
0
-0.03
0.01
0

> <PUBCHEM_SHAPE_SELFOVERLAP>
451.116

> <PUBCHEM_SHAPE_VOLUME>
110.8

> <PUBCHEM_COORDINATE_TYPE>
2
5
10

$$$$
