4555946
  -OEChem-11012400553D

 19 18  0     0  0  0  0  0  0999 V2000
   -0.2048    0.3944    1.3017 F   0  0  0  0  0  0  0  0  0  0  0  0
   -1.4694   -1.8294   -0.9600 O   0  5  0  0  0  0  0  0  0  0  0  0
   -2.3396    1.2236   -1.1761 O   0  5  0  0  0  0  0  0  0  0  0  0
   -0.7434   -1.9698    1.1095 O   0  0  0  0  0  0  0  0  0  0  0  0
   -2.5960    1.0881    1.0027 O   0  0  0  0  0  0  0  0  0  0  0  0
    2.6240    1.3955    0.5408 O   0  0  0  0  0  0  0  0  0  0  0  0
    1.5883   -0.1835   -0.8218 N   0  0  0  0  0  0  0  0  0  0  0  0
   -0.9914   -1.3402    0.0723 N   0  3  0  0  0  0  0  0  0  0  0  0
   -1.9751    0.8705   -0.0467 N   0  3  0  0  0  0  0  0  0  0  0  0
   -0.6748    0.1283    0.0594 C   0  0  0  0  0  0  0  0  0  0  0  0
    0.3349    0.5002   -1.0037 C   0  0  0  0  0  0  0  0  0  0  0  0
    2.6314    0.3250   -0.0612 C   0  0  0  0  0  0  0  0  0  0  0  0
    3.8159   -0.6028   -0.0170 C   0  0  0  0  0  0  0  0  0  0  0  0
    0.5280    1.5790   -0.9749 H   0  0  0  0  0  0  0  0  0  0  0  0
   -0.0173    0.2529   -2.0116 H   0  0  0  0  0  0  0  0  0  0  0  0
    1.7005   -1.0895   -1.2677 H   0  0  0  0  0  0  0  0  0  0  0  0
    4.6813   -0.0759    0.3943 H   0  0  0  0  0  0  0  0  0  0  0  0
    3.5814   -1.4617    0.6176 H   0  0  0  0  0  0  0  0  0  0  0  0
    4.0643   -0.9504   -1.0239 H   0  0  0  0  0  0  0  0  0  0  0  0
  1 10  1  0  0  0  0
  2  8  1  0  0  0  0
  3  9  1  0  0  0  0
  4  8  2  0  0  0  0
  5  9  2  0  0  0  0
  6 12  2  0  0  0  0
  7 11  1  0  0  0  0
  7 12  1  0  0  0  0
  7 16  1  0  0  0  0
  8 10  1  0  0  0  0
  9 10  1  0  0  0  0
 10 11  1  0  0  0  0
 11 14  1  0  0  0  0
 11 15  1  0  0  0  0
 12 13  1  0  0  0  0
 13 17  1  0  0  0  0
 13 18  1  0  0  0  0
 13 19  1  0  0  0  0
M  CHG  4   2  -1   3  -1   8   1   9   1
M  END
> <PUBCHEM_COMPOUND_CID>
4555946

> <PUBCHEM_CONFORMER_RMSD>
0.6

> <PUBCHEM_CONFORMER_DIVERSEORDER>
2
20
19
23
28
13
9
14
27
1
22
31
10
26
15
18
24
8
12
29
5
21
25
3
16
6
7
11
30
17
4

> <PUBCHEM_MMFF94_PARTIAL_CHARGES>
14
1 -0.34
10 0.82
11 0.3
12 0.57
13 0.06
16 0.37
2 -0.52
3 -0.52
4 -0.52
5 -0.52
6 -0.57
7 -0.73
8 0.8
9 0.8

> <PUBCHEM_EFFECTIVE_ROTOR_COUNT>
5

> <PUBCHEM_PHARMACOPHORE_FEATURES>
8
1 2 acceptor
1 2 anion
1 3 acceptor
1 3 anion
1 4 acceptor
1 5 acceptor
1 6 acceptor
1 7 donor

> <PUBCHEM_HEAVY_ATOM_COUNT>
13

> <PUBCHEM_ATOM_DEF_STEREO_COUNT>
0

> <PUBCHEM_ATOM_UDEF_STEREO_COUNT>
0

> <PUBCHEM_BOND_DEF_STEREO_COUNT>
0

> <PUBCHEM_BOND_UDEF_STEREO_COUNT>
0

> <PUBCHEM_ISOTOPIC_ATOM_COUNT>
0

> <PUBCHEM_COMPONENT_COUNT>
1

> <PUBCHEM_CACTVS_TAUTO_COUNT>
2

> <PUBCHEM_CONFORMER_ID>
004584AA00000002

> <PUBCHEM_MMFF94_ENERGY>
20.2539

> <PUBCHEM_FEATURE_SELFOVERLAP>
40.76

> <PUBCHEM_SHAPE_FINGERPRINT>
10702982 57 18186791461798204159
12138202 97 18271800233163828639
12716758 59 18408877456032171344
12897270 3 10735873954797600956
12932764 1 18187082858471121948
13024252 1 16008750229583269925
13581323 91 18335145288679052812
14577589 140 17895196563027891054
15775835 57 18262521394592120216
16945 1 18201155443011756596
18186145 218 18059017155310010557
18342897 137 18272097054523203782
18511873 20 18340206280878099384
20645464 45 18341057345542814900
20653085 51 16342601451984766369
21501502 16 18199470041957626552
23402539 116 18060127709541408245
305870 269 17978234863464862225
3248919 1 17847064380865632220
369184 2 18343022224313804684
6333449 129 18343018908451385319
69090 78 18342734113639145135

> <PUBCHEM_SHAPE_MULTIPOLES>
215.97
4.64
1.62
1.12
3.75
0.72
-0.02
-0.84
-0.15
-0.79
-0.1
-0.44
-0.02
0.1

> <PUBCHEM_SHAPE_SELFOVERLAP>
423.342

> <PUBCHEM_SHAPE_VOLUME>
129.5

> <PUBCHEM_COORDINATE_TYPE>
2
5
10

$$$$
