141294
  -OEChem-11012400433D

 24 23  0     1  0  0  0  0  0999 V2000
    1.8845   -0.0649   -0.0524 O   0  0  0  0  0  0  0  0  0  0  0  0
   -0.1912   -0.7581   -2.1494 O   0  5  0  0  0  0  0  0  0  0  0  0
    0.2566   -2.0063    1.0992 O   0  5  0  0  0  0  0  0  0  0  0  0
   -1.6259    1.0986    1.8802 O   0  5  0  0  0  0  0  0  0  0  0  0
   -1.2588    1.1383   -1.8811 O   0  0  0  0  0  0  0  0  0  0  0  0
   -1.6788   -2.0992    0.0740 O   0  0  0  0  0  0  0  0  0  0  0  0
   -2.8369    0.6374    0.1107 O   0  0  0  0  0  0  0  0  0  0  0  0
   -0.6564    0.1479   -1.4425 N   0  3  0  0  0  0  0  0  0  0  0  0
   -0.6746   -1.4883    0.4645 N   0  3  0  0  0  0  0  0  0  0  0  0
   -1.7666    0.6415    0.7376 N   0  3  0  0  0  0  0  0  0  0  0  0
    0.7819    0.6136    0.5623 C   0  0  2  0  0  0  0  0  0  0  0  0
   -0.5467   -0.0126    0.0764 C   0  0  0  0  0  0  0  0  0  0  0  0
    0.9447    2.1073    0.2663 C   0  0  0  0  0  0  0  0  0  0  0  0
    3.1198    0.3951    0.4669 C   0  0  0  0  0  0  0  0  0  0  0  0
    4.2486   -0.3502   -0.2126 C   0  0  0  0  0  0  0  0  0  0  0  0
    0.8593    0.4742    1.6502 H   0  0  0  0  0  0  0  0  0  0  0  0
    0.0133    2.6593    0.4238 H   0  0  0  0  0  0  0  0  0  0  0  0
    1.6755    2.5717    0.9373 H   0  0  0  0  0  0  0  0  0  0  0  0
    1.2752    2.2863   -0.7629 H   0  0  0  0  0  0  0  0  0  0  0  0
    3.2876    1.4555    0.2622 H   0  0  0  0  0  0  0  0  0  0  0  0
    3.1632    0.2225    1.5481 H   0  0  0  0  0  0  0  0  0  0  0  0
    5.2203   -0.0225    0.1677 H   0  0  0  0  0  0  0  0  0  0  0  0
    4.1516   -1.4285   -0.0484 H   0  0  0  0  0  0  0  0  0  0  0  0
    4.2207   -0.1900   -1.2956 H   0  0  0  0  0  0  0  0  0  0  0  0
  1 11  1  0  0  0  0
  1 14  1  0  0  0  0
  2  8  1  0  0  0  0
  3  9  1  0  0  0  0
  4 10  1  0  0  0  0
  5  8  2  0  0  0  0
  6  9  2  0  0  0  0
  7 10  2  0  0  0  0
  8 12  1  0  0  0  0
  9 12  1  0  0  0  0
 10 12  1  0  0  0  0
 11 12  1  0  0  0  0
 11 13  1  0  0  0  0
 11 16  1  0  0  0  0
 13 17  1  0  0  0  0
 13 18  1  0  0  0  0
 13 19  1  0  0  0  0
 14 15  1  0  0  0  0
 14 20  1  0  0  0  0
 14 21  1  0  0  0  0
 15 22  1  0  0  0  0
 15 23  1  0  0  0  0
 15 24  1  0  0  0  0
M  CHG  6   2  -1   3  -1   4  -1   8   1   9   1  10   1
M  END
> <PUBCHEM_COMPOUND_CID>
141294

> <PUBCHEM_CONFORMER_RMSD>
0.6

> <PUBCHEM_CONFORMER_DIVERSEORDER>
3
4
5
2
6
1

> <PUBCHEM_MMFF94_PARTIAL_CHARGES>
13
1 -0.56
10 0.8
11 0.28
12 0.72
14 0.28
2 -0.52
3 -0.52
4 -0.52
5 -0.52
6 -0.52
7 -0.52
8 0.8
9 0.8

> <PUBCHEM_EFFECTIVE_ROTOR_COUNT>
6

> <PUBCHEM_PHARMACOPHORE_FEATURES>
10
1 1 acceptor
1 2 acceptor
1 2 anion
1 3 acceptor
1 3 anion
1 4 acceptor
1 4 anion
1 5 acceptor
1 6 acceptor
1 7 acceptor

> <PUBCHEM_HEAVY_ATOM_COUNT>
15

> <PUBCHEM_ATOM_DEF_STEREO_COUNT>
0

> <PUBCHEM_ATOM_UDEF_STEREO_COUNT>
1

> <PUBCHEM_BOND_DEF_STEREO_COUNT>
0

> <PUBCHEM_BOND_UDEF_STEREO_COUNT>
0

> <PUBCHEM_ISOTOPIC_ATOM_COUNT>
0

> <PUBCHEM_COMPONENT_COUNT>
1

> <PUBCHEM_CACTVS_TAUTO_COUNT>
1

> <PUBCHEM_CONFORMER_ID>
000227EE00000003

> <PUBCHEM_MMFF94_ENERGY>
44.0891

> <PUBCHEM_FEATURE_SELFOVERLAP>
51.019

> <PUBCHEM_SHAPE_FINGERPRINT>
12423570 1 9866897973504498437
12491281 212 16701469948357300936
12932764 1 17676198092308546072
13024252 1 15140674782678387320
14713566 1 18131624595419151003
14817 1 10570286794779080015
15076042 46 17987811841686719648
15310529 11 16370718198059108520
15775835 57 18040431083968742434
16945 1 18200330882226214857
21501502 16 18119815952401353408
23402539 116 17846499223404476801
5084963 1 18272087210220842857
535629 181 17917413354981843376

> <PUBCHEM_SHAPE_MULTIPOLES>
252.66
4.26
1.82
1.53
4.98
0.3
0.68
0.03
-0.25
-0.51
-0.41
-0.81
-0.03
0.01

> <PUBCHEM_SHAPE_SELFOVERLAP>
491.329

> <PUBCHEM_SHAPE_VOLUME>
147.4

> <PUBCHEM_COORDINATE_TYPE>
2
5
10

$$$$
