247818
  -OEChem-11012401273D

 15 14  0     1  0  0  0  0  0999 V2000
   -1.7517   -0.4298    0.2792 O   0  0  0  0  0  0  0  0  0  0  0  0
   -0.5554    1.4191   -0.4008 O   0  0  0  0  0  0  0  0  0  0  0  0
    2.8414    0.7493    0.0102 N   0  0  0  0  0  0  0  0  0  0  0  0
    0.5982   -0.5828    0.3760 C   0  0  2  0  0  0  0  0  0  0  0  0
    0.5957   -1.8545   -0.4658 C   0  0  0  0  0  0  0  0  0  0  0  0
   -0.6066    0.2742    0.0298 C   0  0  0  0  0  0  0  0  0  0  0  0
    1.8524    0.1633    0.1694 C   0  0  0  0  0  0  0  0  0  0  0  0
   -2.9741    0.2611    0.0019 C   0  0  0  0  0  0  0  0  0  0  0  0
    0.5224   -0.8419    1.4390 H   0  0  0  0  0  0  0  0  0  0  0  0
    1.4793   -2.4678   -0.2555 H   0  0  0  0  0  0  0  0  0  0  0  0
   -0.2887   -2.4680   -0.2634 H   0  0  0  0  0  0  0  0  0  0  0  0
    0.5975   -1.6235   -1.5377 H   0  0  0  0  0  0  0  0  0  0  0  0
   -3.8047   -0.4078    0.2426 H   0  0  0  0  0  0  0  0  0  0  0  0
   -3.0294    0.5216   -1.0593 H   0  0  0  0  0  0  0  0  0  0  0  0
   -3.0527    1.1569    0.6253 H   0  0  0  0  0  0  0  0  0  0  0  0
  1  6  1  0  0  0  0
  1  8  1  0  0  0  0
  2  6  2  0  0  0  0
  3  7  3  0  0  0  0
  4  5  1  0  0  0  0
  4  6  1  0  0  0  0
  4  7  1  0  0  0  0
  4  9  1  0  0  0  0
  5 10  1  0  0  0  0
  5 11  1  0  0  0  0
  5 12  1  0  0  0  0
  8 13  1  0  0  0  0
  8 14  1  0  0  0  0
  8 15  1  0  0  0  0
M  END
> <PUBCHEM_COMPOUND_CID>
247818

> <PUBCHEM_CONFORMER_RMSD>
0.4

> <PUBCHEM_CONFORMER_DIVERSEORDER>
1
5
3
4
2
6

> <PUBCHEM_MMFF94_PARTIAL_CHARGES>
7
1 -0.43
2 -0.57
3 -0.56
4 0.26
6 0.66
7 0.36
8 0.28

> <PUBCHEM_EFFECTIVE_ROTOR_COUNT>
2

> <PUBCHEM_PHARMACOPHORE_FEATURES>
3
1 2 acceptor
1 3 acceptor
1 5 hydrophobe

> <PUBCHEM_HEAVY_ATOM_COUNT>
8

> <PUBCHEM_ATOM_DEF_STEREO_COUNT>
0

> <PUBCHEM_ATOM_UDEF_STEREO_COUNT>
1

> <PUBCHEM_BOND_DEF_STEREO_COUNT>
0

> <PUBCHEM_BOND_UDEF_STEREO_COUNT>
0

> <PUBCHEM_ISOTOPIC_ATOM_COUNT>
0

> <PUBCHEM_COMPONENT_COUNT>
1

> <PUBCHEM_CACTVS_TAUTO_COUNT>
1

> <PUBCHEM_CONFORMER_ID>
0003C80A00000001

> <PUBCHEM_MMFF94_ENERGY>
8.1479

> <PUBCHEM_FEATURE_SELFOVERLAP>
15.223

> <PUBCHEM_SHAPE_FINGERPRINT>
10857977 72 18188486994585279033
12897270 3 18411419483833969717
14325111 11 18412544335958696138
14390081 3 18343018882829501937
16714656 1 18339079401433869998
21040471 1 18341328993687268602
23235685 24 18410007753864205656
23552423 10 18120376458397063995
24536 1 17981026531993012193
29004967 10 18334021579326844187
5084963 1 18186801344728844936
5460574 1 10159701295851805081

> <PUBCHEM_SHAPE_MULTIPOLES>
147.92
3.63
1.4
0.66
0.94
0.49
0
-0.97
0.11
-0.39
-0.26
0
0.05
0.11

> <PUBCHEM_SHAPE_SELFOVERLAP>
277.07

> <PUBCHEM_SHAPE_VOLUME>
91.1

> <PUBCHEM_COORDINATE_TYPE>
2
5
10

$$$$
