71423325
  -OEChem-11012401043D

 26 25  0     0  0  0  0  0  0999 V2000
    0.0400    1.2606   -0.5331 Si  0  0  0  0  0  0  0  0  0  0  0  0
    1.3386   -0.0469   -0.7905 C   0  0  0  0  0  0  0  0  0  0  0  0
   -1.4673    0.5368    0.2833 C   0  0  0  0  0  0  0  0  0  0  0  0
    1.8532   -0.7210    0.4847 C   0  0  0  0  0  0  0  0  0  0  0  0
   -2.0806   -0.6739   -0.4263 C   0  0  0  0  0  0  0  0  0  0  0  0
    0.7180    2.6709    0.4734 C   0  0  0  0  0  0  0  0  0  0  0  0
    2.8732   -1.8047    0.1685 C   0  0  0  0  0  0  0  0  0  0  0  0
   -3.2752   -1.2217    0.3401 C   0  0  0  0  0  0  0  0  0  0  0  0
   -0.3560    1.7864   -1.8641 H   0  0  0  0  0  0  0  0  0  0  0  0
    2.1859    0.4063   -1.3194 H   0  0  0  0  0  0  0  0  0  0  0  0
    0.9334   -0.8127   -1.4627 H   0  0  0  0  0  0  0  0  0  0  0  0
   -2.2274    1.3225    0.3698 H   0  0  0  0  0  0  0  0  0  0  0  0
   -1.2019    0.2514    1.3084 H   0  0  0  0  0  0  0  0  0  0  0  0
    1.0230   -1.1727    1.0415 H   0  0  0  0  0  0  0  0  0  0  0  0
    2.3159    0.0202    1.1477 H   0  0  0  0  0  0  0  0  0  0  0  0
   -1.3383   -1.4743   -0.5324 H   0  0  0  0  0  0  0  0  0  0  0  0
   -2.4001   -0.3987   -1.4391 H   0  0  0  0  0  0  0  0  0  0  0  0
    1.0045    2.3378    1.4755 H   0  0  0  0  0  0  0  0  0  0  0  0
    1.6024    3.1022   -0.0050 H   0  0  0  0  0  0  0  0  0  0  0  0
   -0.0269    3.4648    0.5828 H   0  0  0  0  0  0  0  0  0  0  0  0
    2.4333   -2.5866   -0.4587 H   0  0  0  0  0  0  0  0  0  0  0  0
    3.7383   -1.3876   -0.3569 H   0  0  0  0  0  0  0  0  0  0  0  0
    3.2293   -2.2709    1.0924 H   0  0  0  0  0  0  0  0  0  0  0  0
   -2.9823   -1.5460    1.3438 H   0  0  0  0  0  0  0  0  0  0  0  0
   -4.0592   -0.4641    0.4380 H   0  0  0  0  0  0  0  0  0  0  0  0
   -3.6992   -2.0835   -0.1848 H   0  0  0  0  0  0  0  0  0  0  0  0
  1  2  1  0  0  0  0
  1  3  1  0  0  0  0
  1  6  1  0  0  0  0
  1  9  1  0  0  0  0
  2  4  1  0  0  0  0
  2 10  1  0  0  0  0
  2 11  1  0  0  0  0
  3  5  1  0  0  0  0
  3 12  1  0  0  0  0
  3 13  1  0  0  0  0
  4  7  1  0  0  0  0
  4 14  1  0  0  0  0
  4 15  1  0  0  0  0
  5  8  1  0  0  0  0
  5 16  1  0  0  0  0
  5 17  1  0  0  0  0
  6 18  1  0  0  0  0
  6 19  1  0  0  0  0
  6 20  1  0  0  0  0
  7 21  1  0  0  0  0
  7 22  1  0  0  0  0
  7 23  1  0  0  0  0
  8 24  1  0  0  0  0
  8 25  1  0  0  0  0
  8 26  1  0  0  0  0
M  END
> <PUBCHEM_COMPOUND_CID>
71423325

> <PUBCHEM_CONFORMER_RMSD>
0.6

> <PUBCHEM_CONFORMER_DIVERSEORDER>
1
37
5
33
27
32
34
9
30
41
6
36
14
40
18
35
38
28
31
29
22
25
4
20
42
2
15
23
24
43
8
26
39
13
3
21
19
10
11
16
17
7
12

> <PUBCHEM_MMFF94_PARTIAL_CHARGES>
5
1 0.44
2 -0.08
3 -0.08
6 -0.08
9 -0.2

> <PUBCHEM_EFFECTIVE_ROTOR_COUNT>
4

> <PUBCHEM_PHARMACOPHORE_FEATURES>
2
1 7 hydrophobe
1 8 hydrophobe

> <PUBCHEM_HEAVY_ATOM_COUNT>
8

> <PUBCHEM_ATOM_DEF_STEREO_COUNT>
0

> <PUBCHEM_ATOM_UDEF_STEREO_COUNT>
0

> <PUBCHEM_BOND_DEF_STEREO_COUNT>
0

> <PUBCHEM_BOND_UDEF_STEREO_COUNT>
0

> <PUBCHEM_ISOTOPIC_ATOM_COUNT>
0

> <PUBCHEM_COMPONENT_COUNT>
1

> <PUBCHEM_CACTVS_TAUTO_COUNT>
1

> <PUBCHEM_CONFORMER_ID>
0441D55D00000001

> <PUBCHEM_MMFF94_ENERGY>
-3.0036

> <PUBCHEM_FEATURE_SELFOVERLAP>
10.149

> <PUBCHEM_SHAPE_FINGERPRINT>
12932764 1 18196102251322424973
14128692 85 18041286473913392862
18342897 69 18047749300435816354
19021347 4 17186436287859258520
20211469 16 18337111172383044078
20645477 70 18266173023618019007
20653085 51 10303231591234387134
20653091 64 18269848651664750057
20711978 78 18266727163996949581
20871998 184 18056755434090021894
23500284 5 18117560626087326075
23552333 60 17986406691817797713
23552423 10 18193002740728413005
23552449 11 18270119140310042941
3250762 1 18262779822675003613
528862 383 18126561455989806941

> <PUBCHEM_SHAPE_MULTIPOLES>
182.85
4.2
2.49
0.91
1.69
1.14
0.11
-3.86
-0.49
-1.06
-0.45
-0.08
0.17
0.03

> <PUBCHEM_SHAPE_SELFOVERLAP>
304.201

> <PUBCHEM_SHAPE_VOLUME>
125.5

> <PUBCHEM_COORDINATE_TYPE>
2
5
10

$$$$
