76231
  -OEChem-11012401033D

 59 58  0     0  0  0  0  0  0999 V2000
   -0.0812    1.2795    0.6618 Si  0  0  0  0  0  0  0  0  0  0  0  0
   -1.6252    1.5708   -0.3528 C   0  0  0  0  0  0  0  0  0  0  0  0
   -0.0178   -0.4798    1.2535 C   0  0  0  0  0  0  0  0  0  0  0  0
    1.4323    1.7023   -0.3283 C   0  0  0  0  0  0  0  0  0  0  0  0
   -2.9480    1.2915    0.3695 C   0  0  0  0  0  0  0  0  0  0  0  0
    0.0439   -1.5421    0.1502 C   0  0  0  0  0  0  0  0  0  0  0  0
    2.7656    1.5490    0.4121 C   0  0  0  0  0  0  0  0  0  0  0  0
   -4.1478    1.6056   -0.5277 C   0  0  0  0  0  0  0  0  0  0  0  0
    0.1416   -2.9511    0.7407 C   0  0  0  0  0  0  0  0  0  0  0  0
    3.9493    1.8739   -0.5024 C   0  0  0  0  0  0  0  0  0  0  0  0
   -5.4687    1.3669    0.2056 C   0  0  0  0  0  0  0  0  0  0  0  0
    0.2450   -4.0093   -0.3590 C   0  0  0  0  0  0  0  0  0  0  0  0
    5.2821    1.6813    0.2229 C   0  0  0  0  0  0  0  0  0  0  0  0
   -6.6662    1.7120   -0.6793 C   0  0  0  0  0  0  0  0  0  0  0  0
    0.3759   -5.4132    0.2309 C   0  0  0  0  0  0  0  0  0  0  0  0
    6.4649    1.9739   -0.7000 C   0  0  0  0  0  0  0  0  0  0  0  0
   -7.9817    1.4441    0.0346 C   0  0  0  0  0  0  0  0  0  0  0  0
    0.4451   -6.4710   -0.8590 C   0  0  0  0  0  0  0  0  0  0  0  0
    7.7910    1.8159    0.0269 C   0  0  0  0  0  0  0  0  0  0  0  0
   -0.1312    2.1716    1.8479 H   0  0  0  0  0  0  0  0  0  0  0  0
   -1.5714    0.9519   -1.2563 H   0  0  0  0  0  0  0  0  0  0  0  0
   -1.6155    2.6143   -0.6899 H   0  0  0  0  0  0  0  0  0  0  0  0
   -0.8949   -0.6714    1.8832 H   0  0  0  0  0  0  0  0  0  0  0  0
    0.8554   -0.5936    1.9071 H   0  0  0  0  0  0  0  0  0  0  0  0
    1.3402    2.7374   -0.6791 H   0  0  0  0  0  0  0  0  0  0  0  0
    1.4478    1.0743   -1.2272 H   0  0  0  0  0  0  0  0  0  0  0  0
   -2.9941    0.2401    0.6803 H   0  0  0  0  0  0  0  0  0  0  0  0
   -3.0096    1.8964    1.2834 H   0  0  0  0  0  0  0  0  0  0  0  0
   -0.8466   -1.4771   -0.4878 H   0  0  0  0  0  0  0  0  0  0  0  0
    0.9125   -1.3630   -0.4963 H   0  0  0  0  0  0  0  0  0  0  0  0
    2.7880    2.2094    1.2885 H   0  0  0  0  0  0  0  0  0  0  0  0
    2.8731    0.5223    0.7846 H   0  0  0  0  0  0  0  0  0  0  0  0
   -4.1074    0.9809   -1.4283 H   0  0  0  0  0  0  0  0  0  0  0  0
   -4.0962    2.6509   -0.8560 H   0  0  0  0  0  0  0  0  0  0  0  0
   -0.7386   -3.1509    1.3637 H   0  0  0  0  0  0  0  0  0  0  0  0
    1.0214   -3.0150    1.3926 H   0  0  0  0  0  0  0  0  0  0  0  0
    3.8679    2.9087   -0.8565 H   0  0  0  0  0  0  0  0  0  0  0  0
    3.9179    1.2256   -1.3867 H   0  0  0  0  0  0  0  0  0  0  0  0
   -5.5002    1.9758    1.1173 H   0  0  0  0  0  0  0  0  0  0  0  0
   -5.5300    0.3167    0.5163 H   0  0  0  0  0  0  0  0  0  0  0  0
    1.1133   -3.7973   -0.9949 H   0  0  0  0  0  0  0  0  0  0  0  0
   -0.6441   -3.9594   -0.9994 H   0  0  0  0  0  0  0  0  0  0  0  0
    5.3546    0.6521    0.5951 H   0  0  0  0  0  0  0  0  0  0  0  0
    5.3226    2.3440    1.0960 H   0  0  0  0  0  0  0  0  0  0  0  0
   -6.6223    2.7679   -0.9705 H   0  0  0  0  0  0  0  0  0  0  0  0
   -6.6316    1.1194   -1.6009 H   0  0  0  0  0  0  0  0  0  0  0  0
    1.2780   -5.4742    0.8507 H   0  0  0  0  0  0  0  0  0  0  0  0
   -0.4802   -5.6250    0.8820 H   0  0  0  0  0  0  0  0  0  0  0  0
    6.4423    1.2955   -1.5608 H   0  0  0  0  0  0  0  0  0  0  0  0
    6.3894    2.9957   -1.0898 H   0  0  0  0  0  0  0  0  0  0  0  0
   -8.0713    0.3882    0.3091 H   0  0  0  0  0  0  0  0  0  0  0  0
   -8.0625    2.0446    0.9463 H   0  0  0  0  0  0  0  0  0  0  0  0
   -8.8245    1.6987   -0.6157 H   0  0  0  0  0  0  0  0  0  0  0  0
   -0.4591   -6.4584   -1.4761 H   0  0  0  0  0  0  0  0  0  0  0  0
    1.3088   -6.3064   -1.5111 H   0  0  0  0  0  0  0  0  0  0  0  0
    0.5394   -7.4670   -0.4151 H   0  0  0  0  0  0  0  0  0  0  0  0
    7.8586    2.5058    0.8742 H   0  0  0  0  0  0  0  0  0  0  0  0
    7.9124    0.7954    0.4038 H   0  0  0  0  0  0  0  0  0  0  0  0
    8.6229    2.0288   -0.6517 H   0  0  0  0  0  0  0  0  0  0  0  0
  1  2  1  0  0  0  0
  1  3  1  0  0  0  0
  1  4  1  0  0  0  0
  1 20  1  0  0  0  0
  2  5  1  0  0  0  0
  2 21  1  0  0  0  0
  2 22  1  0  0  0  0
  3  6  1  0  0  0  0
  3 23  1  0  0  0  0
  3 24  1  0  0  0  0
  4  7  1  0  0  0  0
  4 25  1  0  0  0  0
  4 26  1  0  0  0  0
  5  8  1  0  0  0  0
  5 27  1  0  0  0  0
  5 28  1  0  0  0  0
  6  9  1  0  0  0  0
  6 29  1  0  0  0  0
  6 30  1  0  0  0  0
  7 10  1  0  0  0  0
  7 31  1  0  0  0  0
  7 32  1  0  0  0  0
  8 11  1  0  0  0  0
  8 33  1  0  0  0  0
  8 34  1  0  0  0  0
  9 12  1  0  0  0  0
  9 35  1  0  0  0  0
  9 36  1  0  0  0  0
 10 13  1  0  0  0  0
 10 37  1  0  0  0  0
 10 38  1  0  0  0  0
 11 14  1  0  0  0  0
 11 39  1  0  0  0  0
 11 40  1  0  0  0  0
 12 15  1  0  0  0  0
 12 41  1  0  0  0  0
 12 42  1  0  0  0  0
 13 16  1  0  0  0  0
 13 43  1  0  0  0  0
 13 44  1  0  0  0  0
 14 17  1  0  0  0  0
 14 45  1  0  0  0  0
 14 46  1  0  0  0  0
 15 18  1  0  0  0  0
 15 47  1  0  0  0  0
 15 48  1  0  0  0  0
 16 19  1  0  0  0  0
 16 49  1  0  0  0  0
 16 50  1  0  0  0  0
 17 51  1  0  0  0  0
 17 52  1  0  0  0  0
 17 53  1  0  0  0  0
 18 54  1  0  0  0  0
 18 55  1  0  0  0  0
 18 56  1  0  0  0  0
 19 57  1  0  0  0  0
 19 58  1  0  0  0  0
 19 59  1  0  0  0  0
M  END
> <PUBCHEM_COMPOUND_CID>
76231

> <PUBCHEM_CONFORMER_RMSD>
1.2

> <PUBCHEM_CONFORMER_DIVERSEORDER>
1
41
13
27
2
19
29
4
9
35
42
40
14
46
26
11
23
48
30
22
49
33
31
34
47
24
21
15
32
10
39
8
25
28
50
36
5
18
44
7
6
45
12
3
16
20
38
37
43
17

> <PUBCHEM_MMFF94_PARTIAL_CHARGES>
5
1 0.44
2 -0.08
20 -0.2
3 -0.08
4 -0.08

> <PUBCHEM_EFFECTIVE_ROTOR_COUNT>
15

> <PUBCHEM_PHARMACOPHORE_FEATURES>
6
1 17 hydrophobe
1 18 hydrophobe
1 19 hydrophobe
4 5 8 11 14 hydrophobe
4 6 9 12 15 hydrophobe
4 7 10 13 16 hydrophobe

> <PUBCHEM_HEAVY_ATOM_COUNT>
19

> <PUBCHEM_ATOM_DEF_STEREO_COUNT>
0

> <PUBCHEM_ATOM_UDEF_STEREO_COUNT>
0

> <PUBCHEM_BOND_DEF_STEREO_COUNT>
0

> <PUBCHEM_BOND_UDEF_STEREO_COUNT>
0

> <PUBCHEM_ISOTOPIC_ATOM_COUNT>
0

> <PUBCHEM_COMPONENT_COUNT>
1

> <PUBCHEM_CACTVS_TAUTO_COUNT>
1

> <PUBCHEM_CONFORMER_ID>
000129C700000001

> <PUBCHEM_MMFF94_ENERGY>
-6.6495

> <PUBCHEM_FEATURE_SELFOVERLAP>
30.452

> <PUBCHEM_SHAPE_FINGERPRINT>
102385 1 17761492491352564725
10319688 140 18195244421894807743
13955234 65 18270954649405079033
13968360 50 18408884005999767977
17539 30 17907015428274042410
18006028 8 10159700191908794032
20286276 3 17905044756072692221
20505436 4 17967526913744411144
20645477 70 18189610546068358561
21344244 181 18341903961344306254
21365058 27 18410574002716429661
22224240 67 18409727383037689541
22849339 104 18195550270858026284
23598288 3 17754187680126631368
4017518 198 18411146831675309334
59755656 520 18410004477110432748
6025842 7 18337667508788222209
6669772 16 18341618087999500278

> <PUBCHEM_SHAPE_MULTIPOLES>
409.22
16.88
7.39
0.95
4.55
24.46
0.1
-25.94
-3.4
-3.03
-1.69
-0.01
0.13
0.06

> <PUBCHEM_SHAPE_SELFOVERLAP>
722.104

> <PUBCHEM_SHAPE_VOLUME>
266.9

> <PUBCHEM_COORDINATE_TYPE>
2
5
10

$$$$
