19419
  -OEChem-11012401153D

 27 28  0     0  0  0  0  0  0999 V2000
   -6.3690    0.6604   -0.0365 Cl  0  0  0  0  0  0  0  0  0  0  0  0
    6.3641    0.1320   -0.0021 Cl  0  0  0  0  0  0  0  0  0  0  0  0
    0.3346   -2.7830    0.1847 N   0  0  0  0  0  0  0  0  0  0  0  0
   -1.9424   -0.0865    0.0029 C   0  0  0  0  0  0  0  0  0  0  0  0
    1.8722    0.5394   -0.0388 C   0  0  0  0  0  0  0  0  0  0  0  0
   -0.4873   -0.3327    0.0158 C   0  0  0  0  0  0  0  0  0  0  0  0
    0.4237    0.6714   -0.0508 C   0  0  0  0  0  0  0  0  0  0  0  0
   -2.6054    0.1105    1.2020 C   0  0  0  0  0  0  0  0  0  0  0  0
   -2.6127   -0.0586   -1.2081 C   0  0  0  0  0  0  0  0  0  0  0  0
    2.5652    0.5682    1.1713 C   0  0  0  0  0  0  0  0  0  0  0  0
    2.5683    0.3847   -1.2376 C   0  0  0  0  0  0  0  0  0  0  0  0
   -3.9809    0.3424    1.1897 C   0  0  0  0  0  0  0  0  0  0  0  0
   -3.9881    0.1735   -1.2203 C   0  0  0  0  0  0  0  0  0  0  0  0
    3.9543    0.4424    1.1827 C   0  0  0  0  0  0  0  0  0  0  0  0
    3.9575    0.2587   -1.2262 C   0  0  0  0  0  0  0  0  0  0  0  0
   -4.6722    0.3739   -0.0214 C   0  0  0  0  0  0  0  0  0  0  0  0
    4.6504    0.2876   -0.0161 C   0  0  0  0  0  0  0  0  0  0  0  0
   -0.0322   -1.6845    0.1088 C   0  0  0  0  0  0  0  0  0  0  0  0
    0.0732    1.7004   -0.1187 H   0  0  0  0  0  0  0  0  0  0  0  0
   -2.0783    0.0884    2.1521 H   0  0  0  0  0  0  0  0  0  0  0  0
   -2.0911   -0.2133   -2.1489 H   0  0  0  0  0  0  0  0  0  0  0  0
    2.0367    0.6886    2.1141 H   0  0  0  0  0  0  0  0  0  0  0  0
    2.0424    0.3608   -2.1892 H   0  0  0  0  0  0  0  0  0  0  0  0
   -4.5010    0.4970    2.1316 H   0  0  0  0  0  0  0  0  0  0  0  0
   -4.5138    0.1954   -2.1714 H   0  0  0  0  0  0  0  0  0  0  0  0
    4.4812    0.4667    2.1332 H   0  0  0  0  0  0  0  0  0  0  0  0
    4.4867    0.1386   -2.1680 H   0  0  0  0  0  0  0  0  0  0  0  0
  1 16  1  0  0  0  0
  2 17  1  0  0  0  0
  3 18  3  0  0  0  0
  4  6  1  0  0  0  0
  4  8  2  0  0  0  0
  4  9  1  0  0  0  0
  5  7  1  0  0  0  0
  5 10  2  0  0  0  0
  5 11  1  0  0  0  0
  6  7  2  3  0  0  0
  6 18  1  0  0  0  0
  7 19  1  0  0  0  0
  8 12  1  0  0  0  0
  8 20  1  0  0  0  0
  9 13  2  0  0  0  0
  9 21  1  0  0  0  0
 10 14  1  0  0  0  0
 10 22  1  0  0  0  0
 11 15  2  0  0  0  0
 11 23  1  0  0  0  0
 12 16  2  0  0  0  0
 12 24  1  0  0  0  0
 13 16  1  0  0  0  0
 13 25  1  0  0  0  0
 14 17  2  0  0  0  0
 14 26  1  0  0  0  0
 15 17  1  0  0  0  0
 15 27  1  0  0  0  0
M  END
> <PUBCHEM_COMPOUND_CID>
19419

> <PUBCHEM_CONFORMER_RMSD>
0.6

> <PUBCHEM_CONFORMER_DIVERSEORDER>
1
3
2

> <PUBCHEM_MMFF94_PARTIAL_CHARGES>
27
1 -0.18
10 -0.15
11 -0.15
12 -0.15
13 -0.15
14 -0.15
15 -0.15
16 0.18
17 0.18
18 0.49
19 0.15
2 -0.18
20 0.15
21 0.15
22 0.15
23 0.15
24 0.15
25 0.15
26 0.15
27 0.15
3 -0.56
4 0.03
5 0.03
6 0.04
7 -0.18
8 -0.15
9 -0.15

> <PUBCHEM_EFFECTIVE_ROTOR_COUNT>
2

> <PUBCHEM_PHARMACOPHORE_FEATURES>
3
1 3 acceptor
6 4 8 9 12 13 16 rings
6 5 10 11 14 15 17 rings

> <PUBCHEM_HEAVY_ATOM_COUNT>
18

> <PUBCHEM_ATOM_DEF_STEREO_COUNT>
0

> <PUBCHEM_ATOM_UDEF_STEREO_COUNT>
0

> <PUBCHEM_BOND_DEF_STEREO_COUNT>
0

> <PUBCHEM_BOND_UDEF_STEREO_COUNT>
1

> <PUBCHEM_ISOTOPIC_ATOM_COUNT>
0

> <PUBCHEM_COMPONENT_COUNT>
1

> <PUBCHEM_CACTVS_TAUTO_COUNT>
1

> <PUBCHEM_CONFORMER_ID>
00004BDB00000001

> <PUBCHEM_MMFF94_ENERGY>
50.6855

> <PUBCHEM_FEATURE_SELFOVERLAP>
15.223

> <PUBCHEM_SHAPE_FINGERPRINT>
10354089 29 16153707626745011108
11287383 113 16343701062370169533
11315181 36 15051734217692385178
11370993 70 15985104115162513916
12107183 9 14999901972623488413
12236239 1 17775003471154974229
12507560 40 14707198907966050599
12516196 113 9511460017787532039
12592029 89 17822008683747691810
12916748 109 17275392005985460961
13167823 11 15913329091365462052
13533116 47 18130786708226257034
13583140 156 15791718733167674095
14341114 176 15574716880457586252
15048467 5 14562530682689598636
17834072 33 15140683596125378028
18186145 218 18273207625216870104
19489759 90 15339121234144956034
20645477 70 16009018450654948136
21033648 29 18262498373742311936
21267235 1 15985110738133997965
22224240 67 18186801400864113355
23035841 295 8142086455155936384
23402539 116 17560797740638617596
23536379 177 16056884615074379151
23559900 14 15410884180552084531
23622692 88 11891337556484808115
26918003 58 13830131702377315092
3004659 81 14476972159752358700
34797466 226 15647066932073145142
351380 180 17132113554695446056
3545911 37 16200433571863151969
4072396 5 18187636981791814683
42 15 14779546781568706793
4214541 1 16056884623886113409
42630746 31 18411136892234918534
4325135 7 18040152942614893779
465052 167 17240490212189434923
474 4 17917145108309388417
542803 24 17894630357225762189
59755656 215 18342741767086302390
59755656 520 18343014506511275543
633830 44 18130783490509444093
67856867 119 16128080261085211016
69090 78 16988843890676124133
77779 3 15430035461120812964
8272917 22 16878219775443275482
9709674 26 15769502005332315685
9971528 1 17775566455516224056

> <PUBCHEM_SHAPE_MULTIPOLES>
369.19
13.41
1.27
1.24
0.24
0.07
-1.1
0.64
3.7
0.01
0.12
-0.06
-0.23
-0.01

> <PUBCHEM_SHAPE_SELFOVERLAP>
777.371

> <PUBCHEM_SHAPE_VOLUME>
207.6

> <PUBCHEM_COORDINATE_TYPE>
2
5
10

$$$$
