138974
  -OEChem-11012401193D

 10 10  0     0  0  0  0  0  0999 V2000
   -0.5803    0.0007    0.2431 S   0  0  0  0  0  0  0  0  0  0  0  0
   -1.3622   -1.1783   -0.0454 O   0  0  0  0  0  0  0  0  0  0  0  0
   -1.3628    1.1773   -0.0538 O   0  0  0  0  0  0  0  0  0  0  0  0
    0.9423    0.0053    1.1120 C   0  0  0  0  0  0  0  0  0  0  0  0
    0.6527   -0.0034   -1.0458 C   0  0  0  0  0  0  0  0  0  0  0  0
    1.7103   -0.0017   -0.2100 C   0  0  0  0  0  0  0  0  0  0  0  0
    1.0695   -0.8798    1.7436 H   0  0  0  0  0  0  0  0  0  0  0  0
    1.0696    0.8968    1.7344 H   0  0  0  0  0  0  0  0  0  0  0  0
    0.5989   -0.0073   -2.1325 H   0  0  0  0  0  0  0  0  0  0  0  0
    2.7810   -0.0033   -0.4066 H   0  0  0  0  0  0  0  0  0  0  0  0
  1  2  2  0  0  0  0
  1  3  2  0  0  0  0
  1  4  1  0  0  0  0
  1  5  1  0  0  0  0
  4  6  1  0  0  0  0
  4  7  1  0  0  0  0
  4  8  1  0  0  0  0
  5  6  2  0  0  0  0
  5  9  1  0  0  0  0
  6 10  1  0  0  0  0
M  END
> <PUBCHEM_COMPOUND_CID>
138974

> <PUBCHEM_CONFORMER_RMSD>
0.4

> <PUBCHEM_CONFORMER_DIVERSEORDER>
1

> <PUBCHEM_MMFF94_PARTIAL_CHARGES>
8
1 1.25
10 0.15
2 -0.65
3 -0.65
4 0.24
5 -0.2
6 -0.29
9 0.15

> <PUBCHEM_EFFECTIVE_ROTOR_COUNT>
0.2

> <PUBCHEM_PHARMACOPHORE_FEATURES>
3
1 2 acceptor
1 3 acceptor
4 1 4 5 6 rings

> <PUBCHEM_HEAVY_ATOM_COUNT>
6

> <PUBCHEM_ATOM_DEF_STEREO_COUNT>
0

> <PUBCHEM_ATOM_UDEF_STEREO_COUNT>
0

> <PUBCHEM_BOND_DEF_STEREO_COUNT>
0

> <PUBCHEM_BOND_UDEF_STEREO_COUNT>
0

> <PUBCHEM_ISOTOPIC_ATOM_COUNT>
0

> <PUBCHEM_COMPONENT_COUNT>
1

> <PUBCHEM_CACTVS_TAUTO_COUNT>
1

> <PUBCHEM_CONFORMER_ID>
00021EDE00000001

> <PUBCHEM_MMFF94_ENERGY>
24.3533

> <PUBCHEM_FEATURE_SELFOVERLAP>
15.262

> <PUBCHEM_SHAPE_FINGERPRINT>
20096714 4 17313402088176121212
21015797 1 14828857472903213636
21040471 1 18194401091521699833
24536 1 18340476820461976964
29004967 10 18051425250763486691
5943 1 10196621203926544977

> <PUBCHEM_SHAPE_MULTIPOLES>
115.59
1.89
1.04
0.95
0.05
0.06
0
-0.04
0
0.32
0
-0.49
-0.02
0

> <PUBCHEM_SHAPE_SELFOVERLAP>
218.188

> <PUBCHEM_SHAPE_VOLUME>
72.7

> <PUBCHEM_COORDINATE_TYPE>
2
5
10

$$$$
