6811
  -OEChem-11012401143D

 15 16  0     0  0  0  0  0  0999 V2000
   -2.0052    0.0000    0.0001 O   0  0  0  0  0  0  0  0  0  0  0  0
   -1.6481    2.2900    0.0004 O   0  0  0  0  0  0  0  0  0  0  0  0
   -1.6481   -2.2900    0.0000 O   0  0  0  0  0  0  0  0  0  0  0  0
    0.1197    0.6855   -0.0003 C   0  0  0  0  0  0  0  0  0  0  0  0
    0.1197   -0.6855   -0.0001 C   0  0  0  0  0  0  0  0  0  0  0  0
    1.2907    1.4175   -0.0002 C   0  0  0  0  0  0  0  0  0  0  0  0
    1.2907   -1.4176    0.0001 C   0  0  0  0  0  0  0  0  0  0  0  0
   -1.2519    1.1428   -0.0002 C   0  0  0  0  0  0  0  0  0  0  0  0
   -1.2520   -1.1427   -0.0001 C   0  0  0  0  0  0  0  0  0  0  0  0
    2.4922    0.7040    0.0000 C   0  0  0  0  0  0  0  0  0  0  0  0
    2.4922   -0.7040    0.0002 C   0  0  0  0  0  0  0  0  0  0  0  0
    1.2881    2.5014   -0.0003 H   0  0  0  0  0  0  0  0  0  0  0  0
    1.2881   -2.5014    0.0002 H   0  0  0  0  0  0  0  0  0  0  0  0
    3.4378    1.2396    0.0001 H   0  0  0  0  0  0  0  0  0  0  0  0
    3.4378   -1.2396    0.0005 H   0  0  0  0  0  0  0  0  0  0  0  0
  1  8  1  0  0  0  0
  1  9  1  0  0  0  0
  2  8  2  0  0  0  0
  3  9  2  0  0  0  0
  4  5  1  0  0  0  0
  4  6  2  0  0  0  0
  4  8  1  0  0  0  0
  5  7  2  0  0  0  0
  5  9  1  0  0  0  0
  6 10  1  0  0  0  0
  6 12  1  0  0  0  0
  7 11  1  0  0  0  0
  7 13  1  0  0  0  0
 10 11  2  0  0  0  0
 10 14  1  0  0  0  0
 11 15  1  0  0  0  0
M  END
> <PUBCHEM_COMPOUND_CID>
6811

> <PUBCHEM_CONFORMER_RMSD>
0.4

> <PUBCHEM_CONFORMER_DIVERSEORDER>
1

> <PUBCHEM_MMFF94_PARTIAL_CHARGES>
15
1 -0.3
10 -0.15
11 -0.15
12 0.15
13 0.15
14 0.15
15 0.15
2 -0.57
3 -0.57
4 0.09
5 0.09
6 -0.15
7 -0.15
8 0.63
9 0.63

> <PUBCHEM_EFFECTIVE_ROTOR_COUNT>
0.2

> <PUBCHEM_PHARMACOPHORE_FEATURES>
4
1 2 acceptor
1 3 acceptor
5 1 4 5 8 9 rings
6 4 5 6 7 10 11 rings

> <PUBCHEM_HEAVY_ATOM_COUNT>
11

> <PUBCHEM_ATOM_DEF_STEREO_COUNT>
0

> <PUBCHEM_ATOM_UDEF_STEREO_COUNT>
0

> <PUBCHEM_BOND_DEF_STEREO_COUNT>
0

> <PUBCHEM_BOND_UDEF_STEREO_COUNT>
0

> <PUBCHEM_ISOTOPIC_ATOM_COUNT>
0

> <PUBCHEM_COMPONENT_COUNT>
1

> <PUBCHEM_CACTVS_TAUTO_COUNT>
1

> <PUBCHEM_CONFORMER_ID>
00001A9B00000001

> <PUBCHEM_MMFF94_ENERGY>
26.2064

> <PUBCHEM_FEATURE_SELFOVERLAP>
20.395

> <PUBCHEM_SHAPE_FINGERPRINT>
11206711 2 18337956791493147084
12423570 1 9543118093109554802
12897270 3 18338797952205922718
16945 1 18410573989583561990
18185500 45 17979635963395765358
193761 8 18410575089142662534
19973954 147 18410576205971394020
21040471 1 18266741285880982532
23552423 10 18188773967251977598
23559900 14 18127700336448608326
241688 4 18194683889216261347
2748010 2 18051128391208393588
5084963 1 18058724685216664827

> <PUBCHEM_SHAPE_MULTIPOLES>
208.77
3.1
2.17
0.59
0.92
0
0
0
0
-0.96
0
0.05
0
0

> <PUBCHEM_SHAPE_SELFOVERLAP>
468.454

> <PUBCHEM_SHAPE_VOLUME>
112.6

> <PUBCHEM_COORDINATE_TYPE>
2
5
10

$$$$
