141921
  -OEChem-11012400553D

 17 16  0     1  0  0  0  0  0999 V2000
    0.5469    0.2319    0.5237 S   0  0  2  0  0  0  0  0  0  0  0  0
    0.4426    1.5613   -0.1575 O   0  0  0  0  0  0  0  0  0  0  0  0
    1.8561   -0.7051   -0.2992 C   0  0  0  0  0  0  0  0  0  0  0  0
   -0.8183   -0.7971   -0.0947 C   0  0  0  0  0  0  0  0  0  0  0  0
    3.2248   -0.1235   -0.0105 C   0  0  0  0  0  0  0  0  0  0  0  0
   -2.1257   -0.2863    0.4142 C   0  0  0  0  0  0  0  0  0  0  0  0
   -3.1262    0.1189   -0.3760 C   0  0  0  0  0  0  0  0  0  0  0  0
    1.8131   -1.7394    0.0564 H   0  0  0  0  0  0  0  0  0  0  0  0
    1.6681   -0.7005   -1.3775 H   0  0  0  0  0  0  0  0  0  0  0  0
   -0.6646   -1.8199    0.2635 H   0  0  0  0  0  0  0  0  0  0  0  0
   -0.7814   -0.8026   -1.1890 H   0  0  0  0  0  0  0  0  0  0  0  0
    3.3017    0.9087   -0.3682 H   0  0  0  0  0  0  0  0  0  0  0  0
    3.4365   -0.1225    1.0641 H   0  0  0  0  0  0  0  0  0  0  0  0
    4.0007   -0.7131   -0.5087 H   0  0  0  0  0  0  0  0  0  0  0  0
   -2.2761   -0.2649    1.4909 H   0  0  0  0  0  0  0  0  0  0  0  0
   -4.0579    0.4702    0.0539 H   0  0  0  0  0  0  0  0  0  0  0  0
   -3.0357    0.1090   -1.4565 H   0  0  0  0  0  0  0  0  0  0  0  0
  1  2  2  0  0  0  0
  1  3  1  0  0  0  0
  1  4  1  0  0  0  0
  3  5  1  0  0  0  0
  3  8  1  0  0  0  0
  3  9  1  0  0  0  0
  4  6  1  0  0  0  0
  4 10  1  0  0  0  0
  4 11  1  0  0  0  0
  5 12  1  0  0  0  0
  5 13  1  0  0  0  0
  5 14  1  0  0  0  0
  6  7  2  0  0  0  0
  6 15  1  0  0  0  0
  7 16  1  0  0  0  0
  7 17  1  0  0  0  0
M  END
> <PUBCHEM_COMPOUND_CID>
141921

> <PUBCHEM_CONFORMER_RMSD>
0.4

> <PUBCHEM_CONFORMER_DIVERSEORDER>
1
20
28
14
25
2
12
29
24
26
4
18
19
21
15
3
9
11
7
23
8
27
16
13
22
5
6
17
10

> <PUBCHEM_MMFF94_PARTIAL_CHARGES>
9
1 0.11
15 0.15
16 0.15
17 0.15
2 -0.5
3 0.19
4 0.33
6 -0.29
7 -0.3

> <PUBCHEM_EFFECTIVE_ROTOR_COUNT>
3

> <PUBCHEM_PHARMACOPHORE_FEATURES>
2
1 2 acceptor
1 7 hydrophobe

> <PUBCHEM_HEAVY_ATOM_COUNT>
7

> <PUBCHEM_ATOM_DEF_STEREO_COUNT>
0

> <PUBCHEM_ATOM_UDEF_STEREO_COUNT>
1

> <PUBCHEM_BOND_DEF_STEREO_COUNT>
0

> <PUBCHEM_BOND_UDEF_STEREO_COUNT>
0

> <PUBCHEM_ISOTOPIC_ATOM_COUNT>
0

> <PUBCHEM_COMPONENT_COUNT>
1

> <PUBCHEM_CACTVS_TAUTO_COUNT>
1

> <PUBCHEM_CONFORMER_ID>
00022A6100000001

> <PUBCHEM_MMFF94_ENERGY>
-0.7343

> <PUBCHEM_FEATURE_SELFOVERLAP>
10.148

> <PUBCHEM_SHAPE_FINGERPRINT>
11062470 55 17846498127560036282
12932741 1 17749948994108387011
14390081 3 11241964893371080175
16714656 1 18410856533880613258
20651381 22 12895352192103176514
20651381 32 18334009462971082831
21293036 1 18409164420061527783
29004967 10 18409174315676753338
5460574 1 11241970382112379139

> <PUBCHEM_SHAPE_MULTIPOLES>
142.04
4.86
1.06
0.72
0.02
0.29
-0.04
-0.38
0.48
-0.15
0.07
0.07
0
0.09

> <PUBCHEM_SHAPE_SELFOVERLAP>
237.639

> <PUBCHEM_SHAPE_VOLUME>
96.9

> <PUBCHEM_COORDINATE_TYPE>
2
5
10

$$$$
