68501
  -OEChem-11012401103D

 23 24  0     1  0  0  0  0  0999 V2000
    3.2681   -0.1966   -0.0364 O   0  0  0  0  0  0  0  0  0  0  0  0
    2.4043   -2.3170   -0.1016 O   0  0  0  0  0  0  0  0  0  0  0  0
    3.4244    2.0752    0.1567 O   0  0  0  0  0  0  0  0  0  0  0  0
    1.4124    0.9325    0.3578 N   0  0  0  0  0  0  0  0  0  0  0  0
    0.9457   -0.4180    0.3102 C   0  0  1  0  0  0  0  0  0  0  0  0
   -0.0579   -0.6435   -0.8002 C   0  0  0  0  0  0  0  0  0  0  0  0
   -1.4563   -0.2526   -0.3895 C   0  0  0  0  0  0  0  0  0  0  0  0
    2.2563   -1.1120    0.0379 C   0  0  0  0  0  0  0  0  0  0  0  0
    2.7609    1.0491    0.1595 C   0  0  0  0  0  0  0  0  0  0  0  0
   -2.2817   -1.1981    0.1992 C   0  0  0  0  0  0  0  0  0  0  0  0
   -1.8917    1.0453   -0.6083 C   0  0  0  0  0  0  0  0  0  0  0  0
   -3.5744   -0.8367    0.5785 C   0  0  0  0  0  0  0  0  0  0  0  0
   -3.1844    1.4067   -0.2287 C   0  0  0  0  0  0  0  0  0  0  0  0
   -4.0258    0.4657    0.3648 C   0  0  0  0  0  0  0  0  0  0  0  0
    0.5876   -0.6966    1.3062 H   0  0  0  0  0  0  0  0  0  0  0  0
   -0.0678   -1.7021   -1.0936 H   0  0  0  0  0  0  0  0  0  0  0  0
    0.2258   -0.1000   -1.7121 H   0  0  0  0  0  0  0  0  0  0  0  0
    0.8131    1.7260    0.5624 H   0  0  0  0  0  0  0  0  0  0  0  0
   -1.9388   -2.2142    0.3723 H   0  0  0  0  0  0  0  0  0  0  0  0
   -1.2451    1.7854   -1.0710 H   0  0  0  0  0  0  0  0  0  0  0  0
   -4.2294   -1.5692    1.0412 H   0  0  0  0  0  0  0  0  0  0  0  0
   -3.5359    2.4208   -0.3955 H   0  0  0  0  0  0  0  0  0  0  0  0
   -5.0322    0.7470    0.6603 H   0  0  0  0  0  0  0  0  0  0  0  0
  1  8  1  0  0  0  0
  1  9  1  0  0  0  0
  2  8  2  0  0  0  0
  3  9  2  0  0  0  0
  4  5  1  0  0  0  0
  4  9  1  0  0  0  0
  4 18  1  0  0  0  0
  5  6  1  0  0  0  0
  5  8  1  0  0  0  0
  5 15  1  0  0  0  0
  6  7  1  0  0  0  0
  6 16  1  0  0  0  0
  6 17  1  0  0  0  0
  7 10  2  0  0  0  0
  7 11  1  0  0  0  0
 10 12  1  0  0  0  0
 10 19  1  0  0  0  0
 11 13  2  0  0  0  0
 11 20  1  0  0  0  0
 12 14  2  0  0  0  0
 12 21  1  0  0  0  0
 13 14  1  0  0  0  0
 13 22  1  0  0  0  0
 14 23  1  0  0  0  0
M  END
> <PUBCHEM_COMPOUND_CID>
68501

> <PUBCHEM_CONFORMER_RMSD>
0.6

> <PUBCHEM_CONFORMER_DIVERSEORDER>
1
5
3
6
7
4
2

> <PUBCHEM_MMFF94_PARTIAL_CHARGES>
20
1 -0.3
10 -0.15
11 -0.15
12 -0.15
13 -0.15
14 -0.15
18 0.37
19 0.15
2 -0.57
20 0.15
21 0.15
22 0.15
23 0.15
3 -0.57
4 -0.73
5 0.36
6 0.14
7 -0.14
8 0.66
9 0.78

> <PUBCHEM_EFFECTIVE_ROTOR_COUNT>
2.6

> <PUBCHEM_PHARMACOPHORE_FEATURES>
5
1 2 acceptor
1 3 acceptor
1 4 donor
5 1 4 5 8 9 rings
6 7 10 11 12 13 14 rings

> <PUBCHEM_HEAVY_ATOM_COUNT>
14

> <PUBCHEM_ATOM_DEF_STEREO_COUNT>
0

> <PUBCHEM_ATOM_UDEF_STEREO_COUNT>
1

> <PUBCHEM_BOND_DEF_STEREO_COUNT>
0

> <PUBCHEM_BOND_UDEF_STEREO_COUNT>
0

> <PUBCHEM_ISOTOPIC_ATOM_COUNT>
0

> <PUBCHEM_COMPONENT_COUNT>
1

> <PUBCHEM_CACTVS_TAUTO_COUNT>
2

> <PUBCHEM_CONFORMER_ID>
00010B9500000001

> <PUBCHEM_MMFF94_ENERGY>
23.1151

> <PUBCHEM_FEATURE_SELFOVERLAP>
25.371

> <PUBCHEM_SHAPE_FINGERPRINT>
10608611 8 18408881811213626357
10980938 120 18341891913522995890
11132069 177 18113897203936320445
11471102 20 18413385423794178180
11715629 250 18409724092838955124
12251169 10 18411418397423696999
12346645 44 18339077219643335088
12932764 1 17632286917261203535
13296908 3 18040436564410282895
13380535 21 18411704313180326918
14144814 61 18410011022571629859
14289901 80 18412261757317971363
14325111 11 18410572877313645893
14415576 193 18409171038796138964
14445660 50 18341621438258197833
15219456 202 18410012117740856495
15375462 6 18410012147768645957
15442244 35 18124597483456734600
15653759 3 18260833661518292267
15775835 57 18202003282314249229
17804303 29 18118410548755022759
17844478 74 18260831488233412885
18186145 218 18271813380148515439
201361 129 18411702092998525136
20510252 161 18410294697062401625
20528008 55 18335416868457275999
20645477 70 18271522001019737031
20715346 28 18041274383622581277
21501502 16 18341886415954710399
22854114 111 18413106182163681016
23559900 14 18337666404216898555
449060 50 18335704974599916413
5104073 3 18408042896937272745
6049 1 18041837298957892476
69090 78 18411695474881540711
7364860 26 18341332210791924606
77779 3 18410295804662628395
9709674 26 18408890637472036179

> <PUBCHEM_SHAPE_MULTIPOLES>
265.52
7.15
1.83
0.74
0.89
0.01
-0.04
-1.36
0.97
-1.12
0.01
0.22
0.01
0.45

> <PUBCHEM_SHAPE_SELFOVERLAP>
570.465

> <PUBCHEM_SHAPE_VOLUME>
147.4

> <PUBCHEM_COORDINATE_TYPE>
2
5
10

$$$$
