127440
  -OEChem-11012400573D

 44 46  0     0  0  0  0  0  0999 V2000
    0.1629    2.0236   -2.0475 O   0  0  0  0  0  0  0  0  0  0  0  0
   -3.4987   -2.5212    1.8732 O   0  0  0  0  0  0  0  0  0  0  0  0
    4.1985   -1.2104    2.1121 O   0  0  0  0  0  0  0  0  0  0  0  0
   -1.3913    0.4803   -0.0498 N   0  0  0  0  0  0  0  0  0  0  0  0
    0.9491   -0.0993   -0.1855 N   0  0  0  0  0  0  0  0  0  0  0  0
   -0.0467    0.7470    0.4997 C   0  0  0  0  0  0  0  0  0  0  0  0
    0.2826    2.2218    0.3378 C   0  0  0  0  0  0  0  0  0  0  0  0
    0.3674    2.7711   -0.9268 C   0  0  0  0  0  0  0  0  0  0  0  0
    0.4893    2.9759    1.4774 C   0  0  0  0  0  0  0  0  0  0  0  0
    0.6704    4.1263   -1.0576 C   0  0  0  0  0  0  0  0  0  0  0  0
    0.7924    4.3312    1.3465 C   0  0  0  0  0  0  0  0  0  0  0  0
   -3.3946   -0.8581    0.1474 C   0  0  0  0  0  0  0  0  0  0  0  0
    3.0429   -1.2891    0.0118 C   0  0  0  0  0  0  0  0  0  0  0  0
   -2.0542   -0.4583    0.5529 C   0  0  0  0  0  0  0  0  0  0  0  0
    1.9574   -0.4448    0.5384 C   0  0  0  0  0  0  0  0  0  0  0  0
    0.8830    4.9065    0.0791 C   0  0  0  0  0  0  0  0  0  0  0  0
   -4.0727   -1.8748    0.8195 C   0  0  0  0  0  0  0  0  0  0  0  0
    4.1149   -1.6355    0.8199 C   0  0  0  0  0  0  0  0  0  0  0  0
   -3.9996   -0.2094   -0.9291 C   0  0  0  0  0  0  0  0  0  0  0  0
    2.9646   -1.7250   -1.3027 C   0  0  0  0  0  0  0  0  0  0  0  0
   -5.3560   -2.2430    0.4153 C   0  0  0  0  0  0  0  0  0  0  0  0
    5.1329   -2.4362    0.3019 C   0  0  0  0  0  0  0  0  0  0  0  0
   -5.2829   -0.5775   -1.3334 C   0  0  0  0  0  0  0  0  0  0  0  0
    3.9826   -2.5256   -1.8207 C   0  0  0  0  0  0  0  0  0  0  0  0
   -5.9610   -1.5943   -0.6613 C   0  0  0  0  0  0  0  0  0  0  0  0
    5.0668   -2.8813   -1.0184 C   0  0  0  0  0  0  0  0  0  0  0  0
   -0.0553    0.5148    1.5752 H   0  0  0  0  0  0  0  0  0  0  0  0
    0.4223    2.5415    2.4703 H   0  0  0  0  0  0  0  0  0  0  0  0
    0.7426    4.5806   -2.0420 H   0  0  0  0  0  0  0  0  0  0  0  0
    0.9580    4.9387    2.2316 H   0  0  0  0  0  0  0  0  0  0  0  0
   -1.6037   -0.9977    1.4048 H   0  0  0  0  0  0  0  0  0  0  0  0
    2.0455   -0.1121    1.5877 H   0  0  0  0  0  0  0  0  0  0  0  0
    1.1190    5.9616   -0.0227 H   0  0  0  0  0  0  0  0  0  0  0  0
   -3.4978    0.5863   -1.4732 H   0  0  0  0  0  0  0  0  0  0  0  0
    2.1333   -1.4645   -1.9516 H   0  0  0  0  0  0  0  0  0  0  0  0
   -5.8962   -3.0333    0.9296 H   0  0  0  0  0  0  0  0  0  0  0  0
    5.9836   -2.7211    0.9153 H   0  0  0  0  0  0  0  0  0  0  0  0
   -5.7543   -0.0727   -2.1716 H   0  0  0  0  0  0  0  0  0  0  0  0
    3.9315   -2.8723   -2.8487 H   0  0  0  0  0  0  0  0  0  0  0  0
   -6.9602   -1.8808   -0.9762 H   0  0  0  0  0  0  0  0  0  0  0  0
    5.8593   -3.5046   -1.4219 H   0  0  0  0  0  0  0  0  0  0  0  0
   -0.0423    1.1054   -1.8082 H   0  0  0  0  0  0  0  0  0  0  0  0
   -4.1174   -3.1921    2.2097 H   0  0  0  0  0  0  0  0  0  0  0  0
    5.0169   -1.5558    2.5081 H   0  0  0  0  0  0  0  0  0  0  0  0
  1  8  1  0  0  0  0
  1 42  1  0  0  0  0
  2 17  1  0  0  0  0
  2 43  1  0  0  0  0
  3 18  1  0  0  0  0
  3 44  1  0  0  0  0
  4  6  1  0  0  0  0
  4 14  2  3  0  0  0
  5  6  1  0  0  0  0
  5 15  2  3  0  0  0
  6  7  1  0  0  0  0
  6 27  1  0  0  0  0
  7  8  1  0  0  0  0
  7  9  2  0  0  0  0
  8 10  2  0  0  0  0
  9 11  1  0  0  0  0
  9 28  1  0  0  0  0
 10 16  1  0  0  0  0
 10 29  1  0  0  0  0
 11 16  2  0  0  0  0
 11 30  1  0  0  0  0
 12 14  1  0  0  0  0
 12 17  1  0  0  0  0
 12 19  2  0  0  0  0
 13 15  1  0  0  0  0
 13 18  1  0  0  0  0
 13 20  2  0  0  0  0
 14 31  1  0  0  0  0
 15 32  1  0  0  0  0
 16 33  1  0  0  0  0
 17 21  2  0  0  0  0
 18 22  2  0  0  0  0
 19 23  1  0  0  0  0
 19 34  1  0  0  0  0
 20 24  1  0  0  0  0
 20 35  1  0  0  0  0
 21 25  1  0  0  0  0
 21 36  1  0  0  0  0
 22 26  1  0  0  0  0
 22 37  1  0  0  0  0
 23 25  2  0  0  0  0
 23 38  1  0  0  0  0
 24 26  2  0  0  0  0
 24 39  1  0  0  0  0
 25 40  1  0  0  0  0
 26 41  1  0  0  0  0
M  END
> <PUBCHEM_COMPOUND_CID>
127440

> <PUBCHEM_CONFORMER_RMSD>
0.8

> <PUBCHEM_CONFORMER_DIVERSEORDER>
1
107
231
216
219
199
125
189
201
190
21
121
177
156
180
172
65
209
137
162
227
47
200
95
185
193
196
147
152
141
108
204
228
88
116
26
164
155
127
181
64
84
195
41
226
124
163
207
134
186
53
115
217
74
229
96
131
35
113
223
110
73
30
139
222
213
197
146
76
176
148
106
83
63
191
32
174
173
158
212
168
210
23
205
50
150
44
133
192
16
183
215
86
102
12
206
188
203
211
90
159
160
39
218
18
81
220
56
123
142
169
225
24
68
6
46
143
85
165
91
54
117
101
167
138
87
145
43
208
119
224
93
45
38
112
62
170
166
57
49
10
179
100
51
120
42
3
92
161
104
36
19
118
14
136
33
171
2
230
135
175
202
80
66
22
187
132
103
58
89
17
69
13
67
111
114
198
71
184
48
98
128
75
97
140
182
5
61
151
194
221
4
82
59
72
149
55
154
31
40
60
15
52
214
29
144
129
27
77
109
20
157
94
105
28
99
9
79
7
153
78
130
178
122
34
70
37
25
126
8
11

> <PUBCHEM_MMFF94_PARTIAL_CHARGES>
43
1 -0.53
10 -0.15
11 -0.15
12 0.09
13 0.09
14 0.3
15 0.3
16 -0.15
17 0.08
18 0.08
19 -0.15
2 -0.53
20 -0.15
21 -0.15
22 -0.15
23 -0.15
24 -0.15
25 -0.15
26 -0.15
28 0.15
29 0.15
3 -0.53
30 0.15
31 0.06
32 0.06
33 0.15
34 0.15
35 0.15
36 0.15
37 0.15
38 0.15
39 0.15
4 -0.7
40 0.15
41 0.15
42 0.45
43 0.45
44 0.45
5 -0.7
6 0.64
7 -0.14
8 0.08
9 -0.15

> <PUBCHEM_EFFECTIVE_ROTOR_COUNT>
5

> <PUBCHEM_PHARMACOPHORE_FEATURES>
8
1 1 donor
1 2 donor
1 3 donor
1 4 acceptor
1 5 acceptor
6 12 17 19 21 23 25 rings
6 13 18 20 22 24 26 rings
6 7 8 9 10 11 16 rings

> <PUBCHEM_HEAVY_ATOM_COUNT>
26

> <PUBCHEM_ATOM_DEF_STEREO_COUNT>
0

> <PUBCHEM_ATOM_UDEF_STEREO_COUNT>
0

> <PUBCHEM_BOND_DEF_STEREO_COUNT>
0

> <PUBCHEM_BOND_UDEF_STEREO_COUNT>
2

> <PUBCHEM_ISOTOPIC_ATOM_COUNT>
0

> <PUBCHEM_COMPONENT_COUNT>
1

> <PUBCHEM_CACTVS_TAUTO_COUNT>
24

> <PUBCHEM_CONFORMER_ID>
0001F1D000000001

> <PUBCHEM_MMFF94_ENERGY>
77.0992

> <PUBCHEM_FEATURE_SELFOVERLAP>
40.626

> <PUBCHEM_SHAPE_FINGERPRINT>
11488393 25 18190750927676651504
12160290 23 17684381554873681840
12342043 65 17631171875723561518
12363563 72 18411709763515288267
12516196 113 18411979156843856338
12549972 3 17053563134427628338
12553582 1 18261967236373892515
12788726 201 17973999553385799891
131258 43 18127718035533672494
13533116 47 18267591398171013835
13955234 65 18123757723135548913
17539 30 18122908629217555596
1813 80 18343024380245151095
18222031 100 18343584036027533422
20693207 138 17967808405843137071
21120745 212 18197521548909260516
21796203 349 17978269158879415850
23557571 272 18196084452819714134
23559900 14 18114737257117207295
255183 313 17693957197471922169
283562 15 18191587450230949250
3004659 81 17603584102073969154
314173 85 18341896246934436338
437815 12 18411974733449151855
4408954 87 16911178577786053777
57527585 103 17839441312237525416
59755656 520 17402614048309727852
613672 6 18411416189589590831
6669772 16 17766574821112389332
6679774 75 17830154064341138416
7399639 24 18058432246016967018
77188 2 18413671301039196312
9841814 1 18261669371748895155

> <PUBCHEM_SHAPE_MULTIPOLES>
507.5
11.67
5.92
1.67
7.93
9.31
0.03
-18.38
1.08
-4.13
-0.03
-0.56
-0.08
1.39

> <PUBCHEM_SHAPE_SELFOVERLAP>
1103.007

> <PUBCHEM_SHAPE_VOLUME>
274.4

> <PUBCHEM_COORDINATE_TYPE>
2
5
10

$$$$
