66181
  -OEChem-11012401213D

 32 34  0     0  0  0  0  0  0999 V2000
   -1.2225   -0.7013    0.0277 C   0  0  0  0  0  0  0  0  0  0  0  0
   -1.2225    0.7015   -0.0289 C   0  0  0  0  0  0  0  0  0  0  0  0
    1.2227   -0.7015    0.0271 C   0  0  0  0  0  0  0  0  0  0  0  0
    1.2225    0.7015   -0.0288 C   0  0  0  0  0  0  0  0  0  0  0  0
   -2.5073   -1.4880    0.1059 C   0  0  0  0  0  0  0  0  0  0  0  0
   -2.5074    1.4877   -0.1069 C   0  0  0  0  0  0  0  0  0  0  0  0
    2.5073   -1.4882    0.1039 C   0  0  0  0  0  0  0  0  0  0  0  0
    2.5074    1.4878   -0.1054 C   0  0  0  0  0  0  0  0  0  0  0  0
   -3.7329   -0.6864   -0.3281 C   0  0  0  0  0  0  0  0  0  0  0  0
   -3.7318    0.6865    0.3314 C   0  0  0  0  0  0  0  0  0  0  0  0
    3.7331   -0.6858   -0.3290 C   0  0  0  0  0  0  0  0  0  0  0  0
    3.7316    0.6861    0.3328 C   0  0  0  0  0  0  0  0  0  0  0  0
    0.0001   -1.3880    0.0711 C   0  0  0  0  0  0  0  0  0  0  0  0
    0.0000    1.3880   -0.0728 C   0  0  0  0  0  0  0  0  0  0  0  0
   -2.4345   -2.3852   -0.5205 H   0  0  0  0  0  0  0  0  0  0  0  0
   -2.6400   -1.8186    1.1437 H   0  0  0  0  0  0  0  0  0  0  0  0
   -2.4339    2.3863    0.5172 H   0  0  0  0  0  0  0  0  0  0  0  0
   -2.6421    1.8158   -1.1453 H   0  0  0  0  0  0  0  0  0  0  0  0
    2.6402   -1.8203    1.1413 H   0  0  0  0  0  0  0  0  0  0  0  0
    2.4345   -2.3844   -0.5238 H   0  0  0  0  0  0  0  0  0  0  0  0
    2.6425    1.8170   -1.1434 H   0  0  0  0  0  0  0  0  0  0  0  0
    2.4335    2.3858    0.5197 H   0  0  0  0  0  0  0  0  0  0  0  0
   -3.7356   -0.5694   -1.4193 H   0  0  0  0  0  0  0  0  0  0  0  0
   -4.6439   -1.2339   -0.0616 H   0  0  0  0  0  0  0  0  0  0  0  0
   -3.7310    0.5697    1.4226 H   0  0  0  0  0  0  0  0  0  0  0  0
   -4.6436    1.2340    0.0676 H   0  0  0  0  0  0  0  0  0  0  0  0
    4.6441   -1.2335   -0.0631 H   0  0  0  0  0  0  0  0  0  0  0  0
    3.7358   -0.5671   -1.4200 H   0  0  0  0  0  0  0  0  0  0  0  0
    4.6434    1.2341    0.0703 H   0  0  0  0  0  0  0  0  0  0  0  0
    3.7300    0.5676    1.4238 H   0  0  0  0  0  0  0  0  0  0  0  0
    0.0000   -2.4745    0.1398 H   0  0  0  0  0  0  0  0  0  0  0  0
    0.0000    2.4745   -0.1415 H   0  0  0  0  0  0  0  0  0  0  0  0
  1  2  2  0  0  0  0
  1  5  1  0  0  0  0
  1 13  1  0  0  0  0
  2  6  1  0  0  0  0
  2 14  1  0  0  0  0
  3  4  1  0  0  0  0
  3  7  1  0  0  0  0
  3 13  2  0  0  0  0
  4  8  1  0  0  0  0
  4 14  2  0  0  0  0
  5  9  1  0  0  0  0
  5 15  1  0  0  0  0
  5 16  1  0  0  0  0
  6 10  1  0  0  0  0
  6 17  1  0  0  0  0
  6 18  1  0  0  0  0
  7 11  1  0  0  0  0
  7 19  1  0  0  0  0
  7 20  1  0  0  0  0
  8 12  1  0  0  0  0
  8 21  1  0  0  0  0
  8 22  1  0  0  0  0
  9 10  1  0  0  0  0
  9 23  1  0  0  0  0
  9 24  1  0  0  0  0
 10 25  1  0  0  0  0
 10 26  1  0  0  0  0
 11 12  1  0  0  0  0
 11 27  1  0  0  0  0
 11 28  1  0  0  0  0
 12 29  1  0  0  0  0
 12 30  1  0  0  0  0
 13 31  1  0  0  0  0
 14 32  1  0  0  0  0
M  END
> <PUBCHEM_COMPOUND_CID>
66181

> <PUBCHEM_CONFORMER_RMSD>
0.6

> <PUBCHEM_CONFORMER_DIVERSEORDER>
1

> <PUBCHEM_MMFF94_PARTIAL_CHARGES>
12
1 -0.14
13 -0.15
14 -0.15
2 -0.14
3 -0.14
31 0.15
32 0.15
4 -0.14
5 0.14
6 0.14
7 0.14
8 0.14

> <PUBCHEM_EFFECTIVE_ROTOR_COUNT>
1.6

> <PUBCHEM_PHARMACOPHORE_FEATURES>
3
6 1 2 3 4 13 14 rings
6 1 2 5 6 9 10 rings
6 3 4 7 8 11 12 rings

> <PUBCHEM_HEAVY_ATOM_COUNT>
14

> <PUBCHEM_ATOM_DEF_STEREO_COUNT>
0

> <PUBCHEM_ATOM_UDEF_STEREO_COUNT>
0

> <PUBCHEM_BOND_DEF_STEREO_COUNT>
0

> <PUBCHEM_BOND_UDEF_STEREO_COUNT>
0

> <PUBCHEM_ISOTOPIC_ATOM_COUNT>
0

> <PUBCHEM_COMPONENT_COUNT>
1

> <PUBCHEM_CACTVS_TAUTO_COUNT>
1

> <PUBCHEM_CONFORMER_ID>
0001028500000001

> <PUBCHEM_MMFF94_ENERGY>
22.5735

> <PUBCHEM_FEATURE_SELFOVERLAP>
15.265

> <PUBCHEM_SHAPE_FINGERPRINT>
10608611 8 18410852161641153992
10967382 1 18410012121840605962
10980938 120 18410293601423650234
11132069 177 18410569591400024401
11471102 20 18410570691143637342
11806522 49 18338793541459340423
12032990 46 18410299115834571662
12251169 10 18410012117566789713
12932764 1 17531239522182889476
13221675 6 18409448089560830731
13296908 3 18413109463365740406
13380535 76 18409729577412088706
14144814 61 18409448076686368075
14325111 11 18411136939410603616
15196674 1 18410855460128161796
15219456 202 18412545409510603022
15442244 35 18194964045854432658
15536298 74 18343021090663952132
15775835 57 18411423907676749241
16945 1 18334857216416284678
17844478 74 17967537843866473085
18186145 218 18409448050942931596
18522853 276 18413105069513956897
200 152 18059565910939493381
20201158 50 18410012134741553010
20510252 161 18272652324763909065
20645477 70 18342454816079257759
21267235 1 18410583885083132687
21501502 16 18411138038969496301
21501925 9 18409719677839233338
221490 88 18336836384960472802
2334 1 18410575114727849991
23402539 116 18343292669624634437
23402655 69 18340763763116879797
23463225 33 18408322176916694876
23559900 14 18341890750103953266
2748010 2 18410293613997166478
335352 9 18122343467265819070
5104073 3 18411136935115455434
528886 8 18410569582857504162
53812653 166 18342734143751486472
57096353 35 18339079409833927109
69090 78 18343015601601029839
7364860 26 18343301466313677326
8809292 202 18260834825307132963
9709674 26 18411986879216244630

> <PUBCHEM_SHAPE_MULTIPOLES>
288.11
6.82
1.8
0.65
0
0
0
0
0.01
0
0
0
0
0

> <PUBCHEM_SHAPE_SELFOVERLAP>
618.184

> <PUBCHEM_SHAPE_VOLUME>
150.4

> <PUBCHEM_COORDINATE_TYPE>
2
5
10

$$$$
