137819
  -OEChem-11012400343D

 56 58  0     1  0  0  0  0  0999 V2000
    2.0161   -1.8197    1.4038 O   0  0  0  0  0  0  0  0  0  0  0  0
   -2.0087   -1.8205   -1.3664 O   0  0  0  0  0  0  0  0  0  0  0  0
    4.6330   -1.1649    0.7303 O   0  0  0  0  0  0  0  0  0  0  0  0
   -4.6333   -1.1631   -0.7263 O   0  0  0  0  0  0  0  0  0  0  0  0
   -0.0115    0.0235    0.0275 N   0  0  0  0  0  0  0  0  0  0  0  0
    1.1047   -0.7259   -0.5501 C   0  0  0  0  0  0  0  0  0  0  0  0
   -1.1198   -0.7136    0.5903 C   0  0  0  0  0  0  0  0  0  0  0  0
    2.2785   -0.8131    0.4254 C   0  0  2  0  0  0  0  0  0  0  0  0
   -2.2826   -0.8078   -0.3975 C   0  0  2  0  0  0  0  0  0  0  0  0
    0.0022    1.4246    0.0157 C   0  0  0  0  0  0  0  0  0  0  0  0
    3.6056   -1.1331   -0.2558 C   0  0  0  0  0  0  0  0  0  0  0  0
   -3.6170   -1.1242    0.2709 C   0  0  0  0  0  0  0  0  0  0  0  0
    1.0868    2.1067   -0.5355 C   0  0  0  0  0  0  0  0  0  0  0  0
   -1.0690    2.1374    0.5548 C   0  0  0  0  0  0  0  0  0  0  0  0
    1.1003    3.5015   -0.5478 C   0  0  0  0  0  0  0  0  0  0  0  0
   -1.0555    3.5321    0.5424 C   0  0  0  0  0  0  0  0  0  0  0  0
    0.0290    4.2142   -0.0088 C   0  0  0  0  0  0  0  0  0  0  0  0
    5.8927   -0.8224    0.3173 C   0  0  0  0  0  0  0  0  0  0  0  0
   -5.8977   -0.8186   -0.3295 C   0  0  0  0  0  0  0  0  0  0  0  0
    6.7826   -0.2286    1.2124 C   0  0  0  0  0  0  0  0  0  0  0  0
   -6.7780   -0.2311   -1.2384 C   0  0  0  0  0  0  0  0  0  0  0  0
    6.2865   -1.0678   -0.9982 C   0  0  0  0  0  0  0  0  0  0  0  0
   -6.3060   -1.0557    0.9831 C   0  0  0  0  0  0  0  0  0  0  0  0
    8.0662    0.1198    0.7919 C   0  0  0  0  0  0  0  0  0  0  0  0
   -8.0664    0.1191   -0.8344 C   0  0  0  0  0  0  0  0  0  0  0  0
    7.5701   -0.7195   -1.4186 C   0  0  0  0  0  0  0  0  0  0  0  0
   -7.5944   -0.7055    1.3868 C   0  0  0  0  0  0  0  0  0  0  0  0
    8.4599   -0.1257   -0.5236 C   0  0  0  0  0  0  0  0  0  0  0  0
   -8.4745   -0.1181    0.4782 C   0  0  0  0  0  0  0  0  0  0  0  0
    0.7739   -1.7474   -0.7808 H   0  0  0  0  0  0  0  0  0  0  0  0
    1.3971   -0.3095   -1.5210 H   0  0  0  0  0  0  0  0  0  0  0  0
   -1.4299   -0.2866    1.5512 H   0  0  0  0  0  0  0  0  0  0  0  0
   -0.7961   -1.7333    0.8387 H   0  0  0  0  0  0  0  0  0  0  0  0
    2.4076    0.1197    0.9866 H   0  0  0  0  0  0  0  0  0  0  0  0
   -2.4061    0.1223   -0.9649 H   0  0  0  0  0  0  0  0  0  0  0  0
    3.7920   -0.3616   -1.0136 H   0  0  0  0  0  0  0  0  0  0  0  0
    3.5542   -2.1196   -0.7314 H   0  0  0  0  0  0  0  0  0  0  0  0
   -3.8122   -0.3476    1.0214 H   0  0  0  0  0  0  0  0  0  0  0  0
   -3.5704   -2.1075    0.7536 H   0  0  0  0  0  0  0  0  0  0  0  0
    1.9530    1.6158   -0.9646 H   0  0  0  0  0  0  0  0  0  0  0  0
   -1.9427    1.6659    0.9912 H   0  0  0  0  0  0  0  0  0  0  0  0
    1.2358   -1.5372    1.9102 H   0  0  0  0  0  0  0  0  0  0  0  0
   -1.2309   -1.5346   -1.8746 H   0  0  0  0  0  0  0  0  0  0  0  0
    1.9451    4.0337   -0.9754 H   0  0  0  0  0  0  0  0  0  0  0  0
   -1.8899    4.0878    0.9603 H   0  0  0  0  0  0  0  0  0  0  0  0
    0.0395    5.3002   -0.0184 H   0  0  0  0  0  0  0  0  0  0  0  0
    6.4814   -0.0350    2.2382 H   0  0  0  0  0  0  0  0  0  0  0  0
   -6.4654   -0.0440   -2.2621 H   0  0  0  0  0  0  0  0  0  0  0  0
    5.6352   -1.5535   -1.7186 H   0  0  0  0  0  0  0  0  0  0  0  0
   -5.6626   -1.5363    1.7140 H   0  0  0  0  0  0  0  0  0  0  0  0
    8.7592    0.5818    1.4888 H   0  0  0  0  0  0  0  0  0  0  0  0
   -8.7519    0.5762   -1.5420 H   0  0  0  0  0  0  0  0  0  0  0  0
    7.8795   -0.9164   -2.4410 H   0  0  0  0  0  0  0  0  0  0  0  0
   -7.9149   -0.8959    2.4069 H   0  0  0  0  0  0  0  0  0  0  0  0
    9.4598    0.1441   -0.8504 H   0  0  0  0  0  0  0  0  0  0  0  0
   -9.4781    0.1532    0.7922 H   0  0  0  0  0  0  0  0  0  0  0  0
  1  8  1  0  0  0  0
  1 42  1  0  0  0  0
  2  9  1  0  0  0  0
  2 43  1  0  0  0  0
  3 11  1  0  0  0  0
  3 18  1  0  0  0  0
  4 12  1  0  0  0  0
  4 19  1  0  0  0  0
  5  6  1  0  0  0  0
  5  7  1  0  0  0  0
  5 10  1  0  0  0  0
  6  8  1  0  0  0  0
  6 30  1  0  0  0  0
  6 31  1  0  0  0  0
  7  9  1  0  0  0  0
  7 32  1  0  0  0  0
  7 33  1  0  0  0  0
  8 11  1  0  0  0  0
  8 34  1  0  0  0  0
  9 12  1  0  0  0  0
  9 35  1  0  0  0  0
 10 13  2  0  0  0  0
 10 14  1  0  0  0  0
 11 36  1  0  0  0  0
 11 37  1  0  0  0  0
 12 38  1  0  0  0  0
 12 39  1  0  0  0  0
 13 15  1  0  0  0  0
 13 40  1  0  0  0  0
 14 16  2  0  0  0  0
 14 41  1  0  0  0  0
 15 17  2  0  0  0  0
 15 44  1  0  0  0  0
 16 17  1  0  0  0  0
 16 45  1  0  0  0  0
 17 46  1  0  0  0  0
 18 20  2  0  0  0  0
 18 22  1  0  0  0  0
 19 21  2  0  0  0  0
 19 23  1  0  0  0  0
 20 24  1  0  0  0  0
 20 47  1  0  0  0  0
 21 25  1  0  0  0  0
 21 48  1  0  0  0  0
 22 26  2  0  0  0  0
 22 49  1  0  0  0  0
 23 27  2  0  0  0  0
 23 50  1  0  0  0  0
 24 28  2  0  0  0  0
 24 51  1  0  0  0  0
 25 29  2  0  0  0  0
 25 52  1  0  0  0  0
 26 28  1  0  0  0  0
 26 53  1  0  0  0  0
 27 29  1  0  0  0  0
 27 54  1  0  0  0  0
 28 55  1  0  0  0  0
 29 56  1  0  0  0  0
M  END
> <PUBCHEM_COMPOUND_CID>
137819

> <PUBCHEM_CONFORMER_RMSD>
1.2

> <PUBCHEM_CONFORMER_DIVERSEORDER>
2
93
126
97
13
16
89
6
135
92
3
43
122
84
102
128
86
79
140
133
144
132
120
91
109
27
8
69
104
39
5
20
4
145
30
78
125
1
38
90
134
54
44
14
45
127
10
141
57
101
98
71
123
142
24
115
18
53
75
137
47
116
136
56
36
37
74
108
119
85
32
118
51
28
105
49
106
130
88
139
121
103
81
21
23
113
17
48
143
94
50
22
46
82
67
112
42
35
65
138
52
95
72
58
26
66
59
64
131
61
76
80
25
110
12
73
40
124
31
77
114
33
41
99
19
7
11
117
107
96
29
87
68
70
129
34
55
111
9
62
60
100
63
83
15

> <PUBCHEM_MMFF94_PARTIAL_CHARGES>
46
1 -0.68
10 0.1
11 0.28
12 0.28
13 -0.15
14 -0.15
15 -0.15
16 -0.15
17 -0.15
18 0.08
19 0.08
2 -0.68
20 -0.15
21 -0.15
22 -0.15
23 -0.15
24 -0.15
25 -0.15
26 -0.15
27 -0.15
28 -0.15
29 -0.15
3 -0.36
4 -0.36
40 0.15
41 0.15
42 0.4
43 0.4
44 0.15
45 0.15
46 0.15
47 0.15
48 0.15
49 0.15
5 -0.84
50 0.15
51 0.15
52 0.15
53 0.15
54 0.15
55 0.15
56 0.15
6 0.37
7 0.37
8 0.28
9 0.28

> <PUBCHEM_EFFECTIVE_ROTOR_COUNT>
11

> <PUBCHEM_PHARMACOPHORE_FEATURES>
10
1 1 acceptor
1 1 donor
1 2 acceptor
1 2 donor
1 3 acceptor
1 4 acceptor
1 5 cation
6 10 13 14 15 16 17 rings
6 18 20 22 24 26 28 rings
6 19 21 23 25 27 29 rings

> <PUBCHEM_HEAVY_ATOM_COUNT>
29

> <PUBCHEM_ATOM_DEF_STEREO_COUNT>
0

> <PUBCHEM_ATOM_UDEF_STEREO_COUNT>
2

> <PUBCHEM_BOND_DEF_STEREO_COUNT>
0

> <PUBCHEM_BOND_UDEF_STEREO_COUNT>
0

> <PUBCHEM_ISOTOPIC_ATOM_COUNT>
0

> <PUBCHEM_COMPONENT_COUNT>
1

> <PUBCHEM_CACTVS_TAUTO_COUNT>
1

> <PUBCHEM_CONFORMER_ID>
00021A5B00000002

> <PUBCHEM_MMFF94_ENERGY>
105.2032

> <PUBCHEM_FEATURE_SELFOVERLAP>
50.755

> <PUBCHEM_SHAPE_FINGERPRINT>
10076449 9 18410293605750363621
11672396 167 18189896406502980546
12857493 111 18335139795364322821
13617811 41 18339654373470498982
14117953 113 18272371974910251279
15198563 99 18338520716299487916
15301273 46 17704073992932088942
15840311 113 17774716567229105113
15849732 13 18060416928433740111
15980000 95 18412265038563241765
16087824 20 18339078173933852517
16992787 43 18335984280961547324
16994733 274 15213291989590983269
18006028 8 18411135835598525943
20238998 120 18342173371151948584
21049683 271 17967817171254196981
21304253 13 18273494593757718785
21304303 172 18130514041657921169
21403212 168 9943809976077762896
21792961 116 18114452366813522854
24180151 248 18056769723789847958
24771293 8 17989492905177431687
249057 3 18411698824845456687
3178227 256 18261118482744460595
335352 9 18410007754713778959
3552219 110 18187089429439074700
4017518 198 17060622208840628927
44426699 302 17677615448876405228
5219985 9 18410851062081936529
5758199 1 7853577920116364983
6081469 158 17632577128217465434
6371380 46 18113336453407387203
9663363 56 18410569587110364234

> <PUBCHEM_SHAPE_MULTIPOLES>
568.35
26.29
3.13
1.21
0.35
5.53
0.01
-13.11
0.29
-0.04
0
-0.01
-0.34
0.16

> <PUBCHEM_SHAPE_SELFOVERLAP>
1198.35

> <PUBCHEM_SHAPE_VOLUME>
318.4

> <PUBCHEM_COORDINATE_TYPE>
2
5
10

$$$$
