136402
  -OEChem-11012401173D

 75 81  0     0  0  0  0  0  0999 V2000
   -1.3454    0.0574   -0.2901 N   0  0  0  0  0  0  0  0  0  0  0  0
    0.6365   -1.1758    0.0919 N   0  0  0  0  0  0  0  0  0  0  0  0
    0.6767    1.1519    0.1754 N   0  0  0  0  0  0  0  0  0  0  0  0
   -1.4238   -2.2253    0.6569 N   0  0  0  0  0  0  0  0  0  0  0  0
   -1.2490    2.4238   -0.6493 N   0  0  0  0  0  0  0  0  0  0  0  0
    2.6713    0.1110   -0.5334 N   0  0  0  0  0  0  0  0  0  0  0  0
   -0.7943   -1.1800    0.1615 C   0  0  0  0  0  0  0  0  0  0  0  0
   -0.6679    1.3128   -0.2515 C   0  0  0  0  0  0  0  0  0  0  0  0
    1.4366   -0.0124   -0.1074 C   0  0  0  0  0  0  0  0  0  0  0  0
   -2.5869    0.0137   -1.0208 C   0  0  0  0  0  0  0  0  0  0  0  0
    1.2909   -2.3872    0.5153 C   0  0  0  0  0  0  0  0  0  0  0  0
    1.2019    2.0656    1.1581 C   0  0  0  0  0  0  0  0  0  0  0  0
   -3.6876    0.8026   -0.6423 C   0  0  0  0  0  0  0  0  0  0  0  0
    1.0979   -3.5904   -0.1866 C   0  0  0  0  0  0  0  0  0  0  0  0
    2.4733    2.6498    1.0348 C   0  0  0  0  0  0  0  0  0  0  0  0
   -2.7143   -0.8262   -2.1424 C   0  0  0  0  0  0  0  0  0  0  0  0
    2.1107   -2.3932    1.6575 C   0  0  0  0  0  0  0  0  0  0  0  0
    0.4284    2.3930    2.2897 C   0  0  0  0  0  0  0  0  0  0  0  0
   -2.7923   -2.2287    0.9538 C   0  0  0  0  0  0  0  0  0  0  0  0
   -0.5405    3.6266   -0.7856 C   0  0  0  0  0  0  0  0  0  0  0  0
    3.4248   -0.9577   -1.0341 C   0  0  0  0  0  0  0  0  0  0  0  0
   -4.8832    0.7444   -1.3600 C   0  0  0  0  0  0  0  0  0  0  0  0
    1.7275   -4.7629    0.2323 C   0  0  0  0  0  0  0  0  0  0  0  0
    2.9510    3.5342    2.0055 C   0  0  0  0  0  0  0  0  0  0  0  0
   -3.9110   -0.8782   -2.8586 C   0  0  0  0  0  0  0  0  0  0  0  0
    2.7352   -3.5697    2.0737 C   0  0  0  0  0  0  0  0  0  0  0  0
    0.9104    3.2744    3.2592 C   0  0  0  0  0  0  0  0  0  0  0  0
   -4.9945   -0.0949   -2.4665 C   0  0  0  0  0  0  0  0  0  0  0  0
    2.5464   -4.7518    1.3599 C   0  0  0  0  0  0  0  0  0  0  0  0
    2.1715    3.8451    3.1165 C   0  0  0  0  0  0  0  0  0  0  0  0
   -3.6494   -3.0980    0.2687 C   0  0  0  0  0  0  0  0  0  0  0  0
   -0.8655    4.7181    0.0285 C   0  0  0  0  0  0  0  0  0  0  0  0
    3.0762   -1.5909   -2.2353 C   0  0  0  0  0  0  0  0  0  0  0  0
   -3.3093   -1.4422    1.9928 C   0  0  0  0  0  0  0  0  0  0  0  0
    0.4422    3.7831   -1.7732 C   0  0  0  0  0  0  0  0  0  0  0  0
    4.6019   -1.3422   -0.3810 C   0  0  0  0  0  0  0  0  0  0  0  0
   -5.0093   -3.1403    0.5790 C   0  0  0  0  0  0  0  0  0  0  0  0
   -0.1864    5.9294   -0.1088 C   0  0  0  0  0  0  0  0  0  0  0  0
    3.8612   -2.6273   -2.7421 C   0  0  0  0  0  0  0  0  0  0  0  0
   -4.6689   -1.4868    2.3035 C   0  0  0  0  0  0  0  0  0  0  0  0
    1.1196    4.9953   -1.9102 C   0  0  0  0  0  0  0  0  0  0  0  0
    5.3856   -2.3797   -0.8880 C   0  0  0  0  0  0  0  0  0  0  0  0
   -5.5195   -2.3315    1.5927 C   0  0  0  0  0  0  0  0  0  0  0  0
    0.8088    6.0664   -1.0747 C   0  0  0  0  0  0  0  0  0  0  0  0
    5.0122   -3.0254   -2.0651 C   0  0  0  0  0  0  0  0  0  0  0  0
   -3.6305    1.4506    0.2289 H   0  0  0  0  0  0  0  0  0  0  0  0
    0.4685   -3.6158   -1.0731 H   0  0  0  0  0  0  0  0  0  0  0  0
    3.0985    2.4611    0.1672 H   0  0  0  0  0  0  0  0  0  0  0  0
   -1.8789   -1.4413   -2.4685 H   0  0  0  0  0  0  0  0  0  0  0  0
    2.2635   -1.4827    2.2323 H   0  0  0  0  0  0  0  0  0  0  0  0
   -0.5568    1.9537    2.4309 H   0  0  0  0  0  0  0  0  0  0  0  0
   -5.7294    1.3518   -1.0526 H   0  0  0  0  0  0  0  0  0  0  0  0
    1.5798   -5.6851   -0.3220 H   0  0  0  0  0  0  0  0  0  0  0  0
    3.9321    3.9858    1.8887 H   0  0  0  0  0  0  0  0  0  0  0  0
   -3.9976   -1.5309   -3.7224 H   0  0  0  0  0  0  0  0  0  0  0  0
    3.3693   -3.5638    2.9555 H   0  0  0  0  0  0  0  0  0  0  0  0
    0.3003    3.5138    4.1252 H   0  0  0  0  0  0  0  0  0  0  0  0
   -5.9259   -0.1388   -3.0233 H   0  0  0  0  0  0  0  0  0  0  0  0
    3.0354   -5.6657    1.6845 H   0  0  0  0  0  0  0  0  0  0  0  0
    2.5460    4.5330    3.8686 H   0  0  0  0  0  0  0  0  0  0  0  0
   -3.2626   -3.7406   -0.5185 H   0  0  0  0  0  0  0  0  0  0  0  0
   -1.6435    4.6264    0.7824 H   0  0  0  0  0  0  0  0  0  0  0  0
    2.1860   -1.2840   -2.7792 H   0  0  0  0  0  0  0  0  0  0  0  0
   -2.6555   -0.7852    2.5612 H   0  0  0  0  0  0  0  0  0  0  0  0
    0.6902    2.9580   -2.4364 H   0  0  0  0  0  0  0  0  0  0  0  0
    4.9090   -0.8412    0.5338 H   0  0  0  0  0  0  0  0  0  0  0  0
   -5.6696   -3.8072    0.0322 H   0  0  0  0  0  0  0  0  0  0  0  0
   -0.4358    6.7669    0.5363 H   0  0  0  0  0  0  0  0  0  0  0  0
    3.5761   -3.1216   -3.6662 H   0  0  0  0  0  0  0  0  0  0  0  0
   -5.0636   -0.8647    3.1014 H   0  0  0  0  0  0  0  0  0  0  0  0
    1.8879    5.1043   -2.6699 H   0  0  0  0  0  0  0  0  0  0  0  0
    6.2892   -2.6813   -0.3662 H   0  0  0  0  0  0  0  0  0  0  0  0
   -6.5777   -2.3656    1.8342 H   0  0  0  0  0  0  0  0  0  0  0  0
    1.3365    7.0095   -1.1812 H   0  0  0  0  0  0  0  0  0  0  0  0
    5.6230   -3.8323   -2.4595 H   0  0  0  0  0  0  0  0  0  0  0  0
  1  7  1  0  0  0  0
  1  8  1  0  0  0  0
  1 10  1  0  0  0  0
  2  7  1  0  0  0  0
  2  9  1  0  0  0  0
  2 11  1  0  0  0  0
  3  8  1  0  0  0  0
  3  9  1  0  0  0  0
  3 12  1  0  0  0  0
  4  7  2  0  0  0  0
  4 19  1  0  0  0  0
  5  8  2  0  0  0  0
  5 20  1  0  0  0  0
  6  9  2  0  0  0  0
  6 21  1  0  0  0  0
 10 13  2  0  0  0  0
 10 16  1  0  0  0  0
 11 14  2  0  0  0  0
 11 17  1  0  0  0  0
 12 15  2  0  0  0  0
 12 18  1  0  0  0  0
 13 22  1  0  0  0  0
 13 46  1  0  0  0  0
 14 23  1  0  0  0  0
 14 47  1  0  0  0  0
 15 24  1  0  0  0  0
 15 48  1  0  0  0  0
 16 25  2  0  0  0  0
 16 49  1  0  0  0  0
 17 26  2  0  0  0  0
 17 50  1  0  0  0  0
 18 27  2  0  0  0  0
 18 51  1  0  0  0  0
 19 31  2  0  0  0  0
 19 34  1  0  0  0  0
 20 32  2  0  0  0  0
 20 35  1  0  0  0  0
 21 33  2  0  0  0  0
 21 36  1  0  0  0  0
 22 28  2  0  0  0  0
 22 52  1  0  0  0  0
 23 29  2  0  0  0  0
 23 53  1  0  0  0  0
 24 30  2  0  0  0  0
 24 54  1  0  0  0  0
 25 28  1  0  0  0  0
 25 55  1  0  0  0  0
 26 29  1  0  0  0  0
 26 56  1  0  0  0  0
 27 30  1  0  0  0  0
 27 57  1  0  0  0  0
 28 58  1  0  0  0  0
 29 59  1  0  0  0  0
 30 60  1  0  0  0  0
 31 37  1  0  0  0  0
 31 61  1  0  0  0  0
 32 38  1  0  0  0  0
 32 62  1  0  0  0  0
 33 39  1  0  0  0  0
 33 63  1  0  0  0  0
 34 40  2  0  0  0  0
 34 64  1  0  0  0  0
 35 41  2  0  0  0  0
 35 65  1  0  0  0  0
 36 42  2  0  0  0  0
 36 66  1  0  0  0  0
 37 43  2  0  0  0  0
 37 67  1  0  0  0  0
 38 44  2  0  0  0  0
 38 68  1  0  0  0  0
 39 45  2  0  0  0  0
 39 69  1  0  0  0  0
 40 43  1  0  0  0  0
 40 70  1  0  0  0  0
 41 44  1  0  0  0  0
 41 71  1  0  0  0  0
 42 45  1  0  0  0  0
 42 72  1  0  0  0  0
 43 73  1  0  0  0  0
 44 74  1  0  0  0  0
 45 75  1  0  0  0  0
M  END
> <PUBCHEM_COMPOUND_CID>
136402

> <PUBCHEM_CONFORMER_RMSD>
1

> <PUBCHEM_CONFORMER_DIVERSEORDER>
2
12
11
3
10
4
8
5
9
7
6
1

> <PUBCHEM_MMFF94_PARTIAL_CHARGES>
75
1 -0.2
10 0.1
11 0.1
12 0.1
13 -0.15
14 -0.15
15 -0.15
16 -0.15
17 -0.15
18 -0.15
19 0.18
2 -0.2
20 0.18
21 0.18
22 -0.15
23 -0.15
24 -0.15
25 -0.15
26 -0.15
27 -0.15
28 -0.15
29 -0.15
3 -0.2
30 -0.15
31 -0.15
32 -0.15
33 -0.15
34 -0.15
35 -0.15
36 -0.15
37 -0.15
38 -0.15
39 -0.15
4 -0.63
40 -0.15
41 -0.15
42 -0.15
43 -0.15
44 -0.15
45 -0.15
46 0.15
47 0.15
48 0.15
49 0.15
5 -0.63
50 0.15
51 0.15
52 0.15
53 0.15
54 0.15
55 0.15
56 0.15
57 0.15
58 0.15
59 0.15
6 -0.63
60 0.15
61 0.15
62 0.15
63 0.15
64 0.15
65 0.15
66 0.15
67 0.15
68 0.15
69 0.15
7 0.55
70 0.15
71 0.15
72 0.15
73 0.15
74 0.15
75 0.15
8 0.55
9 0.55

> <PUBCHEM_EFFECTIVE_ROTOR_COUNT>
6

> <PUBCHEM_PHARMACOPHORE_FEATURES>
10
4 1 2 4 7 cation
4 1 3 5 8 cation
4 2 3 6 9 cation
6 1 2 3 7 8 9 rings
6 10 13 16 22 25 28 rings
6 11 14 17 23 26 29 rings
6 12 15 18 24 27 30 rings
6 19 31 34 37 40 43 rings
6 20 32 35 38 41 44 rings
6 21 33 36 39 42 45 rings

> <PUBCHEM_HEAVY_ATOM_COUNT>
45

> <PUBCHEM_ATOM_DEF_STEREO_COUNT>
0

> <PUBCHEM_ATOM_UDEF_STEREO_COUNT>
0

> <PUBCHEM_BOND_DEF_STEREO_COUNT>
0

> <PUBCHEM_BOND_UDEF_STEREO_COUNT>
0

> <PUBCHEM_ISOTOPIC_ATOM_COUNT>
0

> <PUBCHEM_COMPONENT_COUNT>
1

> <PUBCHEM_CACTVS_TAUTO_COUNT>
1

> <PUBCHEM_CONFORMER_ID>
000214D200000002

> <PUBCHEM_MMFF94_ENERGY>
204.6974

> <PUBCHEM_FEATURE_SELFOVERLAP>
50.857

> <PUBCHEM_SHAPE_FINGERPRINT>
10032420 55 17894633686111059027
12160290 23 17694505840608977251
12788726 201 18050562937531911311
15200665 1 16969425111017939778
15815584 197 18267287893594495610
19315092 285 16557036078309115117
19319366 153 17181928849111491069
21033648 29 17621569020038669521
22182313 1 18191013698339585767
23559900 14 18335418028304252199
469060 322 17973757729869016744
5081480 168 18128835181590420181
70251023 43 18131338705242563983

> <PUBCHEM_SHAPE_MULTIPOLES>
896.19
9.22
8.9
3.02
5.82
10.53
-0.44
-11.41
2.63
-5.65
-1.21
-0.15
0.82
3.4

> <PUBCHEM_SHAPE_SELFOVERLAP>
1993.862

> <PUBCHEM_SHAPE_VOLUME>
461.8

> <PUBCHEM_COORDINATE_TYPE>
2
5
10

$$$$
