13352130
  -OEChem-11012401123D

 34 33  0     0  0  0  0  0  0999 V2000
    1.8740   -1.6796    0.7363 F   0  0  0  0  0  0  0  0  0  0  0  0
   -3.4974   -0.1288   -1.2484 F   0  0  0  0  0  0  0  0  0  0  0  0
    1.4115    1.0755    0.5650 O   0  0  0  0  0  0  0  0  0  0  0  0
   -1.6186    1.1657    0.3726 O   0  0  0  0  0  0  0  0  0  0  0  0
    0.8010    3.4318   -1.2450 O   0  5  0  0  0  0  0  0  0  0  0  0
   -1.2879    3.9830   -0.8211 O   0  0  0  0  0  0  0  0  0  0  0  0
    5.1114   -0.7651    0.7782 O   0  5  0  0  0  0  0  0  0  0  0  0
    3.4645   -0.1692   -1.8891 O   0  5  0  0  0  0  0  0  0  0  0  0
   -4.3296   -1.7080    1.6033 O   0  5  0  0  0  0  0  0  0  0  0  0
   -1.4141   -2.2609    0.4302 O   0  5  0  0  0  0  0  0  0  0  0  0
    4.1451   -2.7345    0.6427 O   0  0  0  0  0  0  0  0  0  0  0  0
    1.7536   -1.5357   -1.6993 O   0  0  0  0  0  0  0  0  0  0  0  0
   -4.9587   -2.0140   -0.4801 O   0  0  0  0  0  0  0  0  0  0  0  0
   -1.6281   -1.6444   -1.6685 O   0  0  0  0  0  0  0  0  0  0  0  0
   -0.0679    2.9804    0.7774 N   0  0  0  0  0  0  0  0  0  0  0  0
   -0.1886    3.5110   -0.5075 N   0  3  0  0  0  0  0  0  0  0  0  0
    4.1298   -1.4973    0.5922 N   0  3  0  0  0  0  0  0  0  0  0  0
    2.6662   -0.8457   -1.2264 N   0  3  0  0  0  0  0  0  0  0  0  0
   -4.2125   -1.5326    0.3827 N   0  3  0  0  0  0  0  0  0  0  0  0
   -1.9459   -1.6007   -0.4727 N   0  3  0  0  0  0  0  0  0  0  0  0
    1.2285    2.3779    1.1278 C   0  0  0  0  0  0  0  0  0  0  0  0
   -1.2045    2.1914    1.2795 C   0  0  0  0  0  0  0  0  0  0  0  0
    2.6875    0.5373    0.8832 C   0  0  0  0  0  0  0  0  0  0  0  0
   -2.6732    0.3797    0.9103 C   0  0  0  0  0  0  0  0  0  0  0  0
    2.8227   -0.8350    0.2658 C   0  0  0  0  0  0  0  0  0  0  0  0
   -3.0686   -0.6823   -0.0891 C   0  0  0  0  0  0  0  0  0  0  0  0
    1.2910    2.2957    2.2209 H   0  0  0  0  0  0  0  0  0  0  0  0
    2.0556    3.0364    0.8309 H   0  0  0  0  0  0  0  0  0  0  0  0
   -2.0530    2.8671    1.4476 H   0  0  0  0  0  0  0  0  0  0  0  0
   -0.9628    1.7504    2.2552 H   0  0  0  0  0  0  0  0  0  0  0  0
    2.7747    0.4638    1.9742 H   0  0  0  0  0  0  0  0  0  0  0  0
    3.4639    1.2205    0.5171 H   0  0  0  0  0  0  0  0  0  0  0  0
   -3.5292    1.0345    1.1150 H   0  0  0  0  0  0  0  0  0  0  0  0
   -2.3402   -0.0642    1.8567 H   0  0  0  0  0  0  0  0  0  0  0  0
  1 25  1  0  0  0  0
  2 26  1  0  0  0  0
  3 21  1  0  0  0  0
  3 23  1  0  0  0  0
  4 22  1  0  0  0  0
  4 24  1  0  0  0  0
  5 16  1  0  0  0  0
  6 16  2  0  0  0  0
  7 17  1  0  0  0  0
  8 18  1  0  0  0  0
  9 19  1  0  0  0  0
 10 20  1  0  0  0  0
 11 17  2  0  0  0  0
 12 18  2  0  0  0  0
 13 19  2  0  0  0  0
 14 20  2  0  0  0  0
 15 16  1  0  0  0  0
 15 21  1  0  0  0  0
 15 22  1  0  0  0  0
 17 25  1  0  0  0  0
 18 25  1  0  0  0  0
 19 26  1  0  0  0  0
 20 26  1  0  0  0  0
 21 27  1  0  0  0  0
 21 28  1  0  0  0  0
 22 29  1  0  0  0  0
 22 30  1  0  0  0  0
 23 25  1  0  0  0  0
 23 31  1  0  0  0  0
 23 32  1  0  0  0  0
 24 26  1  0  0  0  0
 24 33  1  0  0  0  0
 24 34  1  0  0  0  0
M  CHG  8   5  -1   7  -1   8  -1   9  -1  10  -1  16   1  17   1  18   1
M  CHG  2  19   1  20   1
M  END
> <PUBCHEM_COMPOUND_CID>
13352130

> <PUBCHEM_CONFORMER_RMSD>
1

> <PUBCHEM_CONFORMER_DIVERSEORDER>
1
42
49
55
28
56
52
10
12
4
45
14
36
38
47
6
40
54
13
39
23
48
31
15
7
44
53
41
27
35
29
5
3
22
30
9
17
46
37
8
43
33
20
24
2
18
34
26
11
19
32
25
51
21
16
50

> <PUBCHEM_MMFF94_PARTIAL_CHARGES>
26
1 -0.34
10 -0.52
11 -0.52
12 -0.52
13 -0.52
14 -0.52
15 -0.53
16 1.03
17 0.8
18 0.8
19 0.8
2 -0.34
20 0.8
21 0.55
22 0.55
23 0.28
24 0.28
25 0.82
26 0.82
3 -0.56
4 -0.56
5 -0.52
6 -0.52
7 -0.52
8 -0.52
9 -0.52

> <PUBCHEM_EFFECTIVE_ROTOR_COUNT>
13

> <PUBCHEM_PHARMACOPHORE_FEATURES>
16
1 10 acceptor
1 10 anion
1 11 acceptor
1 12 acceptor
1 13 acceptor
1 14 acceptor
1 3 acceptor
1 4 acceptor
1 5 acceptor
1 6 acceptor
1 7 acceptor
1 7 anion
1 8 acceptor
1 8 anion
1 9 acceptor
1 9 anion

> <PUBCHEM_HEAVY_ATOM_COUNT>
26

> <PUBCHEM_ATOM_DEF_STEREO_COUNT>
0

> <PUBCHEM_ATOM_UDEF_STEREO_COUNT>
0

> <PUBCHEM_BOND_DEF_STEREO_COUNT>
0

> <PUBCHEM_BOND_UDEF_STEREO_COUNT>
0

> <PUBCHEM_ISOTOPIC_ATOM_COUNT>
0

> <PUBCHEM_COMPONENT_COUNT>
1

> <PUBCHEM_CACTVS_TAUTO_COUNT>
1

> <PUBCHEM_CONFORMER_ID>
00CBBCC200000001

> <PUBCHEM_MMFF94_ENERGY>
61.476

> <PUBCHEM_FEATURE_SELFOVERLAP>
81.624

> <PUBCHEM_SHAPE_FINGERPRINT>
10688039 33 18335698329942468740
12363563 72 18408887342983590083
12553582 1 18272662250359145430
12633257 1 16988838406103490730
17357779 13 18201141175035681309
1813 80 18341060687117074247
23598288 3 17681013806671623392
3187 122 18341061713783043607
81228 2 18269568143118672816

> <PUBCHEM_SHAPE_MULTIPOLES>
420.2
8.39
4.23
1.49
0
4.33
-0.44
-8.33
1.14
-0.54
-0.49
0.21
0.02
-0.09

> <PUBCHEM_SHAPE_SELFOVERLAP>
840.787

> <PUBCHEM_SHAPE_VOLUME>
246.4

> <PUBCHEM_COORDINATE_TYPE>
2
5
10

$$$$
