5282706
  -OEChem-11012400513D

 15 14  0     0  0  0  0  0  0999 V2000
    2.7075   -0.4960   -0.2432 O   0  0  0  0  0  0  0  0  0  0  0  0
    1.4195    1.3578    0.0376 O   0  0  0  0  0  0  0  0  0  0  0  0
    0.4294   -0.8730    0.1879 C   0  0  0  0  0  0  0  0  0  0  0  0
   -0.8753   -0.1847    0.4463 C   0  0  0  0  0  0  0  0  0  0  0  0
   -1.9558   -0.3171   -0.3368 C   0  0  0  0  0  0  0  0  0  0  0  0
    1.5307    0.1418   -0.0089 C   0  0  0  0  0  0  0  0  0  0  0  0
   -3.2560    0.3711   -0.0829 C   0  0  0  0  0  0  0  0  0  0  0  0
    0.3756   -1.5042   -0.7058 H   0  0  0  0  0  0  0  0  0  0  0  0
    0.6794   -1.4973    1.0521 H   0  0  0  0  0  0  0  0  0  0  0  0
   -0.9347    0.4432    1.3324 H   0  0  0  0  0  0  0  0  0  0  0  0
   -1.9055   -0.9499   -1.2188 H   0  0  0  0  0  0  0  0  0  0  0  0
   -4.0516   -0.3698    0.0405 H   0  0  0  0  0  0  0  0  0  0  0  0
   -3.2275    0.9941    0.8166 H   0  0  0  0  0  0  0  0  0  0  0  0
   -3.5108    1.0112   -0.9330 H   0  0  0  0  0  0  0  0  0  0  0  0
    3.4466    0.1362   -0.3713 H   0  0  0  0  0  0  0  0  0  0  0  0
  1  6  1  0  0  0  0
  1 15  1  0  0  0  0
  2  6  2  0  0  0  0
  3  4  1  0  0  0  0
  3  6  1  0  0  0  0
  3  8  1  0  0  0  0
  3  9  1  0  0  0  0
  4  5  2  0  0  0  0
  4 10  1  0  0  0  0
  5  7  1  0  0  0  0
  5 11  1  0  0  0  0
  7 12  1  0  0  0  0
  7 13  1  0  0  0  0
  7 14  1  0  0  0  0
M  END
> <PUBCHEM_COMPOUND_CID>
5282706

> <PUBCHEM_CONFORMER_RMSD>
0.4

> <PUBCHEM_CONFORMER_DIVERSEORDER>
2
8
7
4
9
6
3
5
1

> <PUBCHEM_MMFF94_PARTIAL_CHARGES>
10
1 -0.65
10 0.15
11 0.15
15 0.5
2 -0.57
3 0.2
4 -0.29
5 -0.29
6 0.66
7 0.14

> <PUBCHEM_EFFECTIVE_ROTOR_COUNT>
2

> <PUBCHEM_PHARMACOPHORE_FEATURES>
4
1 1 acceptor
1 2 acceptor
1 7 hydrophobe
3 1 2 6 anion

> <PUBCHEM_HEAVY_ATOM_COUNT>
7

> <PUBCHEM_ATOM_DEF_STEREO_COUNT>
0

> <PUBCHEM_ATOM_UDEF_STEREO_COUNT>
0

> <PUBCHEM_BOND_DEF_STEREO_COUNT>
1

> <PUBCHEM_BOND_UDEF_STEREO_COUNT>
0

> <PUBCHEM_ISOTOPIC_ATOM_COUNT>
0

> <PUBCHEM_COMPONENT_COUNT>
1

> <PUBCHEM_CACTVS_TAUTO_COUNT>
1

> <PUBCHEM_CONFORMER_ID>
00509B9200000002

> <PUBCHEM_MMFF94_ENERGY>
0.9281

> <PUBCHEM_FEATURE_SELFOVERLAP>
20.354

> <PUBCHEM_SHAPE_FINGERPRINT>
10857977 72 16298673862669567121
11062470 55 13901904501328663547
12932764 1 17603576439809432875
14325111 11 18409448119915661203
14390081 3 18334852831734866285
20096714 4 18335982068351159122
21040471 1 18190461747522960018
29004967 10 18413394224140164586
5460574 1 10519985967612108339

> <PUBCHEM_SHAPE_MULTIPOLES>
132.32
4.35
0.98
0.65
1.68
0.18
-0.01
0.44
0.47
-0.33
-0.02
0.09
-0.03
0.03

> <PUBCHEM_SHAPE_SELFOVERLAP>
241.542

> <PUBCHEM_SHAPE_VOLUME>
84.3

> <PUBCHEM_COORDINATE_TYPE>
2
5
10

$$$$
