3053999
  -OEChem-11012400423D

 29 31  0     0  0  0  0  0  0999 V2000
    0.7563   -1.3974    0.0010 O   0  0  0  0  0  0  0  0  0  0  0  0
    0.7025    0.6455   -1.1898 O   0  0  0  0  0  0  0  0  0  0  0  0
    0.7040    0.6448    1.1914 O   0  0  0  0  0  0  0  0  0  0  0  0
    2.7345    0.0217   -0.0006 C   0  0  0  0  0  0  0  0  0  0  0  0
    2.1902   -1.4166   -0.0004 C   0  0  0  0  0  0  0  0  0  0  0  0
    2.1339    0.7179   -1.2336 C   0  0  0  0  0  0  0  0  0  0  0  0
    2.1354    0.7177    1.2332 C   0  0  0  0  0  0  0  0  0  0  0  0
    0.2705   -0.0427    0.0009 C   0  0  0  0  0  0  0  0  0  0  0  0
    4.2557    0.0621   -0.0014 C   0  0  0  0  0  0  0  0  0  0  0  0
   -1.2486   -0.0163    0.0001 C   0  0  0  0  0  0  0  0  0  0  0  0
   -1.9715   -1.2120   -0.0002 C   0  0  0  0  0  0  0  0  0  0  0  0
   -1.9297    1.2037    0.0003 C   0  0  0  0  0  0  0  0  0  0  0  0
   -3.3662   -1.1879   -0.0006 C   0  0  0  0  0  0  0  0  0  0  0  0
   -3.3244    1.2277    0.0001 C   0  0  0  0  0  0  0  0  0  0  0  0
   -4.0425    0.0319   -0.0005 C   0  0  0  0  0  0  0  0  0  0  0  0
    2.5185   -1.9730   -0.8853 H   0  0  0  0  0  0  0  0  0  0  0  0
    2.5201   -1.9734    0.8837 H   0  0  0  0  0  0  0  0  0  0  0  0
    2.4163    1.7757   -1.2775 H   0  0  0  0  0  0  0  0  0  0  0  0
    2.4660    0.2464   -2.1652 H   0  0  0  0  0  0  0  0  0  0  0  0
    2.4688    0.2463    2.1644 H   0  0  0  0  0  0  0  0  0  0  0  0
    2.4175    1.7755    1.2769 H   0  0  0  0  0  0  0  0  0  0  0  0
    4.6640   -0.4383    0.8833 H   0  0  0  0  0  0  0  0  0  0  0  0
    4.6630   -0.4381   -0.8867 H   0  0  0  0  0  0  0  0  0  0  0  0
    4.6228    1.0942   -0.0015 H   0  0  0  0  0  0  0  0  0  0  0  0
   -1.4813   -2.1810   -0.0002 H   0  0  0  0  0  0  0  0  0  0  0  0
   -1.3839    2.1437    0.0007 H   0  0  0  0  0  0  0  0  0  0  0  0
   -3.9259   -2.1187   -0.0009 H   0  0  0  0  0  0  0  0  0  0  0  0
   -3.8513    2.1774    0.0002 H   0  0  0  0  0  0  0  0  0  0  0  0
   -5.1284    0.0506   -0.0007 H   0  0  0  0  0  0  0  0  0  0  0  0
  1  5  1  0  0  0  0
  1  8  1  0  0  0  0
  2  6  1  0  0  0  0
  2  8  1  0  0  0  0
  3  7  1  0  0  0  0
  3  8  1  0  0  0  0
  4  5  1  0  0  0  0
  4  6  1  0  0  0  0
  4  7  1  0  0  0  0
  4  9  1  0  0  0  0
  5 16  1  0  0  0  0
  5 17  1  0  0  0  0
  6 18  1  0  0  0  0
  6 19  1  0  0  0  0
  7 20  1  0  0  0  0
  7 21  1  0  0  0  0
  8 10  1  0  0  0  0
  9 22  1  0  0  0  0
  9 23  1  0  0  0  0
  9 24  1  0  0  0  0
 10 11  2  0  0  0  0
 10 12  1  0  0  0  0
 11 13  1  0  0  0  0
 11 25  1  0  0  0  0
 12 14  2  0  0  0  0
 12 26  1  0  0  0  0
 13 15  2  0  0  0  0
 13 27  1  0  0  0  0
 14 15  1  0  0  0  0
 14 28  1  0  0  0  0
 15 29  1  0  0  0  0
M  END
> <PUBCHEM_COMPOUND_CID>
3053999

> <PUBCHEM_CONFORMER_RMSD>
0.6

> <PUBCHEM_CONFORMER_DIVERSEORDER>
1

> <PUBCHEM_MMFF94_PARTIAL_CHARGES>
18
1 -0.56
10 -0.14
11 -0.15
12 -0.15
13 -0.15
14 -0.15
15 -0.15
2 -0.56
25 0.15
26 0.15
27 0.15
28 0.15
29 0.15
3 -0.56
5 0.28
6 0.28
7 0.28
8 0.98

> <PUBCHEM_EFFECTIVE_ROTOR_COUNT>
2.2

> <PUBCHEM_PHARMACOPHORE_FEATURES>
5
1 1 acceptor
1 2 acceptor
1 3 acceptor
6 10 11 12 13 14 15 rings
8 1 2 3 4 5 6 7 8 rings

> <PUBCHEM_HEAVY_ATOM_COUNT>
15

> <PUBCHEM_ATOM_DEF_STEREO_COUNT>
0

> <PUBCHEM_ATOM_UDEF_STEREO_COUNT>
0

> <PUBCHEM_BOND_DEF_STEREO_COUNT>
0

> <PUBCHEM_BOND_UDEF_STEREO_COUNT>
0

> <PUBCHEM_ISOTOPIC_ATOM_COUNT>
0

> <PUBCHEM_COMPONENT_COUNT>
1

> <PUBCHEM_CACTVS_TAUTO_COUNT>
1

> <PUBCHEM_CONFORMER_ID>
002E99AF00000001

> <PUBCHEM_MMFF94_ENERGY>
48.8104

> <PUBCHEM_FEATURE_SELFOVERLAP>
25.482

> <PUBCHEM_SHAPE_FINGERPRINT>
10219947 1 17676488341396864678
10465860 250 18059851740744036376
10608611 8 18343294864664483793
11132069 177 18333445452160791309
12236239 1 17676487254833539693
124424 183 17917707980931954736
12500047 106 18411974737601615949
12932764 1 17988922292838752535
13134695 92 16558744594898441128
13296908 3 17703792522102223639
13571099 22 18201722803975757550
13581323 91 18410008840738766939
14115302 16 18411708689762375733
14144814 61 18187083944881388077
14325111 11 18410856546802366947
14344429 50 17989205962586014408
14993402 34 17749390386150643662
15219456 202 17917140701646419489
15309172 13 13984666940685427665
15653759 3 18272930535565221193
15775835 57 18343866610647409159
16945 1 18338797921951331879
18175812 5 17917708041251543885
18186145 218 17917999373098980233
19422 9 17967537895289938495
200 152 18409720790568222007
20201158 50 17775568628347188735
20233049 118 18343018878655763032
20279233 1 17632298977703431271
20645477 70 17988361451424545983
21267235 1 18335149695437162095
21501502 16 18338795602858993667
23402539 116 17967525779065740918
23402655 69 18200867371382205597
23463225 33 18261110738206054639
23557571 272 18202006516704496749
23559900 14 18200593597418915534
296302 2 17917711305336888128
3248919 1 18040434416910862635
474 4 16807022158655119340
5104073 3 18411138004741829091
528886 8 18186803577964113254
53812653 166 18272929423089511770
57812782 119 18059853969541931821
69090 78 18131343120927957911
7364860 26 18264773344572016036
74978 22 16877949381497875875
77492 1 17676204688861289321
9709674 26 18411143536660231663

> <PUBCHEM_SHAPE_MULTIPOLES>
291.09
6.86
1.37
0.96
1.3
0.25
0
-0.08
0
0.5
0
-0.56
-0.25
0

> <PUBCHEM_SHAPE_SELFOVERLAP>
634.322

> <PUBCHEM_SHAPE_VOLUME>
154.5

> <PUBCHEM_COORDINATE_TYPE>
2
5
10

$$$$
