87004
  -OEChem-11012400363D

 38 39  0     0  0  0  0  0  0999 V2000
    0.4348   -1.6222    1.7477 O   0  5  0  0  0  0  0  0  0  0  0  0
   -0.4348   -1.6232   -1.7469 O   0  5  0  0  0  0  0  0  0  0  0  0
   -1.5135   -2.3839    2.4131 O   0  0  0  0  0  0  0  0  0  0  0  0
    1.5135   -2.3852   -2.4118 O   0  0  0  0  0  0  0  0  0  0  0  0
   -1.2910    2.5815   -2.5553 O   0  5  0  0  0  0  0  0  0  0  0  0
    1.2910    2.5828    2.5539 O   0  5  0  0  0  0  0  0  0  0  0  0
    0.5984    1.8402   -1.7186 O   0  0  0  0  0  0  0  0  0  0  0  0
   -0.5984    1.8412    1.7177 O   0  0  0  0  0  0  0  0  0  0  0  0
   -5.4686    0.9154   -1.0960 O   0  5  0  0  0  0  0  0  0  0  0  0
    5.4687    0.9160    1.0955 O   0  5  0  0  0  0  0  0  0  0  0  0
   -5.6032   -0.6354    0.4518 O   0  0  0  0  0  0  0  0  0  0  0  0
    5.6032   -0.6357   -0.4514 O   0  0  0  0  0  0  0  0  0  0  0  0
   -0.8146   -1.6347    1.6959 N   0  3  0  0  0  0  0  0  0  0  0  0
    0.8147   -1.6356   -1.6950 N   0  3  0  0  0  0  0  0  0  0  0  0
   -0.6528    1.8358   -1.7773 N   0  3  0  0  0  0  0  0  0  0  0  0
    0.6527    1.8368    1.7763 N   0  3  0  0  0  0  0  0  0  0  0  0
   -3.6229   -1.6180    1.5335 N   0  0  0  0  0  0  0  0  0  0  0  0
    3.6229   -1.6188   -1.5326 N   0  0  0  0  0  0  0  0  0  0  0  0
   -4.9330    0.1289   -0.2808 N   0  3  0  0  0  0  0  0  0  0  0  0
    4.9330    0.1291    0.2807 N   0  3  0  0  0  0  0  0  0  0  0  0
   -0.7272    0.0951   -0.0373 C   0  0  0  0  0  0  0  0  0  0  0  0
    0.7272    0.0951    0.0373 C   0  0  0  0  0  0  0  0  0  0  0  0
   -1.4708   -0.7566    0.7798 C   0  0  0  0  0  0  0  0  0  0  0  0
    1.4708   -0.7570   -0.7795 C   0  0  0  0  0  0  0  0  0  0  0  0
   -1.3764    0.9504   -0.9276 C   0  0  0  0  0  0  0  0  0  0  0  0
    1.3764    0.9508    0.9271 C   0  0  0  0  0  0  0  0  0  0  0  0
   -2.8638   -0.7529    0.7065 C   0  0  0  0  0  0  0  0  0  0  0  0
    2.8638   -0.7532   -0.7061 C   0  0  0  0  0  0  0  0  0  0  0  0
   -3.5130    0.1024   -0.1839 C   0  0  0  0  0  0  0  0  0  0  0  0
    3.5130    0.1026    0.1838 C   0  0  0  0  0  0  0  0  0  0  0  0
   -2.7693    0.9540   -1.0008 C   0  0  0  0  0  0  0  0  0  0  0  0
    2.7693    0.9545    1.0003 C   0  0  0  0  0  0  0  0  0  0  0  0
   -3.2770    1.6203   -1.6942 H   0  0  0  0  0  0  0  0  0  0  0  0
    3.2770    1.6212    1.6933 H   0  0  0  0  0  0  0  0  0  0  0  0
   -4.6307   -1.6261    1.4960 H   0  0  0  0  0  0  0  0  0  0  0  0
   -3.1881   -2.2480    2.1889 H   0  0  0  0  0  0  0  0  0  0  0  0
    4.6308   -1.6268   -1.4953 H   0  0  0  0  0  0  0  0  0  0  0  0
    3.1882   -2.2490   -2.1879 H   0  0  0  0  0  0  0  0  0  0  0  0
  1 13  1  0  0  0  0
  2 14  1  0  0  0  0
  3 13  2  0  0  0  0
  4 14  2  0  0  0  0
  5 15  1  0  0  0  0
  6 16  1  0  0  0  0
  7 15  2  0  0  0  0
  8 16  2  0  0  0  0
  9 19  1  0  0  0  0
 10 20  1  0  0  0  0
 11 19  2  0  0  0  0
 12 20  2  0  0  0  0
 13 23  1  0  0  0  0
 14 24  1  0  0  0  0
 15 25  1  0  0  0  0
 16 26  1  0  0  0  0
 17 27  1  0  0  0  0
 17 35  1  0  0  0  0
 17 36  1  0  0  0  0
 18 28  1  0  0  0  0
 18 37  1  0  0  0  0
 18 38  1  0  0  0  0
 19 29  1  0  0  0  0
 20 30  1  0  0  0  0
 21 22  1  0  0  0  0
 21 23  2  0  0  0  0
 21 25  1  0  0  0  0
 22 24  2  0  0  0  0
 22 26  1  0  0  0  0
 23 27  1  0  0  0  0
 24 28  1  0  0  0  0
 25 31  2  0  0  0  0
 26 32  2  0  0  0  0
 27 29  2  0  0  0  0
 28 30  2  0  0  0  0
 29 31  1  0  0  0  0
 30 32  1  0  0  0  0
 31 33  1  0  0  0  0
 32 34  1  0  0  0  0
M  CHG  8   1  -1   2  -1   5  -1   6  -1   9  -1  10  -1  13   1  14   1
M  CHG  4  15   1  16   1  19   1  20   1
M  END
> <PUBCHEM_COMPOUND_CID>
87004

> <PUBCHEM_CONFORMER_RMSD>
1

> <PUBCHEM_CONFORMER_DIVERSEORDER>
1
2

> <PUBCHEM_MMFF94_PARTIAL_CHARGES>
36
1 -0.52
10 -0.52
11 -0.52
12 -0.52
13 0.91
14 0.91
15 0.91
16 0.91
17 -0.9
18 -0.9
19 0.91
2 -0.52
20 0.91
23 0.13
24 0.13
25 0.13
26 0.13
27 0.1
28 0.1
29 0.13
3 -0.52
30 0.13
31 -0.15
32 -0.15
33 0.15
34 0.15
35 0.4
36 0.4
37 0.4
38 0.4
4 -0.52
5 -0.52
6 -0.52
7 -0.52
8 -0.52
9 -0.52

> <PUBCHEM_EFFECTIVE_ROTOR_COUNT>
7

> <PUBCHEM_PHARMACOPHORE_FEATURES>
24
1 1 acceptor
1 1 anion
1 10 acceptor
1 10 anion
1 11 acceptor
1 12 acceptor
1 17 cation
1 17 donor
1 18 cation
1 18 donor
1 2 acceptor
1 2 anion
1 3 acceptor
1 4 acceptor
1 5 acceptor
1 5 anion
1 6 acceptor
1 6 anion
1 7 acceptor
1 8 acceptor
1 9 acceptor
1 9 anion
6 21 23 25 27 29 31 rings
6 22 24 26 28 30 32 rings

> <PUBCHEM_HEAVY_ATOM_COUNT>
32

> <PUBCHEM_ATOM_DEF_STEREO_COUNT>
0

> <PUBCHEM_ATOM_UDEF_STEREO_COUNT>
0

> <PUBCHEM_BOND_DEF_STEREO_COUNT>
0

> <PUBCHEM_BOND_UDEF_STEREO_COUNT>
0

> <PUBCHEM_ISOTOPIC_ATOM_COUNT>
0

> <PUBCHEM_COMPONENT_COUNT>
1

> <PUBCHEM_CACTVS_TAUTO_COUNT>
1

> <PUBCHEM_CONFORMER_ID>
000153DC00000001

> <PUBCHEM_MMFF94_ENERGY>
205.9144

> <PUBCHEM_FEATURE_SELFOVERLAP>
122.31

> <PUBCHEM_SHAPE_FINGERPRINT>
10863032 1 17678724645084616468
11578080 2 18050293565610004413
11582403 64 17185807087961755085
12035758 1 18335142033041121529
12592029 89 17988639675353684182
12788726 201 17676486099334785100
13140716 1 17676780885069026905
13583140 156 18189595238688676472
13911987 19 18060146483249569612
14790565 3 17704076226531679680
16945 1 18410855464423129094
19930381 70 17845937320980094054
20600515 1 17895196627352551005
20691752 17 17750529377281386637
229495 10 16629120940703897412
23175994 123 18272936033134266992
23402539 116 18040991864884681327
23419403 2 18267876166385100176
23557571 272 18260831445352435612
23559900 14 17968672548926024614
3380486 145 18199762477612125795
350125 39 17486482990899541446
404807 14 16599266838242952298
4340502 62 18040710351422128690

> <PUBCHEM_SHAPE_MULTIPOLES>
548.27
8.74
2.32
2.32
0
0.22
0
-0.55
0
0
0
0
0.13
2.38

> <PUBCHEM_SHAPE_SELFOVERLAP>
1229.965

> <PUBCHEM_SHAPE_VOLUME>
286.1

> <PUBCHEM_COORDINATE_TYPE>
2
5
10

$$$$
