6516
  -OEChem-11012401133D

 30 29  0     0  0  0  0  0  0999 V2000
   -0.0001    0.2712    0.1766 Si  0  0  0  0  0  0  0  0  0  0  0  0
   -1.3573    0.4646   -0.7915 O   0  0  0  0  0  0  0  0  0  0  0  0
    1.3571    0.4577   -0.7928 O   0  0  0  0  0  0  0  0  0  0  0  0
   -0.0037   -1.2746    0.8292 O   0  0  0  0  0  0  0  0  0  0  0  0
    0.0051    1.5195    1.5236 C   0  0  0  0  0  0  0  0  0  0  0  0
   -2.6528    0.3453   -0.2203 C   0  0  0  0  0  0  0  0  0  0  0  0
    2.6526    0.3307   -0.2229 C   0  0  0  0  0  0  0  0  0  0  0  0
   -0.0081   -2.4000   -0.0382 C   0  0  0  0  0  0  0  0  0  0  0  0
   -3.6902    0.5625   -1.3013 C   0  0  0  0  0  0  0  0  0  0  0  0
    3.6901    0.5427   -1.3047 C   0  0  0  0  0  0  0  0  0  0  0  0
   -0.0106   -3.6643    0.7945 C   0  0  0  0  0  0  0  0  0  0  0  0
    0.0178    2.8447    1.3478 C   0  0  0  0  0  0  0  0  0  0  0  0
   -0.0030    1.1195    2.5322 H   0  0  0  0  0  0  0  0  0  0  0  0
   -2.7885   -0.6531    0.2131 H   0  0  0  0  0  0  0  0  0  0  0  0
   -2.7962    1.0956    0.5666 H   0  0  0  0  0  0  0  0  0  0  0  0
    2.8012    1.0795    0.5644 H   0  0  0  0  0  0  0  0  0  0  0  0
    2.7829   -0.6689    0.2097 H   0  0  0  0  0  0  0  0  0  0  0  0
   -0.9010   -2.3880   -0.6753 H   0  0  0  0  0  0  0  0  0  0  0  0
    0.8831   -2.3931   -0.6776 H   0  0  0  0  0  0  0  0  0  0  0  0
   -4.7021    0.4773   -0.8953 H   0  0  0  0  0  0  0  0  0  0  0  0
   -3.5739    1.5526   -1.7545 H   0  0  0  0  0  0  0  0  0  0  0  0
   -3.5693   -0.1716   -2.1048 H   0  0  0  0  0  0  0  0  0  0  0  0
    4.7019    0.4514   -0.8996 H   0  0  0  0  0  0  0  0  0  0  0  0
    3.5643   -0.1900   -2.1087 H   0  0  0  0  0  0  0  0  0  0  0  0
    3.5790    1.5338   -1.7570 H   0  0  0  0  0  0  0  0  0  0  0  0
   -0.0139   -4.5528    0.1569 H   0  0  0  0  0  0  0  0  0  0  0  0
    0.8698   -3.6996    1.4447 H   0  0  0  0  0  0  0  0  0  0  0  0
   -0.8896   -3.6946    1.4470 H   0  0  0  0  0  0  0  0  0  0  0  0
    0.0199    3.5081    2.2065 H   0  0  0  0  0  0  0  0  0  0  0  0
    0.0263    3.3000    0.3628 H   0  0  0  0  0  0  0  0  0  0  0  0
  1  2  1  0  0  0  0
  1  3  1  0  0  0  0
  1  4  1  0  0  0  0
  1  5  1  0  0  0  0
  2  6  1  0  0  0  0
  3  7  1  0  0  0  0
  4  8  1  0  0  0  0
  5 12  2  0  0  0  0
  5 13  1  0  0  0  0
  6  9  1  0  0  0  0
  6 14  1  0  0  0  0
  6 15  1  0  0  0  0
  7 10  1  0  0  0  0
  7 16  1  0  0  0  0
  7 17  1  0  0  0  0
  8 11  1  0  0  0  0
  8 18  1  0  0  0  0
  8 19  1  0  0  0  0
  9 20  1  0  0  0  0
  9 21  1  0  0  0  0
  9 22  1  0  0  0  0
 10 23  1  0  0  0  0
 10 24  1  0  0  0  0
 10 25  1  0  0  0  0
 11 26  1  0  0  0  0
 11 27  1  0  0  0  0
 11 28  1  0  0  0  0
 12 29  1  0  0  0  0
 12 30  1  0  0  0  0
M  END
> <PUBCHEM_COMPOUND_CID>
6516

> <PUBCHEM_CONFORMER_RMSD>
0.8

> <PUBCHEM_CONFORMER_DIVERSEORDER>
1
9
3
8
5
10
4
6
2
7

> <PUBCHEM_MMFF94_PARTIAL_CHARGES>
12
1 1.12
12 -0.3
13 0.15
2 -0.58
29 0.15
3 -0.58
30 0.15
4 -0.58
5 -0.38
6 0.28
7 0.28
8 0.28

> <PUBCHEM_EFFECTIVE_ROTOR_COUNT>
7

> <PUBCHEM_PHARMACOPHORE_FEATURES>
0

> <PUBCHEM_HEAVY_ATOM_COUNT>
12

> <PUBCHEM_ATOM_DEF_STEREO_COUNT>
0

> <PUBCHEM_ATOM_UDEF_STEREO_COUNT>
0

> <PUBCHEM_BOND_DEF_STEREO_COUNT>
0

> <PUBCHEM_BOND_UDEF_STEREO_COUNT>
0

> <PUBCHEM_ISOTOPIC_ATOM_COUNT>
0

> <PUBCHEM_COMPONENT_COUNT>
1

> <PUBCHEM_CACTVS_TAUTO_COUNT>
1

> <PUBCHEM_CONFORMER_ID>
0000197400000001

> <PUBCHEM_MMFF94_ENERGY>
6.0874

> <PUBCHEM_FEATURE_SELFOVERLAP>
0

> <PUBCHEM_SHAPE_FINGERPRINT>
12423570 1 12665212399786634225
13380536 167 17694504741218961241
13380536 261 18055915394263476576
13380536 55 17835821698061803096
14817 1 9898322376439929280
14943834 7 17693381035892622856
15279308 132 18338789134458702905
16945 1 18334857216416518620
18186145 218 18411421725854864852
187816 3 18342742918459355948
20511035 2 17049317219314812640
20711985 344 17611175344794206666
22112679 90 17558261030196034601
22802520 49 17620191370254005551
228727 97 18200880560715100928
23382010 3 18265326386014468509
23402539 116 18130515145543280020
23419403 2 17697609040369211920
23526113 38 18272368710814025668
23552423 10 17978510828040444163
23559900 14 18341617070857109188
2748010 2 17184750736470944567
298252 57 17530963609305157748
3250762 1 17764585821224341456
4369600 1 18272925012205707889
68419 9 17553768360827954632
76951 1 18129359575521997001
81228 2 17469874945530410067

> <PUBCHEM_SHAPE_MULTIPOLES>
247.56
4.3
3.31
1.45
0
3.14
0.07
-1.57
-3.52
0.01
2.1
-0.01
-0.57
0.02

> <PUBCHEM_SHAPE_SELFOVERLAP>
441.518

> <PUBCHEM_SHAPE_VOLUME>
160.8

> <PUBCHEM_COORDINATE_TYPE>
2
5
10

$$$$
