123480
  -OEChem-11012401123D

 25 24  0     0  0  0  0  0  0999 V2000
    0.8887    0.5874    0.1083 N   0  0  0  0  0  0  0  0  0  0  0  0
   -0.2481   -0.2319   -0.2944 C   0  0  0  0  0  0  0  0  0  0  0  0
    2.1424   -0.0191   -0.3168 C   0  0  0  0  0  0  0  0  0  0  0  0
   -1.5552    0.4105    0.1671 C   0  0  0  0  0  0  0  0  0  0  0  0
   -2.7628   -0.4227   -0.2640 C   0  0  0  0  0  0  0  0  0  0  0  0
    2.2968   -1.4047    0.3037 C   0  0  0  0  0  0  0  0  0  0  0  0
    3.3041    0.8890    0.0741 C   0  0  0  0  0  0  0  0  0  0  0  0
   -4.0659    0.1916    0.2220 C   0  0  0  0  0  0  0  0  0  0  0  0
   -0.2134   -1.2268    0.1600 H   0  0  0  0  0  0  0  0  0  0  0  0
   -0.2647   -0.3531   -1.3844 H   0  0  0  0  0  0  0  0  0  0  0  0
    2.1575   -0.1179   -1.4099 H   0  0  0  0  0  0  0  0  0  0  0  0
   -1.6436    1.4207   -0.2524 H   0  0  0  0  0  0  0  0  0  0  0  0
   -1.5518    0.5141    1.2597 H   0  0  0  0  0  0  0  0  0  0  0  0
    0.8001    1.5199   -0.2945 H   0  0  0  0  0  0  0  0  0  0  0  0
   -2.6766   -1.4399    0.1355 H   0  0  0  0  0  0  0  0  0  0  0  0
   -2.7881   -0.5043   -1.3569 H   0  0  0  0  0  0  0  0  0  0  0  0
    3.3212   -1.7704    0.1650 H   0  0  0  0  0  0  0  0  0  0  0  0
    2.1016   -1.3932    1.3822 H   0  0  0  0  0  0  0  0  0  0  0  0
    1.6446   -2.1487   -0.1644 H   0  0  0  0  0  0  0  0  0  0  0  0
    3.2039    1.8783   -0.3864 H   0  0  0  0  0  0  0  0  0  0  0  0
    4.2573    0.4650   -0.2598 H   0  0  0  0  0  0  0  0  0  0  0  0
    3.3594    1.0250    1.1602 H   0  0  0  0  0  0  0  0  0  0  0  0
   -4.9156   -0.4193   -0.0983 H   0  0  0  0  0  0  0  0  0  0  0  0
   -4.0862    0.2554    1.3146 H   0  0  0  0  0  0  0  0  0  0  0  0
   -4.1999    1.1993   -0.1840 H   0  0  0  0  0  0  0  0  0  0  0  0
  1  2  1  0  0  0  0
  1  3  1  0  0  0  0
  1 14  1  0  0  0  0
  2  4  1  0  0  0  0
  2  9  1  0  0  0  0
  2 10  1  0  0  0  0
  3  6  1  0  0  0  0
  3  7  1  0  0  0  0
  3 11  1  0  0  0  0
  4  5  1  0  0  0  0
  4 12  1  0  0  0  0
  4 13  1  0  0  0  0
  5  8  1  0  0  0  0
  5 15  1  0  0  0  0
  5 16  1  0  0  0  0
  6 17  1  0  0  0  0
  6 18  1  0  0  0  0
  6 19  1  0  0  0  0
  7 20  1  0  0  0  0
  7 21  1  0  0  0  0
  7 22  1  0  0  0  0
  8 23  1  0  0  0  0
  8 24  1  0  0  0  0
  8 25  1  0  0  0  0
M  END
> <PUBCHEM_COMPOUND_CID>
123480

> <PUBCHEM_CONFORMER_RMSD>
0.6

> <PUBCHEM_CONFORMER_DIVERSEORDER>
1
13
24
10
26
23
19
22
27
3
25
20
14
9
21
16
5
6
7
12
8
11
2
18
17
4
15

> <PUBCHEM_MMFF94_PARTIAL_CHARGES>
4
1 -0.9
14 0.36
2 0.27
3 0.27

> <PUBCHEM_EFFECTIVE_ROTOR_COUNT>
4

> <PUBCHEM_PHARMACOPHORE_FEATURES>
4
1 1 cation
1 1 donor
1 8 hydrophobe
3 3 6 7 hydrophobe

> <PUBCHEM_HEAVY_ATOM_COUNT>
8

> <PUBCHEM_ATOM_DEF_STEREO_COUNT>
0

> <PUBCHEM_ATOM_UDEF_STEREO_COUNT>
0

> <PUBCHEM_BOND_DEF_STEREO_COUNT>
0

> <PUBCHEM_BOND_UDEF_STEREO_COUNT>
0

> <PUBCHEM_ISOTOPIC_ATOM_COUNT>
0

> <PUBCHEM_COMPONENT_COUNT>
1

> <PUBCHEM_CACTVS_TAUTO_COUNT>
1

> <PUBCHEM_CONFORMER_ID>
0001E25800000001

> <PUBCHEM_MMFF94_ENERGY>
-5.0569

> <PUBCHEM_FEATURE_SELFOVERLAP>
20.297

> <PUBCHEM_SHAPE_FINGERPRINT>
11062470 55 18413108372665528277
12932764 1 17917700310283998301
14325111 11 18410855456144476367
170605 34 18343022228941107404
20645477 70 18337103463185994223
20871998 22 18053663573618994326
22485316 2 18407755950335886263
23552333 60 18342738490500885746
3248919 1 17095532785353429525
5460574 1 8646773291568263181

> <PUBCHEM_SHAPE_MULTIPOLES>
159.66
6.8
1.05
0.66
3.84
0.24
-0.01
-0.54
0.42
-0.84
0.08
0.01
0.02
-0.16

> <PUBCHEM_SHAPE_SELFOVERLAP>
277.223

> <PUBCHEM_SHAPE_VOLUME>
107.5

> <PUBCHEM_COORDINATE_TYPE>
2
5
10

$$$$
