7390
  -OEChem-11012401113D

 27 27  0     0  0  0  0  0  0999 V2000
   -1.9520   -0.0017    0.0000 C   0  0  0  0  0  0  0  0  0  0  0  0
   -0.4143   -0.0034   -0.0001 C   0  0  0  0  0  0  0  0  0  0  0  0
   -2.4706    0.7259   -1.2593 C   0  0  0  0  0  0  0  0  0  0  0  0
   -2.4709    0.7280    1.2579 C   0  0  0  0  0  0  0  0  0  0  0  0
   -2.5787   -1.4145    0.0012 C   0  0  0  0  0  0  0  0  0  0  0  0
    0.2382    1.2038    0.0000 C   0  0  0  0  0  0  0  0  0  0  0  0
    0.2354   -1.2121    0.0000 C   0  0  0  0  0  0  0  0  0  0  0  0
    2.3291   -0.0065    0.0002 C   0  0  0  0  0  0  0  0  0  0  0  0
    1.6330    1.2023    0.0000 C   0  0  0  0  0  0  0  0  0  0  0  0
    1.6303   -1.2136    0.0000 C   0  0  0  0  0  0  0  0  0  0  0  0
    3.8205   -0.0081   -0.0001 C   0  0  0  0  0  0  0  0  0  0  0  0
   -3.5659    0.7032   -1.3049 H   0  0  0  0  0  0  0  0  0  0  0  0
   -2.1737    1.7800   -1.2854 H   0  0  0  0  0  0  0  0  0  0  0  0
   -2.0900    0.2538   -2.1728 H   0  0  0  0  0  0  0  0  0  0  0  0
   -2.1744    1.7823    1.2821 H   0  0  0  0  0  0  0  0  0  0  0  0
   -3.5661    0.7050    1.3036 H   0  0  0  0  0  0  0  0  0  0  0  0
   -2.0900    0.2577    2.1723 H   0  0  0  0  0  0  0  0  0  0  0  0
   -3.6742   -1.3536    0.0015 H   0  0  0  0  0  0  0  0  0  0  0  0
   -2.2984   -1.9889   -0.8897 H   0  0  0  0  0  0  0  0  0  0  0  0
   -2.2979   -1.9874    0.8929 H   0  0  0  0  0  0  0  0  0  0  0  0
   -0.2819    2.1555    0.0003 H   0  0  0  0  0  0  0  0  0  0  0  0
   -0.2552   -2.1769    0.0004 H   0  0  0  0  0  0  0  0  0  0  0  0
    2.1664    2.1492    0.0018 H   0  0  0  0  0  0  0  0  0  0  0  0
    2.1621   -2.1616    0.0018 H   0  0  0  0  0  0  0  0  0  0  0  0
    4.2146   -0.8889   -0.5183 H   0  0  0  0  0  0  0  0  0  0  0  0
    4.2165    0.8720   -0.5182 H   0  0  0  0  0  0  0  0  0  0  0  0
    4.1963   -0.0086    1.0279 H   0  0  0  0  0  0  0  0  0  0  0  0
  1  2  1  0  0  0  0
  1  3  1  0  0  0  0
  1  4  1  0  0  0  0
  1  5  1  0  0  0  0
  2  6  2  0  0  0  0
  2  7  1  0  0  0  0
  3 12  1  0  0  0  0
  3 13  1  0  0  0  0
  3 14  1  0  0  0  0
  4 15  1  0  0  0  0
  4 16  1  0  0  0  0
  4 17  1  0  0  0  0
  5 18  1  0  0  0  0
  5 19  1  0  0  0  0
  5 20  1  0  0  0  0
  6  9  1  0  0  0  0
  6 21  1  0  0  0  0
  7 10  2  0  0  0  0
  7 22  1  0  0  0  0
  8  9  2  0  0  0  0
  8 10  1  0  0  0  0
  8 11  1  0  0  0  0
  9 23  1  0  0  0  0
 10 24  1  0  0  0  0
 11 25  1  0  0  0  0
 11 26  1  0  0  0  0
 11 27  1  0  0  0  0
M  END
> <PUBCHEM_COMPOUND_CID>
7390

> <PUBCHEM_CONFORMER_RMSD>
0.4

> <PUBCHEM_CONFORMER_DIVERSEORDER>
1

> <PUBCHEM_MMFF94_PARTIAL_CHARGES>
12
1 0.14
10 -0.15
11 0.14
2 -0.14
21 0.15
22 0.15
23 0.15
24 0.15
6 -0.15
7 -0.15
8 -0.14
9 -0.15

> <PUBCHEM_EFFECTIVE_ROTOR_COUNT>
1

> <PUBCHEM_PHARMACOPHORE_FEATURES>
2
4 1 3 4 5 hydrophobe
6 2 6 7 8 9 10 rings

> <PUBCHEM_HEAVY_ATOM_COUNT>
11

> <PUBCHEM_ATOM_DEF_STEREO_COUNT>
0

> <PUBCHEM_ATOM_UDEF_STEREO_COUNT>
0

> <PUBCHEM_BOND_DEF_STEREO_COUNT>
0

> <PUBCHEM_BOND_UDEF_STEREO_COUNT>
0

> <PUBCHEM_ISOTOPIC_ATOM_COUNT>
0

> <PUBCHEM_COMPONENT_COUNT>
1

> <PUBCHEM_CACTVS_TAUTO_COUNT>
1

> <PUBCHEM_CONFORMER_ID>
00001CDE00000001

> <PUBCHEM_MMFF94_ENERGY>
37.5962

> <PUBCHEM_FEATURE_SELFOVERLAP>
10.148

> <PUBCHEM_SHAPE_FINGERPRINT>
12032990 46 18411987966211962742
12138202 97 17604692392587771199
124424 183 17531514396048132256
12897270 3 18410005537645178876
12932764 1 18040715861543116994
13024252 1 16008749108939631987
14325111 11 18410856590042242208
15775835 57 18260829284809578055
16945 1 18410575041924506468
17844478 74 17822025193770671833
18186145 218 18412550920550002716
200 152 18131059481224368151
20201158 50 18335697226141323839
23402539 116 14620511165265235417
23402655 69 18266438933617191309
23552423 10 18334015029180022686
2748010 2 18267019651322476476
29004967 10 18187652375002160624
3248919 1 18060134314952929566
369184 2 18040433278628393755
5084963 1 18262798596013080801
528886 8 18413105035164618683
63268167 104 18411134701779913970
8030462 33 17774995761282554455

> <PUBCHEM_SHAPE_MULTIPOLES>
226.37
5.01
1.43
0.9
2.03
0.2
0
0.06
0
-0.21
0
-0.71
-0.21
0

> <PUBCHEM_SHAPE_SELFOVERLAP>
462.882

> <PUBCHEM_SHAPE_VOLUME>
129.1

> <PUBCHEM_COORDINATE_TYPE>
2
5
10

$$$$
