79137
  -OEChem-11012401253D

 25 24  0     0  0  0  0  0  0999 V2000
   -2.4189   -0.3035    0.6196 O   0  0  0  0  0  0  0  0  0  0  0  0
    2.1684   -0.5521    0.0657 O   0  0  0  0  0  0  0  0  0  0  0  0
    1.3262    1.4630   -0.6821 O   0  0  0  0  0  0  0  0  0  0  0  0
   -1.2183    0.3321    0.3743 C   0  0  0  0  0  0  0  0  0  0  0  0
   -3.1880   -0.3958   -0.5635 C   0  0  0  0  0  0  0  0  0  0  0  0
   -0.1140   -0.3390    0.0120 C   0  0  0  0  0  0  0  0  0  0  0  0
    3.5050   -0.0775   -0.1289 C   0  0  0  0  0  0  0  0  0  0  0  0
   -1.2341    1.8208    0.5411 C   0  0  0  0  0  0  0  0  0  0  0  0
   -4.4860   -1.1105   -0.2533 C   0  0  0  0  0  0  0  0  0  0  0  0
    1.1819    0.3295   -0.2539 C   0  0  0  0  0  0  0  0  0  0  0  0
    4.4779   -1.1670    0.2691 C   0  0  0  0  0  0  0  0  0  0  0  0
   -3.4136    0.6049   -0.9525 H   0  0  0  0  0  0  0  0  0  0  0  0
   -2.6457   -0.9593   -1.3330 H   0  0  0  0  0  0  0  0  0  0  0  0
   -0.1380   -1.4221   -0.0657 H   0  0  0  0  0  0  0  0  0  0  0  0
    3.6503    0.1818   -1.1836 H   0  0  0  0  0  0  0  0  0  0  0  0
    3.6705    0.8112    0.4902 H   0  0  0  0  0  0  0  0  0  0  0  0
   -1.2793    2.3205   -0.4316 H   0  0  0  0  0  0  0  0  0  0  0  0
   -0.3666    2.1829    1.1018 H   0  0  0  0  0  0  0  0  0  0  0  0
   -2.1182    2.1295    1.1106 H   0  0  0  0  0  0  0  0  0  0  0  0
   -5.1076   -1.1991   -1.1488 H   0  0  0  0  0  0  0  0  0  0  0  0
   -4.2897   -2.1133    0.1406 H   0  0  0  0  0  0  0  0  0  0  0  0
   -5.0494   -0.5712    0.5153 H   0  0  0  0  0  0  0  0  0  0  0  0
    5.5116   -0.8372    0.1326 H   0  0  0  0  0  0  0  0  0  0  0  0
    4.3322   -1.4497    1.3168 H   0  0  0  0  0  0  0  0  0  0  0  0
    4.3124   -2.0689   -0.3294 H   0  0  0  0  0  0  0  0  0  0  0  0
  1  4  1  0  0  0  0
  1  5  1  0  0  0  0
  2  7  1  0  0  0  0
  2 10  1  0  0  0  0
  3 10  2  0  0  0  0
  4  6  2  3  0  0  0
  4  8  1  0  0  0  0
  5  9  1  0  0  0  0
  5 12  1  0  0  0  0
  5 13  1  0  0  0  0
  6 10  1  0  0  0  0
  6 14  1  0  0  0  0
  7 11  1  0  0  0  0
  7 15  1  0  0  0  0
  7 16  1  0  0  0  0
  8 17  1  0  0  0  0
  8 18  1  0  0  0  0
  8 19  1  0  0  0  0
  9 20  1  0  0  0  0
  9 21  1  0  0  0  0
  9 22  1  0  0  0  0
 11 23  1  0  0  0  0
 11 24  1  0  0  0  0
 11 25  1  0  0  0  0
M  END
> <PUBCHEM_COMPOUND_CID>
79137

> <PUBCHEM_CONFORMER_RMSD>
0.6

> <PUBCHEM_CONFORMER_DIVERSEORDER>
5
40
25
34
49
66
19
58
42
45
64
17
43
27
6
47
57
41
74
8
48
71
51
69
36
9
26
76
7
63
28
31
12
61
67
59
23
53
24
73
37
44
29
62
33
72
18
22
15
56
38
20
32
16
60
65
75
46
21
50
1
35
3
55
54
68
2
4
13
52
30
39
11
10
70
14

> <PUBCHEM_MMFF94_PARTIAL_CHARGES>
10
1 -0.36
10 0.71
14 0.15
2 -0.43
3 -0.57
4 -0.06
5 0.28
6 -0.14
7 0.28
8 0.14

> <PUBCHEM_EFFECTIVE_ROTOR_COUNT>
5

> <PUBCHEM_PHARMACOPHORE_FEATURES>
2
1 1 acceptor
1 3 acceptor

> <PUBCHEM_HEAVY_ATOM_COUNT>
11

> <PUBCHEM_ATOM_DEF_STEREO_COUNT>
0

> <PUBCHEM_ATOM_UDEF_STEREO_COUNT>
0

> <PUBCHEM_BOND_DEF_STEREO_COUNT>
0

> <PUBCHEM_BOND_UDEF_STEREO_COUNT>
1

> <PUBCHEM_ISOTOPIC_ATOM_COUNT>
0

> <PUBCHEM_COMPONENT_COUNT>
1

> <PUBCHEM_CACTVS_TAUTO_COUNT>
1

> <PUBCHEM_CONFORMER_ID>
0001352100000005

> <PUBCHEM_MMFF94_ENERGY>
20.2742

> <PUBCHEM_FEATURE_SELFOVERLAP>
10.149

> <PUBCHEM_SHAPE_FINGERPRINT>
11062470 55 14056721244688755178
12932764 1 16415185733867623502
13214271 11 12679455396161357907
13690532 89 18407476665265183746
14123255 52 9007061257484203439
14993402 34 18186524306474560494
177051 138 18343303660720361646
18186145 218 17385997412625787013
200 152 18410007736868978847
20211469 26 18335700520618473730
20645477 70 18040152916270200594
20671657 53 18260831500949574964
20711985 327 17418094364490377945
20724930 69 8070026675158639094
21119208 17 17095519613005438775
21501925 9 18410571790934924352
23402539 116 18343577430704968143
366044 4 10737283545995055297

> <PUBCHEM_SHAPE_MULTIPOLES>
208.77
8.07
1.4
0.74
1.41
0.54
-0.01
-4.65
-0.16
-0.27
0.05
-0.1
0.07
-0.5

> <PUBCHEM_SHAPE_SELFOVERLAP>
390.805

> <PUBCHEM_SHAPE_VOLUME>
131.5

> <PUBCHEM_COORDINATE_TYPE>
2
5
10

$$$$
