421922
  -OEChem-10312420572D

 96104  0     0  0  0  0  0  0999 V2000
    5.0000   -0.5000    0.0000 P   0  0  0  0  0  0  0  0  0  0  0  0
    6.7071   -1.2071    0.0000 P   0  0  0  0  0  0  0  0  0  0  0  0
    5.7071    1.2071    0.0000 P   0  0  0  0  0  0  0  0  0  0  0  0
    7.4142    0.5000    0.0000 P   0  0  0  0  0  0  0  0  0  0  0  0
    5.7071   -1.2071    0.0000 N   0  0  0  0  0  0  0  0  0  0  0  0
    5.0000    0.5000    0.0000 N   0  0  0  0  0  0  0  0  0  0  0  0
    7.4142   -0.5000    0.0000 N   0  0  0  0  0  0  0  0  0  0  0  0
    6.7071    1.2071    0.0000 N   0  0  0  0  0  0  0  0  0  0  0  0
    4.2929   -1.2071    0.0000 C   0  0  0  0  0  0  0  0  0  0  0  0
    4.0000   -0.5000    0.0000 C   0  0  0  0  0  0  0  0  0  0  0  0
    6.7071   -2.2071    0.0000 C   0  0  0  0  0  0  0  0  0  0  0  0
    7.4142   -1.9142    0.0000 C   0  0  0  0  0  0  0  0  0  0  0  0
    5.0000    1.9142    0.0000 C   0  0  0  0  0  0  0  0  0  0  0  0
    5.7071    2.2071    0.0000 C   0  0  0  0  0  0  0  0  0  0  0  0
    8.1213    1.2071    0.0000 C   0  0  0  0  0  0  0  0  0  0  0  0
    8.4142    0.5000    0.0000 C   0  0  0  0  0  0  0  0  0  0  0  0
    4.5517   -2.1730    0.0000 C   0  0  0  0  0  0  0  0  0  0  0  0
    3.5000   -1.3660    0.0000 C   0  0  0  0  0  0  0  0  0  0  0  0
    5.8411   -2.7071    0.0000 C   0  0  0  0  0  0  0  0  0  0  0  0
    7.1554   -2.8801    0.0000 C   0  0  0  0  0  0  0  0  0  0  0  0
    4.0341    1.6554    0.0000 C   0  0  0  0  0  0  0  0  0  0  0  0
    4.8411    2.7071    0.0000 C   0  0  0  0  0  0  0  0  0  0  0  0
    7.8625    2.1730    0.0000 C   0  0  0  0  0  0  0  0  0  0  0  0
    8.9142    1.3660    0.0000 C   0  0  0  0  0  0  0  0  0  0  0  0
    3.3270   -0.9483    0.0000 C   0  0  0  0  0  0  0  0  0  0  0  0
    3.5000    0.3660    0.0000 C   0  0  0  0  0  0  0  0  0  0  0  0
    7.5731   -2.7071    0.0000 C   0  0  0  0  0  0  0  0  0  0  0  0
    8.3801   -1.6554    0.0000 C   0  0  0  0  0  0  0  0  0  0  0  0
    5.2588    2.8801    0.0000 C   0  0  0  0  0  0  0  0  0  0  0  0
    6.5731    2.7071    0.0000 C   0  0  0  0  0  0  0  0  0  0  0  0
    9.0872    0.9483    0.0000 C   0  0  0  0  0  0  0  0  0  0  0  0
    8.9142   -0.3660    0.0000 C   0  0  0  0  0  0  0  0  0  0  0  0
    3.8446   -2.8801    0.0000 C   0  0  0  0  0  0  0  0  0  0  0  0
    2.5000   -1.3660    0.0000 C   0  0  0  0  0  0  0  0  0  0  0  0
    5.8411   -3.7071    0.0000 C   0  0  0  0  0  0  0  0  0  0  0  0
    7.8625   -3.5872    0.0000 C   0  0  0  0  0  0  0  0  0  0  0  0
    3.3270    2.3625    0.0000 C   0  0  0  0  0  0  0  0  0  0  0  0
    4.8411    3.7071    0.0000 C   0  0  0  0  0  0  0  0  0  0  0  0
    8.5696    2.8801    0.0000 C   0  0  0  0  0  0  0  0  0  0  0  0
    9.9142    1.3660    0.0000 C   0  0  0  0  0  0  0  0  0  0  0  0
    2.6199   -1.6554    0.0000 C   0  0  0  0  0  0  0  0  0  0  0  0
    2.5000    0.3660    0.0000 C   0  0  0  0  0  0  0  0  0  0  0  0
    7.5731   -3.7071    0.0000 C   0  0  0  0  0  0  0  0  0  0  0  0
    9.0872   -2.3625    0.0000 C   0  0  0  0  0  0  0  0  0  0  0  0
    4.5517    3.5872    0.0000 C   0  0  0  0  0  0  0  0  0  0  0  0
    6.5731    3.7071    0.0000 C   0  0  0  0  0  0  0  0  0  0  0  0
    9.7944    1.6554    0.0000 C   0  0  0  0  0  0  0  0  0  0  0  0
    9.9142   -0.3660    0.0000 C   0  0  0  0  0  0  0  0  0  0  0  0
    2.8787   -2.6213    0.0000 C   0  0  0  0  0  0  0  0  0  0  0  0
    2.0000   -0.5000    0.0000 C   0  0  0  0  0  0  0  0  0  0  0  0
    6.7071   -4.2071    0.0000 C   0  0  0  0  0  0  0  0  0  0  0  0
    8.8284   -3.3284    0.0000 C   0  0  0  0  0  0  0  0  0  0  0  0
    3.5858    3.3284    0.0000 C   0  0  0  0  0  0  0  0  0  0  0  0
    5.7071    4.2071    0.0000 C   0  0  0  0  0  0  0  0  0  0  0  0
    9.5355    2.6213    0.0000 C   0  0  0  0  0  0  0  0  0  0  0  0
   10.4142    0.5000    0.0000 C   0  0  0  0  0  0  0  0  0  0  0  0
    5.1506   -2.3335    0.0000 H   0  0  0  0  0  0  0  0  0  0  0  0
    3.8100   -1.9030    0.0000 H   0  0  0  0  0  0  0  0  0  0  0  0
    5.3042   -2.3971    0.0000 H   0  0  0  0  0  0  0  0  0  0  0  0
    6.5565   -3.0406    0.0000 H   0  0  0  0  0  0  0  0  0  0  0  0
    3.8736    1.0565    0.0000 H   0  0  0  0  0  0  0  0  0  0  0  0
    4.3042    2.3971    0.0000 H   0  0  0  0  0  0  0  0  0  0  0  0
    7.2636    2.3335    0.0000 H   0  0  0  0  0  0  0  0  0  0  0  0
    8.6042    1.9030    0.0000 H   0  0  0  0  0  0  0  0  0  0  0  0
    3.1665   -0.3494    0.0000 H   0  0  0  0  0  0  0  0  0  0  0  0
    3.8100    0.9030    0.0000 H   0  0  0  0  0  0  0  0  0  0  0  0
    8.1101   -2.3971    0.0000 H   0  0  0  0  0  0  0  0  0  0  0  0
    8.5406   -1.0565    0.0000 H   0  0  0  0  0  0  0  0  0  0  0  0
    5.8577    3.0406    0.0000 H   0  0  0  0  0  0  0  0  0  0  0  0
    7.1101    2.3971    0.0000 H   0  0  0  0  0  0  0  0  0  0  0  0
    9.2477    0.3494    0.0000 H   0  0  0  0  0  0  0  0  0  0  0  0
    8.6042   -0.9030    0.0000 H   0  0  0  0  0  0  0  0  0  0  0  0
    4.0051   -3.4790    0.0000 H   0  0  0  0  0  0  0  0  0  0  0  0
    2.1900   -1.9030    0.0000 H   0  0  0  0  0  0  0  0  0  0  0  0
    5.3042   -4.0171    0.0000 H   0  0  0  0  0  0  0  0  0  0  0  0
    7.7020   -4.1861    0.0000 H   0  0  0  0  0  0  0  0  0  0  0  0
    2.7281    2.2020    0.0000 H   0  0  0  0  0  0  0  0  0  0  0  0
    4.3042    4.0171    0.0000 H   0  0  0  0  0  0  0  0  0  0  0  0
    8.4091    3.4790    0.0000 H   0  0  0  0  0  0  0  0  0  0  0  0
   10.2242    1.9030    0.0000 H   0  0  0  0  0  0  0  0  0  0  0  0
    2.0210   -1.4949    0.0000 H   0  0  0  0  0  0  0  0  0  0  0  0
    2.1900    0.9030    0.0000 H   0  0  0  0  0  0  0  0  0  0  0  0
    8.1101   -4.0171    0.0000 H   0  0  0  0  0  0  0  0  0  0  0  0
    9.6861   -2.2020    0.0000 H   0  0  0  0  0  0  0  0  0  0  0  0
    4.7122    4.1861    0.0000 H   0  0  0  0  0  0  0  0  0  0  0  0
    7.1101    4.0171    0.0000 H   0  0  0  0  0  0  0  0  0  0  0  0
   10.3932    1.4949    0.0000 H   0  0  0  0  0  0  0  0  0  0  0  0
   10.2242   -0.9030    0.0000 H   0  0  0  0  0  0  0  0  0  0  0  0
    2.4403   -3.0597    0.0000 H   0  0  0  0  0  0  0  0  0  0  0  0
    1.3800   -0.5000    0.0000 H   0  0  0  0  0  0  0  0  0  0  0  0
    6.7071   -4.8271    0.0000 H   0  0  0  0  0  0  0  0  0  0  0  0
    9.2668   -3.7668    0.0000 H   0  0  0  0  0  0  0  0  0  0  0  0
    3.1474    3.7668    0.0000 H   0  0  0  0  0  0  0  0  0  0  0  0
    5.7071    4.8271    0.0000 H   0  0  0  0  0  0  0  0  0  0  0  0
    9.9739    3.0597    0.0000 H   0  0  0  0  0  0  0  0  0  0  0  0
   11.0342    0.5000    0.0000 H   0  0  0  0  0  0  0  0  0  0  0  0
  1  5  2  0  0  0  0
  1  6  1  0  0  0  0
  1  9  1  0  0  0  0
  1 10  1  0  0  0  0
  2  5  1  0  0  0  0
  2  7  2  0  0  0  0
  2 11  1  0  0  0  0
  2 12  1  0  0  0  0
  3  6  2  0  0  0  0
  3  8  1  0  0  0  0
  3 13  1  0  0  0  0
  3 14  1  0  0  0  0
  4  7  1  0  0  0  0
  4  8  2  0  0  0  0
  4 15  1  0  0  0  0
  4 16  1  0  0  0  0
  9 17  2  0  0  0  0
  9 25  1  0  0  0  0
 10 18  2  0  0  0  0
 10 26  1  0  0  0  0
 11 19  2  0  0  0  0
 11 27  1  0  0  0  0
 12 20  2  0  0  0  0
 12 28  1  0  0  0  0
 13 21  2  0  0  0  0
 13 29  1  0  0  0  0
 14 22  2  0  0  0  0
 14 30  1  0  0  0  0
 15 23  2  0  0  0  0
 15 31  1  0  0  0  0
 16 24  2  0  0  0  0
 16 32  1  0  0  0  0
 17 33  1  0  0  0  0
 17 57  1  0  0  0  0
 18 34  1  0  0  0  0
 18 58  1  0  0  0  0
 19 35  1  0  0  0  0
 19 59  1  0  0  0  0
 20 36  1  0  0  0  0
 20 60  1  0  0  0  0
 21 37  1  0  0  0  0
 21 61  1  0  0  0  0
 22 38  1  0  0  0  0
 22 62  1  0  0  0  0
 23 39  1  0  0  0  0
 23 63  1  0  0  0  0
 24 40  1  0  0  0  0
 24 64  1  0  0  0  0
 25 41  2  0  0  0  0
 25 65  1  0  0  0  0
 26 42  2  0  0  0  0
 26 66  1  0  0  0  0
 27 43  2  0  0  0  0
 27 67  1  0  0  0  0
 28 44  2  0  0  0  0
 28 68  1  0  0  0  0
 29 45  2  0  0  0  0
 29 69  1  0  0  0  0
 30 46  2  0  0  0  0
 30 70  1  0  0  0  0
 31 47  2  0  0  0  0
 31 71  1  0  0  0  0
 32 48  2  0  0  0  0
 32 72  1  0  0  0  0
 33 49  2  0  0  0  0
 33 73  1  0  0  0  0
 34 50  2  0  0  0  0
 34 74  1  0  0  0  0
 35 51  2  0  0  0  0
 35 75  1  0  0  0  0
 36 52  2  0  0  0  0
 36 76  1  0  0  0  0
 37 53  2  0  0  0  0
 37 77  1  0  0  0  0
 38 54  2  0  0  0  0
 38 78  1  0  0  0  0
 39 55  2  0  0  0  0
 39 79  1  0  0  0  0
 40 56  2  0  0  0  0
 40 80  1  0  0  0  0
 41 49  1  0  0  0  0
 41 81  1  0  0  0  0
 42 50  1  0  0  0  0
 42 82  1  0  0  0  0
 43 51  1  0  0  0  0
 43 83  1  0  0  0  0
 44 52  1  0  0  0  0
 44 84  1  0  0  0  0
 45 53  1  0  0  0  0
 45 85  1  0  0  0  0
 46 54  1  0  0  0  0
 46 86  1  0  0  0  0
 47 55  1  0  0  0  0
 47 87  1  0  0  0  0
 48 56  1  0  0  0  0
 48 88  1  0  0  0  0
 49 89  1  0  0  0  0
 50 90  1  0  0  0  0
 51 91  1  0  0  0  0
 52 92  1  0  0  0  0
 53 93  1  0  0  0  0
 54 94  1  0  0  0  0
 55 95  1  0  0  0  0
 56 96  1  0  0  0  0
M  END
> <PUBCHEM_COMPOUND_CID>
421922

> <PUBCHEM_COMPOUND_CANONICALIZED>
1

> <PUBCHEM_CACTVS_COMPLEXITY>
1120

> <PUBCHEM_CACTVS_HBOND_ACCEPTOR>
4

> <PUBCHEM_CACTVS_HBOND_DONOR>
0

> <PUBCHEM_CACTVS_ROTATABLE_BOND>
8

> <PUBCHEM_CACTVS_SUBSKEYS>
AAADcfB/gAOAAAAAAAAAAAAAAAAAAAAAAAAwYMGDAAAQAAABVAAAGAgAgAAACACAEAAwAIAAACCAgCBCAAACAAAgAAAIiAAAAIgIICKAERCAIAAggAAIiAcAAAAAAAAAAAAAAAAAAAAAAAAAAAAAAAAAAA==

> <PUBCHEM_IUPAC_OPENEYE_NAME>
2,2,4,4,6,6,8,8-octakis-phenyl-1,3,5,7-tetraza-2lambda5,4lambda5,6lambda5,8lambda5-tetraphosphacycloocta-1,3,5,7-tetraene

> <PUBCHEM_IUPAC_CAS_NAME>
2,2,4,4,6,6,8,8-octakis-phenyl-1,3,5,7-tetraza-2lambda5,4lambda5,6lambda5,8lambda5-tetraphosphacycloocta-1,3,5,7-tetraene

> <PUBCHEM_IUPAC_NAME_MARKUP>
2,2,4,4,6,6,8,8-octakis-phenyl-1,3,5,7-tetraza-2&lambda;<SUP>5</SUP>,4&lambda;<SUP>5</SUP>,6&lambda;<SUP>5</SUP>,8&lambda;<SUP>5</SUP>-tetraphosphacycloocta-1,3,5,7-tetraene

> <PUBCHEM_IUPAC_NAME>
2,2,4,4,6,6,8,8-octakis-phenyl-1,3,5,7-tetraza-2lambda5,4lambda5,6lambda5,8lambda5-tetraphosphacycloocta-1,3,5,7-tetraene

> <PUBCHEM_IUPAC_SYSTEMATIC_NAME>
2,2,4,4,6,6,8,8-octakis-phenyl-1,3,5,7-tetraza-2lambda5,4lambda5,6lambda5,8lambda5-tetraphosphacycloocta-1,3,5,7-tetraene

> <PUBCHEM_IUPAC_TRADITIONAL_NAME>
2,2,4,4,6,6,8,8-octakis-phenyl-1,3,5,7-tetraza-2lambda5,4lambda5,6lambda5,8lambda5-tetraphosphacycloocta-1,3,5,7-tetraene

> <PUBCHEM_IUPAC_INCHI>
InChI=1S/C48H40N4P4/c1-9-25-41(26-10-1)53(42-27-11-2-12-28-42)49-54(43-29-13-3-14-30-43,44-31-15-4-16-32-44)51-56(47-37-21-7-22-38-47,48-39-23-8-24-40-48)52-55(50-53,45-33-17-5-18-34-45)46-35-19-6-20-36-46/h1-40H

> <PUBCHEM_IUPAC_INCHIKEY>
GRGUCLYDPTVKBE-UHFFFAOYSA-N

> <PUBCHEM_XLOGP3_AA>
13.2

> <PUBCHEM_EXACT_MASS>
796.22034528

> <PUBCHEM_MOLECULAR_FORMULA>
C48H40N4P4

> <PUBCHEM_MOLECULAR_WEIGHT>
796.8

> <PUBCHEM_OPENEYE_CAN_SMILES>
C1=CC=C(C=C1)P2(=NP(=NP(=NP(=N2)(C3=CC=CC=C3)C4=CC=CC=C4)(C5=CC=CC=C5)C6=CC=CC=C6)(C7=CC=CC=C7)C8=CC=CC=C8)C9=CC=CC=C9

> <PUBCHEM_OPENEYE_ISO_SMILES>
C1=CC=C(C=C1)P2(=NP(=NP(=NP(=N2)(C3=CC=CC=C3)C4=CC=CC=C4)(C5=CC=CC=C5)C6=CC=CC=C6)(C7=CC=CC=C7)C8=CC=CC=C8)C9=CC=CC=C9

> <PUBCHEM_CACTVS_TPSA>
49.4

> <PUBCHEM_MONOISOTOPIC_WEIGHT>
796.22034528

> <PUBCHEM_TOTAL_CHARGE>
0

> <PUBCHEM_HEAVY_ATOM_COUNT>
56

> <PUBCHEM_ATOM_DEF_STEREO_COUNT>
0

> <PUBCHEM_ATOM_UDEF_STEREO_COUNT>
0

> <PUBCHEM_BOND_DEF_STEREO_COUNT>
0

> <PUBCHEM_BOND_UDEF_STEREO_COUNT>
0

> <PUBCHEM_ISOTOPIC_ATOM_COUNT>
0

> <PUBCHEM_COMPONENT_COUNT>
1

> <PUBCHEM_CACTVS_TAUTO_COUNT>
-1

> <PUBCHEM_COORDINATE_TYPE>
1
5
255

> <PUBCHEM_BONDANNOTATIONS>
10  18  8
10  26  8
11  19  8
11  27  8
12  20  8
12  28  8
13  21  8
13  29  8
14  22  8
14  30  8
15  23  8
15  31  8
16  24  8
16  32  8
17  33  8
18  34  8
19  35  8
20  36  8
21  37  8
22  38  8
23  39  8
24  40  8
25  41  8
26  42  8
27  43  8
28  44  8
29  45  8
30  46  8
31  47  8
32  48  8
33  49  8
34  50  8
35  51  8
36  52  8
37  53  8
38  54  8
39  55  8
40  56  8
41  49  8
42  50  8
43  51  8
44  52  8
45  53  8
46  54  8
47  55  8
48  56  8
9  17  8
9  25  8

$$$$
