21122408
  -OEChem-11012401113D

 24 23  0     0  0  0  0  0  0999 V2000
    0.7816    1.3182   -1.3598 F   0  0  0  0  0  0  0  0  0  0  0  0
    0.4776    2.1966    0.6205 F   0  0  0  0  0  0  0  0  0  0  0  0
    3.0327    1.4655    0.1671 F   0  0  0  0  0  0  0  0  0  0  0  0
    2.0711    0.3577    1.7723 F   0  0  0  0  0  0  0  0  0  0  0  0
   -1.8897    1.6845    0.4652 F   0  0  0  0  0  0  0  0  0  0  0  0
   -1.5734    0.7682   -1.4961 F   0  0  0  0  0  0  0  0  0  0  0  0
   -0.2852    0.1010    0.2365 O   0  0  0  0  0  0  0  0  0  0  0  0
    1.9614   -1.8379    0.4137 O   0  0  0  0  0  0  0  0  0  0  0  0
   -3.8193   -0.1537   -0.2060 O   0  0  0  0  0  0  0  0  0  0  0  0
    3.0680   -0.8186   -1.3361 O   0  0  0  0  0  0  0  0  0  0  0  0
   -2.2951   -1.6217    0.7151 O   0  0  0  0  0  0  0  0  0  0  0  0
    0.7478    1.0402   -0.0343 C   0  0  0  0  0  0  0  0  0  0  0  0
    2.0933    0.5135    0.4207 C   0  0  0  0  0  0  0  0  0  0  0  0
   -1.5804    0.5197   -0.1607 C   0  0  0  0  0  0  0  0  0  0  0  0
    2.4496   -0.7715   -0.2806 C   0  0  0  0  0  0  0  0  0  0  0  0
   -2.5742   -0.5576    0.1800 C   0  0  0  0  0  0  0  0  0  0  0  0
    2.2103   -3.1203   -0.1703 C   0  0  0  0  0  0  0  0  0  0  0  0
   -4.8761   -1.0835    0.0529 C   0  0  0  0  0  0  0  0  0  0  0  0
    1.7717   -3.8813    0.4808 H   0  0  0  0  0  0  0  0  0  0  0  0
    3.2869   -3.3001   -0.2453 H   0  0  0  0  0  0  0  0  0  0  0  0
    1.7372   -3.1858   -1.1549 H   0  0  0  0  0  0  0  0  0  0  0  0
   -5.8116   -0.6420   -0.3008 H   0  0  0  0  0  0  0  0  0  0  0  0
   -4.9606   -1.2712    1.1275 H   0  0  0  0  0  0  0  0  0  0  0  0
   -4.7007   -2.0169   -0.4904 H   0  0  0  0  0  0  0  0  0  0  0  0
  1 12  1  0  0  0  0
  2 12  1  0  0  0  0
  3 13  1  0  0  0  0
  4 13  1  0  0  0  0
  5 14  1  0  0  0  0
  6 14  1  0  0  0  0
  7 12  1  0  0  0  0
  7 14  1  0  0  0  0
  8 15  1  0  0  0  0
  8 17  1  0  0  0  0
  9 16  1  0  0  0  0
  9 18  1  0  0  0  0
 10 15  2  0  0  0  0
 11 16  2  0  0  0  0
 12 13  1  0  0  0  0
 13 15  1  0  0  0  0
 14 16  1  0  0  0  0
 17 19  1  0  0  0  0
 17 20  1  0  0  0  0
 17 21  1  0  0  0  0
 18 22  1  0  0  0  0
 18 23  1  0  0  0  0
 18 24  1  0  0  0  0
M  END
> <PUBCHEM_COMPOUND_CID>
21122408

> <PUBCHEM_CONFORMER_RMSD>
1.2

> <PUBCHEM_CONFORMER_DIVERSEORDER>
1
36
32
39
23
11
35
17
18
28
20
21
12
44
37
4
27
9
25
31
22
19
2
38
45
14
10
43
3
30
34
40
42
5
16
8
41
13
29
26
33
24
6
15
7

> <PUBCHEM_MMFF94_PARTIAL_CHARGES>
18
1 -0.34
10 -0.57
11 -0.57
12 0.96
13 0.74
14 1.02
15 0.66
16 0.66
17 0.28
18 0.28
2 -0.34
3 -0.34
4 -0.34
5 -0.34
6 -0.34
7 -0.56
8 -0.43
9 -0.43

> <PUBCHEM_EFFECTIVE_ROTOR_COUNT>
7

> <PUBCHEM_PHARMACOPHORE_FEATURES>
3
1 10 acceptor
1 11 acceptor
1 7 acceptor

> <PUBCHEM_HEAVY_ATOM_COUNT>
18

> <PUBCHEM_ATOM_DEF_STEREO_COUNT>
0

> <PUBCHEM_ATOM_UDEF_STEREO_COUNT>
0

> <PUBCHEM_BOND_DEF_STEREO_COUNT>
0

> <PUBCHEM_BOND_UDEF_STEREO_COUNT>
0

> <PUBCHEM_ISOTOPIC_ATOM_COUNT>
0

> <PUBCHEM_COMPONENT_COUNT>
1

> <PUBCHEM_CACTVS_TAUTO_COUNT>
1

> <PUBCHEM_CONFORMER_ID>
01424D6800000001

> <PUBCHEM_MMFF94_ENERGY>
18.2956

> <PUBCHEM_FEATURE_SELFOVERLAP>
15.231

> <PUBCHEM_SHAPE_FINGERPRINT>
10618630 7 18409449198031495819
12202030 40 18191013526277013550
12616999 72 18041287637649420750
12932764 1 17131823287567492705
13296908 3 18343579612232025141
14178342 30 18338223852411990824
14251717 144 18411696629911407559
14252887 29 18261396688833892257
14350558 41 18334860540968956693
15001771 113 18122346783344594170
15375358 24 18261666090588955425
16945 1 18199168732727016908
20201158 50 18335138721616295019
20279233 1 18260829336428333051
20442098 301 18201432605910172727
20539784 86 17417801902739255200
20645477 70 18201720652286923879
22224240 67 18057027224258332616
22721475 48 18333737900884516291
23557571 272 17458614606147325252
23559900 14 18410849936800342584
2748010 2 18338506435400443190
2871803 45 18409171008414960742
31174 14 17489298733057268801
33824 294 18339640147837330266
581208 293 18340481270006001419
7364860 26 18265619955619324668
94968 8 18411706469386044734
9709674 26 18335422400238490467

> <PUBCHEM_SHAPE_MULTIPOLES>
297.44
6.47
2.34
1.05
6.59
1.22
-0.09
2.82
-0.16
-1.54
0.11
-0.44
-0.18
0.45

> <PUBCHEM_SHAPE_SELFOVERLAP>
607.654

> <PUBCHEM_SHAPE_VOLUME>
170.9

> <PUBCHEM_COORDINATE_TYPE>
2
5
10

$$$$
