141933
  -OEChem-11012400483D

 29 28  0     0  0  0  0  0  0999 V2000
    1.5878   -0.3744    1.9566 O   0  5  0  0  0  0  0  0  0  0  0  0
    3.2259    1.8687   -1.6627 O   0  5  0  0  0  0  0  0  0  0  0  0
    3.1303   -1.8523   -1.2264 O   0  5  0  0  0  0  0  0  0  0  0  0
   -1.0108    1.5226    1.1915 O   0  5  0  0  0  0  0  0  0  0  0  0
   -3.1416   -1.9838   -0.7878 O   0  5  0  0  0  0  0  0  0  0  0  0
   -3.3721    1.7799   -1.7047 O   0  5  0  0  0  0  0  0  0  0  0  0
    1.8907    1.7462    1.4819 O   0  0  0  0  0  0  0  0  0  0  0  0
    4.4883    1.3048    0.0406 O   0  0  0  0  0  0  0  0  0  0  0  0
    3.7019   -1.5115    0.8628 O   0  0  0  0  0  0  0  0  0  0  0  0
   -3.0326    1.0675    1.9077 O   0  0  0  0  0  0  0  0  0  0  0  0
   -2.8243   -1.5397    1.3374 O   0  0  0  0  0  0  0  0  0  0  0  0
   -4.7341    0.5186   -0.5355 O   0  0  0  0  0  0  0  0  0  0  0  0
   -0.0038   -2.2927    0.4386 O   0  0  0  0  0  0  0  0  0  0  0  0
    0.0051   -0.4468   -0.5799 N   0  0  0  0  0  0  0  0  0  0  0  0
    1.9461    0.5399    1.2008 N   0  3  0  0  0  0  0  0  0  0  0  0
    3.4675    1.1917   -0.6519 N   0  3  0  0  0  0  0  0  0  0  0  0
    3.1522   -1.1676   -0.1923 N   0  3  0  0  0  0  0  0  0  0  0  0
   -2.1308    1.0058    1.0611 N   0  3  0  0  0  0  0  0  0  0  0  0
   -2.8024   -1.2315    0.1366 N   0  3  0  0  0  0  0  0  0  0  0  0
   -3.6015    0.8979   -0.8631 N   0  3  0  0  0  0  0  0  0  0  0  0
    0.0447   -1.7595   -0.6764 N   0  0  0  0  0  0  0  0  0  0  0  0
    1.1985    0.1825   -1.1498 C   0  0  0  0  0  0  0  0  0  0  0  0
   -1.1980    0.1595   -1.1685 C   0  0  0  0  0  0  0  0  0  0  0  0
    2.4163    0.1707   -0.2069 C   0  0  0  0  0  0  0  0  0  0  0  0
   -2.4030    0.2035   -0.2098 C   0  0  0  0  0  0  0  0  0  0  0  0
    0.9672    1.2442   -1.3160 H   0  0  0  0  0  0  0  0  0  0  0  0
    1.4358   -0.2115   -2.1493 H   0  0  0  0  0  0  0  0  0  0  0  0
   -1.4616   -0.3386   -2.1147 H   0  0  0  0  0  0  0  0  0  0  0  0
   -0.9935    1.2001   -1.4577 H   0  0  0  0  0  0  0  0  0  0  0  0
  1 15  1  0  0  0  0
  2 16  1  0  0  0  0
  3 17  1  0  0  0  0
  4 18  1  0  0  0  0
  5 19  1  0  0  0  0
  6 20  1  0  0  0  0
  7 15  2  0  0  0  0
  8 16  2  0  0  0  0
  9 17  2  0  0  0  0
 10 18  2  0  0  0  0
 11 19  2  0  0  0  0
 12 20  2  0  0  0  0
 13 21  2  0  0  0  0
 14 21  1  0  0  0  0
 14 22  1  0  0  0  0
 14 23  1  0  0  0  0
 15 24  1  0  0  0  0
 16 24  1  0  0  0  0
 17 24  1  0  0  0  0
 18 25  1  0  0  0  0
 19 25  1  0  0  0  0
 20 25  1  0  0  0  0
 22 24  1  0  0  0  0
 22 26  1  0  0  0  0
 22 27  1  0  0  0  0
 23 25  1  0  0  0  0
 23 28  1  0  0  0  0
 23 29  1  0  0  0  0
M  CHG  8   1  -1   2  -1   3  -1   4  -1   5  -1   6  -1  15   1  16   1
M  CHG  4  17   1  18   1  19   1  20   1
M  END
> <PUBCHEM_COMPOUND_CID>
141933

> <PUBCHEM_CONFORMER_RMSD>
1

> <PUBCHEM_CONFORMER_DIVERSEORDER>
1
5
4
2
3

> <PUBCHEM_MMFF94_PARTIAL_CHARGES>
25
1 -0.52
10 -0.52
11 -0.52
12 -0.52
13 -0.16
14 -0.36
15 0.8
16 0.8
17 0.8
18 0.8
19 0.8
2 -0.52
20 0.8
21 -0.01
22 0.27
23 0.27
24 0.72
25 0.72
3 -0.52
4 -0.52
5 -0.52
6 -0.52
7 -0.52
8 -0.52
9 -0.52

> <PUBCHEM_EFFECTIVE_ROTOR_COUNT>
11

> <PUBCHEM_PHARMACOPHORE_FEATURES>
18
1 1 acceptor
1 1 anion
1 10 acceptor
1 11 acceptor
1 12 acceptor
1 2 acceptor
1 2 anion
1 3 acceptor
1 3 anion
1 4 acceptor
1 4 anion
1 5 acceptor
1 5 anion
1 6 acceptor
1 6 anion
1 7 acceptor
1 8 acceptor
1 9 acceptor

> <PUBCHEM_HEAVY_ATOM_COUNT>
25

> <PUBCHEM_ATOM_DEF_STEREO_COUNT>
0

> <PUBCHEM_ATOM_UDEF_STEREO_COUNT>
0

> <PUBCHEM_BOND_DEF_STEREO_COUNT>
0

> <PUBCHEM_BOND_UDEF_STEREO_COUNT>
0

> <PUBCHEM_ISOTOPIC_ATOM_COUNT>
0

> <PUBCHEM_COMPONENT_COUNT>
1

> <PUBCHEM_CACTVS_TAUTO_COUNT>
1

> <PUBCHEM_CONFORMER_ID>
00022A6D00000001

> <PUBCHEM_MMFF94_ENERGY>
89.7798

> <PUBCHEM_FEATURE_SELFOVERLAP>
91.887

> <PUBCHEM_SHAPE_FINGERPRINT>
10366900 7 17489588991247185679
10498660 4 18412543244921419685
10863032 1 18341901796242796026
12596599 1 18335148557207395450
13134695 92 17702653355447657182
13224815 77 18273218607548303927
13296908 3 17458351839857913757
14250199 8 16271641307948283449
14289901 80 17894914069912004604
16945 1 18120384159299767190
18186145 218 18338531754575577222
18981168 100 18201144550869081986
192875 21 17845925234783835009
19862831 5 18272642416411136775
20510252 161 18337958999254354627
23557571 272 16154283835025417201
23559900 14 18409163281726428494
3286 77 17346024581018609688
633830 44 17987816115152662524

> <PUBCHEM_SHAPE_MULTIPOLES>
398.34
7.78
2.11
1.65
0.32
0.56
0.38
-1.4
-1.01
-0.29
-0.11
0.18
-0.49
0.04

> <PUBCHEM_SHAPE_SELFOVERLAP>
806.223

> <PUBCHEM_SHAPE_VOLUME>
220.4

> <PUBCHEM_COORDINATE_TYPE>
2
5
10

$$$$
