5885880
  -OEChem-11012401233D

 22 22  0     0  0  0  0  0  0999 V2000
    4.2398    1.3663    0.0543 O   0  5  0  0  0  0  0  0  0  0  0  0
    4.5174   -0.7988   -0.1794 O   0  0  0  0  0  0  0  0  0  0  0  0
   -4.6492   -0.9997    0.2396 O   0  0  0  0  0  0  0  0  0  0  0  0
    3.7760    0.2044   -0.0436 N   0  3  0  0  0  0  0  0  0  0  0  0
   -4.9974    1.2026   -0.3271 N   0  0  0  0  0  0  0  0  0  0  0  0
   -0.3957   -0.3448    0.0887 C   0  0  0  0  0  0  0  0  0  0  0  0
    0.1428    0.9376    0.1956 C   0  0  0  0  0  0  0  0  0  0  0  0
    0.4482   -1.4451   -0.0620 C   0  0  0  0  0  0  0  0  0  0  0  0
    2.3689    0.0193    0.0010 C   0  0  0  0  0  0  0  0  0  0  0  0
    1.5250    1.1196    0.1516 C   0  0  0  0  0  0  0  0  0  0  0  0
    1.8304   -1.2631   -0.1057 C   0  0  0  0  0  0  0  0  0  0  0  0
   -1.8370   -0.5344    0.1340 C   0  0  0  0  0  0  0  0  0  0  0  0
   -2.7584    0.4253   -0.1064 C   0  0  0  0  0  0  0  0  0  0  0  0
   -4.2108    0.1106   -0.0407 C   0  0  0  0  0  0  0  0  0  0  0  0
   -0.4735    1.8210    0.3346 H   0  0  0  0  0  0  0  0  0  0  0  0
    0.0466   -2.4520   -0.1483 H   0  0  0  0  0  0  0  0  0  0  0  0
    1.9097    2.1323    0.2423 H   0  0  0  0  0  0  0  0  0  0  0  0
    2.4572   -2.1432   -0.2243 H   0  0  0  0  0  0  0  0  0  0  0  0
   -2.1675   -1.5431    0.3726 H   0  0  0  0  0  0  0  0  0  0  0  0
   -2.4866    1.4402   -0.3744 H   0  0  0  0  0  0  0  0  0  0  0  0
   -4.6155    2.1149   -0.5565 H   0  0  0  0  0  0  0  0  0  0  0  0
   -6.0094    1.1283   -0.3179 H   0  0  0  0  0  0  0  0  0  0  0  0
  1  4  1  0  0  0  0
  2  4  2  0  0  0  0
  3 14  2  0  0  0  0
  4  9  1  0  0  0  0
  5 14  1  0  0  0  0
  5 21  1  0  0  0  0
  5 22  1  0  0  0  0
  6  7  2  0  0  0  0
  6  8  1  0  0  0  0
  6 12  1  0  0  0  0
  7 10  1  0  0  0  0
  7 15  1  0  0  0  0
  8 11  2  0  0  0  0
  8 16  1  0  0  0  0
  9 10  2  0  0  0  0
  9 11  1  0  0  0  0
 10 17  1  0  0  0  0
 11 18  1  0  0  0  0
 12 13  2  0  0  0  0
 12 19  1  0  0  0  0
 13 14  1  0  0  0  0
 13 20  1  0  0  0  0
M  CHG  2   1  -1   4   1
M  END
> <PUBCHEM_COMPOUND_CID>
5885880

> <PUBCHEM_CONFORMER_RMSD>
0.6

> <PUBCHEM_CONFORMER_DIVERSEORDER>
1
3
2

> <PUBCHEM_MMFF94_PARTIAL_CHARGES>
22
1 -0.52
10 -0.15
11 -0.15
12 -0.18
13 -0.14
14 0.62
15 0.15
16 0.15
17 0.15
18 0.15
19 0.15
2 -0.52
20 0.15
21 0.37
22 0.37
3 -0.57
4 0.91
5 -0.8
6 0.03
7 -0.15
8 -0.15
9 0.13

> <PUBCHEM_EFFECTIVE_ROTOR_COUNT>
3

> <PUBCHEM_PHARMACOPHORE_FEATURES>
6
1 1 acceptor
1 1 anion
1 2 acceptor
1 3 acceptor
1 5 donor
6 6 7 8 9 10 11 rings

> <PUBCHEM_HEAVY_ATOM_COUNT>
14

> <PUBCHEM_ATOM_DEF_STEREO_COUNT>
0

> <PUBCHEM_ATOM_UDEF_STEREO_COUNT>
0

> <PUBCHEM_BOND_DEF_STEREO_COUNT>
1

> <PUBCHEM_BOND_UDEF_STEREO_COUNT>
0

> <PUBCHEM_ISOTOPIC_ATOM_COUNT>
0

> <PUBCHEM_COMPONENT_COUNT>
1

> <PUBCHEM_CACTVS_TAUTO_COUNT>
2

> <PUBCHEM_CONFORMER_ID>
0059CFB800000001

> <PUBCHEM_MMFF94_ENERGY>
40.2912

> <PUBCHEM_FEATURE_SELFOVERLAP>
30.527

> <PUBCHEM_SHAPE_FINGERPRINT>
11062470 55 18410575084663078921
11401426 45 18273209802981385098
11471102 20 18413106156383249804
13380535 76 18410858767306298947
13690532 89 18412827975699254690
14123238 8 18114180856408436263
14911166 2 18341901796575105510
14943859 89 18271805747975832207
14993402 34 17060618906052136885
15196674 1 18410855473023613189
17834072 33 18059851805131589973
200 152 18060135449404382019
20279233 1 18041287608069796995
20645477 70 18272654493617119350
23402539 116 17748820822068821463
23402655 69 18271520914883309429
23557571 272 17241326867724078535
23559900 14 18337953394364419810
3545911 37 18409730639160307445
366044 4 18410855481898767746
4047638 21 18187366536728976256
4072396 5 18337939109308117586
42788 4 18410293618281584101
4990 188 18059862757108427254
5104073 3 18409449176567229315
77779 3 18410293605813485087

> <PUBCHEM_SHAPE_MULTIPOLES>
260.54
9.5
1.38
0.6
4.89
0.04
0
-1.44
-0.52
-0.36
-0.01
0.07
0
0.29

> <PUBCHEM_SHAPE_SELFOVERLAP>
545.019

> <PUBCHEM_SHAPE_VOLUME>
148

> <PUBCHEM_COORDINATE_TYPE>
2
5
10

$$$$
