85944
  -OEChem-11012400483D

 27 28  0     1  0  0  0  0  0999 V2000
    3.3110    0.7498    0.4272 O   0  0  0  0  0  0  0  0  0  0  0  0
   -0.4289   -0.7997   -0.2731 C   0  0  2  0  0  0  0  0  0  0  0  0
   -0.2195    0.6566    0.1932 C   0  0  2  0  0  0  0  0  0  0  0  0
   -1.7589   -1.3553    0.2539 C   0  0  0  0  0  0  0  0  0  0  0  0
   -1.4048    1.5394   -0.2189 C   0  0  0  0  0  0  0  0  0  0  0  0
    0.7468   -1.6766    0.1819 C   0  0  0  0  0  0  0  0  0  0  0  0
    1.0933    1.2228   -0.3532 C   0  0  0  0  0  0  0  0  0  0  0  0
   -2.9350   -0.4690   -0.1487 C   0  0  0  0  0  0  0  0  0  0  0  0
   -2.7285    0.9764    0.2926 C   0  0  0  0  0  0  0  0  0  0  0  0
    2.0762   -1.1538   -0.3463 C   0  0  0  0  0  0  0  0  0  0  0  0
    2.2483    0.3093   -0.0085 C   0  0  0  0  0  0  0  0  0  0  0  0
   -0.4653   -0.8173   -1.3718 H   0  0  0  0  0  0  0  0  0  0  0  0
   -0.1584    0.6595    1.2914 H   0  0  0  0  0  0  0  0  0  0  0  0
   -1.7244   -1.4351    1.3479 H   0  0  0  0  0  0  0  0  0  0  0  0
   -1.9205   -2.3684   -0.1334 H   0  0  0  0  0  0  0  0  0  0  0  0
   -1.4463    1.6229   -1.3125 H   0  0  0  0  0  0  0  0  0  0  0  0
   -1.2688    2.5547    0.1723 H   0  0  0  0  0  0  0  0  0  0  0  0
    0.6023   -2.7076   -0.1617 H   0  0  0  0  0  0  0  0  0  0  0  0
    0.7799   -1.7069    1.2787 H   0  0  0  0  0  0  0  0  0  0  0  0
    1.2855    2.2115    0.0784 H   0  0  0  0  0  0  0  0  0  0  0  0
    1.0612    1.3292   -1.4434 H   0  0  0  0  0  0  0  0  0  0  0  0
   -3.8588   -0.8603    0.2922 H   0  0  0  0  0  0  0  0  0  0  0  0
   -3.0615   -0.5036   -1.2379 H   0  0  0  0  0  0  0  0  0  0  0  0
   -3.5567    1.5947   -0.0716 H   0  0  0  0  0  0  0  0  0  0  0  0
   -2.7480    1.0296    1.3880 H   0  0  0  0  0  0  0  0  0  0  0  0
    2.1331   -1.2599   -1.4351 H   0  0  0  0  0  0  0  0  0  0  0  0
    2.9010   -1.7231    0.0949 H   0  0  0  0  0  0  0  0  0  0  0  0
  1 11  2  0  0  0  0
  2  3  1  0  0  0  0
  2  4  1  0  0  0  0
  2  6  1  0  0  0  0
  2 12  1  0  0  0  0
  3  5  1  0  0  0  0
  3  7  1  0  0  0  0
  3 13  1  0  0  0  0
  4  8  1  0  0  0  0
  4 14  1  0  0  0  0
  4 15  1  0  0  0  0
  5  9  1  0  0  0  0
  5 16  1  0  0  0  0
  5 17  1  0  0  0  0
  6 10  1  0  0  0  0
  6 18  1  0  0  0  0
  6 19  1  0  0  0  0
  7 11  1  0  0  0  0
  7 20  1  0  0  0  0
  7 21  1  0  0  0  0
  8  9  1  0  0  0  0
  8 22  1  0  0  0  0
  8 23  1  0  0  0  0
  9 24  1  0  0  0  0
  9 25  1  0  0  0  0
 10 11  1  0  0  0  0
 10 26  1  0  0  0  0
 10 27  1  0  0  0  0
M  END
> <PUBCHEM_COMPOUND_CID>
85944

> <PUBCHEM_CONFORMER_RMSD>
0.4

> <PUBCHEM_CONFORMER_DIVERSEORDER>
1
2

> <PUBCHEM_MMFF94_PARTIAL_CHARGES>
4
1 -0.57
10 0.06
11 0.45
7 0.06

> <PUBCHEM_EFFECTIVE_ROTOR_COUNT>
1.4

> <PUBCHEM_PHARMACOPHORE_FEATURES>
3
1 1 acceptor
6 2 3 4 5 8 9 rings
6 2 3 6 7 10 11 rings

> <PUBCHEM_HEAVY_ATOM_COUNT>
11

> <PUBCHEM_ATOM_DEF_STEREO_COUNT>
2

> <PUBCHEM_ATOM_UDEF_STEREO_COUNT>
0

> <PUBCHEM_BOND_DEF_STEREO_COUNT>
0

> <PUBCHEM_BOND_UDEF_STEREO_COUNT>
0

> <PUBCHEM_ISOTOPIC_ATOM_COUNT>
0

> <PUBCHEM_COMPONENT_COUNT>
1

> <PUBCHEM_CACTVS_TAUTO_COUNT>
3

> <PUBCHEM_CONFORMER_ID>
00014FB800000001

> <PUBCHEM_MMFF94_ENERGY>
10.7524

> <PUBCHEM_FEATURE_SELFOVERLAP>
15.24

> <PUBCHEM_SHAPE_FINGERPRINT>
10857977 72 18337386136231174961
12382932 28 18411982455288724889
12524768 44 18267872674745636039
12897270 3 18410294705019151351
12932764 1 17970072153585530247
13380535 76 18410289215961549027
14325111 11 18411982438072023080
15775835 57 18343588429820917889
16945 1 18335708251443536079
17844478 74 18114197310718388633
193761 8 14015060280760316807
19973954 147 18410860927669002437
20201158 50 18409728478047959063
20871998 184 18129104587914971591
21040471 1 18409735036489250972
21501502 16 18339922615014568883
23235685 24 18410005554930692332
23402655 69 18269541781321768141
23463225 33 18333726897468142474
23552423 10 18333456430112939767
2748010 2 18265899064084398895
369184 2 18202563964688429513
5084963 1 18342462534066500817
528886 8 18410288137956127051
53812653 166 18343860035020921768
63268167 104 18340208496659263505
6333449 129 18413103974444878909
66348 1 18049444742611534327
7364860 26 18199186179222049774

> <PUBCHEM_SHAPE_MULTIPOLES>
220.51
4.36
1.78
0.68
0.31
0.17
0.01
-0.53
-0.29
-0.1
0.01
0.01
0
0.09

> <PUBCHEM_SHAPE_SELFOVERLAP>
448.717

> <PUBCHEM_SHAPE_VOLUME>
126.1

> <PUBCHEM_COORDINATE_TYPE>
2
5
10

$$$$
