77219
  -OEChem-11012400393D

 20 19  0     0  0  0  0  0  0999 V2000
   -2.2232   -1.3374    1.4586 Cl  0  0  0  0  0  0  0  0  0  0  0  0
   -3.7633    0.6578    0.0180 Cl  0  0  0  0  0  0  0  0  0  0  0  0
   -2.2413   -1.3166   -1.4691 Cl  0  0  0  0  0  0  0  0  0  0  0  0
    0.0968   -0.1399   -0.0092 O   0  0  0  0  0  0  0  0  0  0  0  0
   -1.1134    1.8129    0.0101 O   0  0  0  0  0  0  0  0  0  0  0  0
    2.4815   -0.3550   -0.0215 C   0  0  0  0  0  0  0  0  0  0  0  0
    3.8162    0.3847   -0.0062 C   0  0  0  0  0  0  0  0  0  0  0  0
    1.3041    0.6094   -0.0093 C   0  0  0  0  0  0  0  0  0  0  0  0
    4.9888   -0.5822    0.0252 C   0  0  0  0  0  0  0  0  0  0  0  0
   -1.0680    0.5883    0.0012 C   0  0  0  0  0  0  0  0  0  0  0  0
   -2.2782   -0.3221    0.0022 C   0  0  0  0  0  0  0  0  0  0  0  0
    2.4146   -1.0012   -0.9058 H   0  0  0  0  0  0  0  0  0  0  0  0
    2.4087   -1.0248    0.8447 H   0  0  0  0  0  0  0  0  0  0  0  0
    3.8693    1.0399    0.8711 H   0  0  0  0  0  0  0  0  0  0  0  0
    3.8980    1.0232   -0.8935 H   0  0  0  0  0  0  0  0  0  0  0  0
    1.3427    1.2374    0.8886 H   0  0  0  0  0  0  0  0  0  0  0  0
    1.3358    1.2508   -0.8979 H   0  0  0  0  0  0  0  0  0  0  0  0
    4.9543   -1.2121    0.9198 H   0  0  0  0  0  0  0  0  0  0  0  0
    4.9835   -1.2337   -0.8546 H   0  0  0  0  0  0  0  0  0  0  0  0
    5.9344   -0.0311    0.0342 H   0  0  0  0  0  0  0  0  0  0  0  0
  1 11  1  0  0  0  0
  2 11  1  0  0  0  0
  3 11  1  0  0  0  0
  4  8  1  0  0  0  0
  4 10  1  0  0  0  0
  5 10  2  0  0  0  0
  6  7  1  0  0  0  0
  6  8  1  0  0  0  0
  6 12  1  0  0  0  0
  6 13  1  0  0  0  0
  7  9  1  0  0  0  0
  7 14  1  0  0  0  0
  7 15  1  0  0  0  0
  8 16  1  0  0  0  0
  8 17  1  0  0  0  0
  9 18  1  0  0  0  0
  9 19  1  0  0  0  0
  9 20  1  0  0  0  0
 10 11  1  0  0  0  0
M  END
> <PUBCHEM_COMPOUND_CID>
77219

> <PUBCHEM_CONFORMER_RMSD>
0.6

> <PUBCHEM_CONFORMER_DIVERSEORDER>
1
85
26
71
50
72
75
76
77
30
42
87
80
23
70
83
40
78
31
43
82
46
33
4
5
37
53
38
45
49
25
39
8
44
68
69
67
27
86
24
60
16
41
74
57
73
66
36
79
20
21
64
32
48
9
29
58
84
81
65
59
17
22
18
19
55
3
13
62
51
56
61
28
12
6
2
7
63
34
10
35
11
52
15
14
54
47

> <PUBCHEM_MMFF94_PARTIAL_CHARGES>
8
1 -0.29
10 0.66
11 0.93
2 -0.29
3 -0.29
4 -0.43
5 -0.57
8 0.28

> <PUBCHEM_EFFECTIVE_ROTOR_COUNT>
5

> <PUBCHEM_PHARMACOPHORE_FEATURES>
2
1 5 acceptor
1 9 hydrophobe

> <PUBCHEM_HEAVY_ATOM_COUNT>
11

> <PUBCHEM_ATOM_DEF_STEREO_COUNT>
0

> <PUBCHEM_ATOM_UDEF_STEREO_COUNT>
0

> <PUBCHEM_BOND_DEF_STEREO_COUNT>
0

> <PUBCHEM_BOND_UDEF_STEREO_COUNT>
0

> <PUBCHEM_ISOTOPIC_ATOM_COUNT>
0

> <PUBCHEM_COMPONENT_COUNT>
1

> <PUBCHEM_CACTVS_TAUTO_COUNT>
1

> <PUBCHEM_CONFORMER_ID>
00012DA300000001

> <PUBCHEM_MMFF94_ENERGY>
9.4911

> <PUBCHEM_FEATURE_SELFOVERLAP>
10.148

> <PUBCHEM_SHAPE_FINGERPRINT>
10680689 15 18273218595190864172
11062470 55 18409166606036364044
12932764 1 18131347514536810402
13024252 1 17822009809456065967
14123238 8 9871744698417123872
14577589 140 18343022203007883863
18186145 218 17095237064392282156
20279233 1 17704077278581622326
20281407 28 18131351925320510778
20645464 45 16702311156377883997
20645477 70 17988082167334746062
20828058 44 17775844619025221870
22485316 2 18059851770977690142
23402539 116 18334569131506063244

> <PUBCHEM_SHAPE_MULTIPOLES>
220.25
8.17
1.36
1.05
10.29
0.08
-0.01
-0.97
0.04
-0.94
0.01
-0.99
-0.56
-0.01

> <PUBCHEM_SHAPE_SELFOVERLAP>
387.043

> <PUBCHEM_SHAPE_VOLUME>
145.1

> <PUBCHEM_COORDINATE_TYPE>
2
5
10

$$$$
