142627
  -OEChem-11012400463D

 20 21  0     0  0  0  0  0  0999 V2000
    1.7136   -0.3021   -1.3017 O   0  0  0  0  0  0  0  0  0  0  0  0
   -0.0884   -2.3754    0.1870 O   0  0  0  0  0  0  0  0  0  0  0  0
    4.0251    1.0419    0.8573 O   0  0  0  0  0  0  0  0  0  0  0  0
    1.9645   -0.0255    0.9127 N   0  0  0  0  0  0  0  0  0  0  0  0
    2.9452    0.3542   -1.0754 N   0  0  0  0  0  0  0  0  0  0  0  0
   -1.2955   -0.3548    0.0386 C   0  0  0  0  0  0  0  0  0  0  0  0
   -0.0730   -1.1421    0.0556 C   0  0  0  0  0  0  0  0  0  0  0  0
    1.2461   -0.4642   -0.0630 C   0  0  0  0  0  0  0  0  0  0  0  0
   -1.2312    1.0305   -0.1112 C   0  0  0  0  0  0  0  0  0  0  0  0
   -2.5325   -0.9851    0.1723 C   0  0  0  0  0  0  0  0  0  0  0  0
   -2.4040    1.7855   -0.1271 C   0  0  0  0  0  0  0  0  0  0  0  0
   -3.7054   -0.2302    0.1562 C   0  0  0  0  0  0  0  0  0  0  0  0
   -3.6410    1.1552    0.0064 C   0  0  0  0  0  0  0  0  0  0  0  0
    3.0765    0.5121    0.2922 C   0  0  0  0  0  0  0  0  0  0  0  0
   -0.2888    1.5589   -0.2196 H   0  0  0  0  0  0  0  0  0  0  0  0
   -2.6081   -2.0629    0.2903 H   0  0  0  0  0  0  0  0  0  0  0  0
   -2.3545    2.8642   -0.2441 H   0  0  0  0  0  0  0  0  0  0  0  0
   -4.6687   -0.7207    0.2602 H   0  0  0  0  0  0  0  0  0  0  0  0
   -4.5542    1.7430   -0.0062 H   0  0  0  0  0  0  0  0  0  0  0  0
    3.5456    0.6152   -1.8458 H   0  0  0  0  0  0  0  0  0  0  0  0
  1  5  1  0  0  0  0
  1  8  1  0  0  0  0
  2  7  2  0  0  0  0
  3 14  2  0  0  0  0
  4  8  2  0  0  0  0
  4 14  1  0  0  0  0
  5 14  1  0  0  0  0
  5 20  1  0  0  0  0
  6  7  1  0  0  0  0
  6  9  2  0  0  0  0
  6 10  1  0  0  0  0
  7  8  1  0  0  0  0
  9 11  1  0  0  0  0
  9 15  1  0  0  0  0
 10 12  2  0  0  0  0
 10 16  1  0  0  0  0
 11 13  2  0  0  0  0
 11 17  1  0  0  0  0
 12 13  1  0  0  0  0
 12 18  1  0  0  0  0
 13 19  1  0  0  0  0
M  END
> <PUBCHEM_COMPOUND_CID>
142627

> <PUBCHEM_CONFORMER_RMSD>
0.6

> <PUBCHEM_CONFORMER_DIVERSEORDER>
1
3
2

> <PUBCHEM_MMFF94_PARTIAL_CHARGES>
20
1 -0.19
10 -0.15
11 -0.15
12 -0.15
13 -0.15
14 0.84
15 0.15
16 0.15
17 0.15
18 0.15
19 0.15
2 -0.57
20 0.37
3 -0.57
4 -0.66
5 -0.39
6 0.09
7 0.48
8 0.6
9 -0.15

> <PUBCHEM_EFFECTIVE_ROTOR_COUNT>
2

> <PUBCHEM_PHARMACOPHORE_FEATURES>
6
1 2 acceptor
1 3 acceptor
1 4 donor
1 5 donor
5 1 4 5 8 14 rings
6 6 9 10 11 12 13 rings

> <PUBCHEM_HEAVY_ATOM_COUNT>
14

> <PUBCHEM_ATOM_DEF_STEREO_COUNT>
0

> <PUBCHEM_ATOM_UDEF_STEREO_COUNT>
0

> <PUBCHEM_BOND_DEF_STEREO_COUNT>
0

> <PUBCHEM_BOND_UDEF_STEREO_COUNT>
0

> <PUBCHEM_ISOTOPIC_ATOM_COUNT>
0

> <PUBCHEM_COMPONENT_COUNT>
1

> <PUBCHEM_CACTVS_TAUTO_COUNT>
2

> <PUBCHEM_CONFORMER_ID>
00022D2300000001

> <PUBCHEM_MMFF94_ENERGY>
36.3613

> <PUBCHEM_FEATURE_SELFOVERLAP>
30.51

> <PUBCHEM_SHAPE_FINGERPRINT>
10608611 8 18340767035718441713
11031198 65 17132117956978888980
11132069 177 18333452032346068469
11543360 7 16056586677857567469
12251169 10 17530683203664280464
12346645 44 18411417280827015811
13764800 53 18335996297999843209
14325111 11 18410292484415505723
14614273 12 18188202105478885149
14897335 6 18336259038387250175
15219456 202 18059860549590156478
15775835 57 18334856099751324144
16945 1 18408047303742509559
17846911 113 18409727370025544057
18186145 218 17988373593386274794
19786989 88 16988846063950701055
20510252 161 18342742918490965633
20645477 56 18341330102100086920
20645477 70 16773527594182795494
21028194 46 18336549326183230026
21524375 3 18408884018647487906
22802520 49 17915758478175559148
23048698 100 16588025740259649812
23402539 116 18341882030766370246
23557571 272 18130233777481640391
23559900 14 18272093786532853486
2748010 2 18046073661994876447
305870 269 18261668164873913346
369184 2 15502382218633079717
6333449 129 18341891905212629655
7364860 26 18124594176242830375
77492 1 17385725837095058526
81228 2 17909831277300134403

> <PUBCHEM_SHAPE_MULTIPOLES>
260.54
6.59
1.65
0.85
1.48
0.35
0.11
-2.59
-0.6
-0.72
-0.08
0.63
-0.06
0.3

> <PUBCHEM_SHAPE_SELFOVERLAP>
567.081

> <PUBCHEM_SHAPE_VOLUME>
142.3

> <PUBCHEM_COORDINATE_TYPE>
2
5
10

$$$$
