141747
  -OEChem-11012401133D

 29 28  0     0  0  0  0  0  0999 V2000
    2.7641   -1.2127   -0.1181 F   0  0  0  0  0  0  0  0  0  0  0  0
   -2.4748   -0.4931   -2.0767 O   0  5  0  0  0  0  0  0  0  0  0  0
   -4.3293    1.5466   -0.0703 O   0  5  0  0  0  0  0  0  0  0  0  0
   -3.1749   -1.5684   -0.2953 O   0  0  0  0  0  0  0  0  0  0  0  0
   -3.4844    1.1261    1.9111 O   0  0  0  0  0  0  0  0  0  0  0  0
   -0.3205   -2.5056   -0.5160 O   0  5  0  0  0  0  0  0  0  0  0  0
    0.5585   -2.5089    1.5027 O   0  0  0  0  0  0  0  0  0  0  0  0
    3.4361    1.7340    1.3556 O   0  5  0  0  0  0  0  0  0  0  0  0
    1.7392    1.8157   -1.3380 O   0  5  0  0  0  0  0  0  0  0  0  0
    4.7026    0.3221    0.2457 O   0  0  0  0  0  0  0  0  0  0  0  0
    2.1664   -0.1443   -2.2366 O   0  0  0  0  0  0  0  0  0  0  0  0
    0.0299   -0.5482    0.5333 N   0  0  0  0  0  0  0  0  0  0  0  0
   -2.6407   -0.6006   -0.8527 N   0  3  0  0  0  0  0  0  0  0  0  0
   -3.4301    1.1301    0.6721 N   0  3  0  0  0  0  0  0  0  0  0  0
    0.1074   -1.9435    0.4994 N   0  3  0  0  0  0  0  0  0  0  0  0
    3.6025    0.7659    0.6018 N   0  3  0  0  0  0  0  0  0  0  0  0
    2.0705    0.6247   -1.2703 N   0  3  0  0  0  0  0  0  0  0  0  0
   -2.1627    0.5597    0.0230 C   0  0  0  0  0  0  0  0  0  0  0  0
   -1.1995    0.0111    1.0959 C   0  0  0  0  0  0  0  0  0  0  0  0
    1.2104    0.1421    1.0625 C   0  0  0  0  0  0  0  0  0  0  0  0
    2.3731    0.0674    0.0911 C   0  0  0  0  0  0  0  0  0  0  0  0
   -1.5440    1.6797   -0.8202 C   0  0  0  0  0  0  0  0  0  0  0  0
   -0.9758    0.8198    1.8067 H   0  0  0  0  0  0  0  0  0  0  0  0
   -1.7010   -0.7469    1.7166 H   0  0  0  0  0  0  0  0  0  0  0  0
    0.9749    1.2047    1.2152 H   0  0  0  0  0  0  0  0  0  0  0  0
    1.4919   -0.2516    2.0481 H   0  0  0  0  0  0  0  0  0  0  0  0
   -1.1552    2.4821   -0.1828 H   0  0  0  0  0  0  0  0  0  0  0  0
   -2.2681    2.1360   -1.5063 H   0  0  0  0  0  0  0  0  0  0  0  0
   -0.7253    1.3088   -1.4407 H   0  0  0  0  0  0  0  0  0  0  0  0
  1 21  1  0  0  0  0
  2 13  1  0  0  0  0
  3 14  1  0  0  0  0
  4 13  2  0  0  0  0
  5 14  2  0  0  0  0
  6 15  1  0  0  0  0
  7 15  2  0  0  0  0
  8 16  1  0  0  0  0
  9 17  1  0  0  0  0
 10 16  2  0  0  0  0
 11 17  2  0  0  0  0
 12 15  1  0  0  0  0
 12 19  1  0  0  0  0
 12 20  1  0  0  0  0
 13 18  1  0  0  0  0
 14 18  1  0  0  0  0
 16 21  1  0  0  0  0
 17 21  1  0  0  0  0
 18 19  1  0  0  0  0
 18 22  1  0  0  0  0
 19 23  1  0  0  0  0
 19 24  1  0  0  0  0
 20 21  1  0  0  0  0
 20 25  1  0  0  0  0
 20 26  1  0  0  0  0
 22 27  1  0  0  0  0
 22 28  1  0  0  0  0
 22 29  1  0  0  0  0
M  CHG  8   2  -1   3  -1   6  -1   8  -1   9  -1  13   1  14   1  15   1
M  CHG  2  16   1  17   1
M  END
> <PUBCHEM_COMPOUND_CID>
141747

> <PUBCHEM_CONFORMER_RMSD>
0.8

> <PUBCHEM_CONFORMER_DIVERSEORDER>
1
70
39
34
29
44
69
32
62
78
64
27
65
68
24
80
33
55
63
60
37
47
49
9
50
54
52
17
22
56
71
42
51
48
26
3
76
25
21
79
59
75
20
74
35
36
31
40
72
38
7
12
43
66
28
15
77
53
14
30
58
57
11
19
23
5
45
67
73
8
4
61
16
18
2
13
46
41
10
6

> <PUBCHEM_MMFF94_PARTIAL_CHARGES>
21
1 -0.34
10 -0.52
11 -0.52
12 -0.53
13 0.8
14 0.8
15 1.03
16 0.8
17 0.8
18 0.48
19 0.27
2 -0.52
20 0.27
21 0.82
3 -0.52
4 -0.52
5 -0.52
6 -0.52
7 -0.52
8 -0.52
9 -0.52

> <PUBCHEM_EFFECTIVE_ROTOR_COUNT>
9

> <PUBCHEM_PHARMACOPHORE_FEATURES>
14
1 10 acceptor
1 11 acceptor
1 2 acceptor
1 2 anion
1 3 acceptor
1 3 anion
1 4 acceptor
1 5 acceptor
1 6 acceptor
1 7 acceptor
1 8 acceptor
1 8 anion
1 9 acceptor
1 9 anion

> <PUBCHEM_HEAVY_ATOM_COUNT>
22

> <PUBCHEM_ATOM_DEF_STEREO_COUNT>
0

> <PUBCHEM_ATOM_UDEF_STEREO_COUNT>
0

> <PUBCHEM_BOND_DEF_STEREO_COUNT>
0

> <PUBCHEM_BOND_UDEF_STEREO_COUNT>
0

> <PUBCHEM_ISOTOPIC_ATOM_COUNT>
0

> <PUBCHEM_COMPONENT_COUNT>
1

> <PUBCHEM_CACTVS_TAUTO_COUNT>
1

> <PUBCHEM_CONFORMER_ID>
000229B300000001

> <PUBCHEM_MMFF94_ENERGY>
68.0311

> <PUBCHEM_FEATURE_SELFOVERLAP>
71.467

> <PUBCHEM_SHAPE_FINGERPRINT>
11132069 177 18187367618966010281
11370993 70 17132115719005509805
121448 382 18264753519103035819
12633257 1 18337656603866635088
13214271 11 18040438768050460761
15309172 13 18113902662586344761
15775835 57 18413105039470193865
16945 1 17530683195111243282
18186145 218 18272940392541604112
20523700 14 15267339613252082252
21524375 3 18408605872249332882
23402539 116 18343294877781403192
23526113 38 14548739452560615973
23557571 272 18059578047884120810
23559900 14 17917711284743143258
4340502 62 18188221910010735923
474 4 18187368714029637961
7364860 26 18124031234852775170
81228 2 17828771972922584978

> <PUBCHEM_SHAPE_MULTIPOLES>
356.9
6.96
2.11
1.66
0.74
1.01
0.41
-3
-0.82
-0.29
-0.16
-0.11
-0.17
-0.41

> <PUBCHEM_SHAPE_SELFOVERLAP>
716.465

> <PUBCHEM_SHAPE_VOLUME>
211.6

> <PUBCHEM_COORDINATE_TYPE>
2
5
10

$$$$
