138355
  -OEChem-11012401093D

 26 27  0     0  0  0  0  0  0999 V2000
   -3.4141   -1.4113    1.0970 O   0  5  0  0  0  0  0  0  0  0  0  0
    3.4154   -1.4100   -1.0958 O   0  5  0  0  0  0  0  0  0  0  0  0
   -3.4145    1.4115   -1.0964 O   0  5  0  0  0  0  0  0  0  0  0  0
    3.4136    1.4115    1.0972 O   0  5  0  0  0  0  0  0  0  0  0  0
   -3.4135   -1.4122   -1.0983 O   0  0  0  0  0  0  0  0  0  0  0  0
    3.4123   -1.4127    1.0994 O   0  0  0  0  0  0  0  0  0  0  0  0
   -3.4130    1.4122    1.0989 O   0  0  0  0  0  0  0  0  0  0  0  0
    3.4140    1.4115   -1.0980 O   0  0  0  0  0  0  0  0  0  0  0  0
   -2.8149   -1.3565   -0.0005 N   0  3  0  0  0  0  0  0  0  0  0  0
    2.8150   -1.3563    0.0010 N   0  3  0  0  0  0  0  0  0  0  0  0
   -2.8150    1.3566    0.0009 N   0  3  0  0  0  0  0  0  0  0  0  0
    2.8149    1.3563   -0.0005 N   0  3  0  0  0  0  0  0  0  0  0  0
   -0.7077    0.0000   -0.0003 C   0  0  0  0  0  0  0  0  0  0  0  0
    0.7076   -0.0001   -0.0007 C   0  0  0  0  0  0  0  0  0  0  0  0
   -1.3944   -1.2251   -0.0002 C   0  0  0  0  0  0  0  0  0  0  0  0
    1.3943   -1.2251   -0.0009 C   0  0  0  0  0  0  0  0  0  0  0  0
   -1.3944    1.2250    0.0000 C   0  0  0  0  0  0  0  0  0  0  0  0
    1.3944    1.2249   -0.0008 C   0  0  0  0  0  0  0  0  0  0  0  0
   -0.6958   -2.4327   -0.0004 C   0  0  0  0  0  0  0  0  0  0  0  0
    0.6958   -2.4328   -0.0009 C   0  0  0  0  0  0  0  0  0  0  0  0
   -0.6958    2.4326   -0.0001 C   0  0  0  0  0  0  0  0  0  0  0  0
    0.6959    2.4326   -0.0004 C   0  0  0  0  0  0  0  0  0  0  0  0
   -1.2200   -3.3860   -0.0004 H   0  0  0  0  0  0  0  0  0  0  0  0
    1.2200   -3.3860   -0.0008 H   0  0  0  0  0  0  0  0  0  0  0  0
   -1.2201    3.3859    0.0002 H   0  0  0  0  0  0  0  0  0  0  0  0
    1.2201    3.3859   -0.0004 H   0  0  0  0  0  0  0  0  0  0  0  0
  1  9  1  0  0  0  0
  2 10  1  0  0  0  0
  3 11  1  0  0  0  0
  4 12  1  0  0  0  0
  5  9  2  0  0  0  0
  6 10  2  0  0  0  0
  7 11  2  0  0  0  0
  8 12  2  0  0  0  0
  9 15  1  0  0  0  0
 10 16  1  0  0  0  0
 11 17  1  0  0  0  0
 12 18  1  0  0  0  0
 13 14  1  0  0  0  0
 13 15  2  0  0  0  0
 13 17  1  0  0  0  0
 14 16  2  0  0  0  0
 14 18  1  0  0  0  0
 15 19  1  0  0  0  0
 16 20  1  0  0  0  0
 17 21  2  0  0  0  0
 18 22  2  0  0  0  0
 19 20  2  0  0  0  0
 19 23  1  0  0  0  0
 20 24  1  0  0  0  0
 21 22  1  0  0  0  0
 21 25  1  0  0  0  0
 22 26  1  0  0  0  0
M  CHG  8   1  -1   2  -1   3  -1   4  -1   9   1  10   1  11   1  12   1
M  END
> <PUBCHEM_COMPOUND_CID>
138355

> <PUBCHEM_CONFORMER_RMSD>
0.6

> <PUBCHEM_CONFORMER_DIVERSEORDER>
1

> <PUBCHEM_MMFF94_PARTIAL_CHARGES>
24
1 -0.52
10 0.91
11 0.91
12 0.91
15 0.13
16 0.13
17 0.13
18 0.13
19 -0.15
2 -0.52
20 -0.15
21 -0.15
22 -0.15
23 0.15
24 0.15
25 0.15
26 0.15
3 -0.52
4 -0.52
5 -0.52
6 -0.52
7 -0.52
8 -0.52
9 0.91

> <PUBCHEM_EFFECTIVE_ROTOR_COUNT>
4

> <PUBCHEM_PHARMACOPHORE_FEATURES>
14
1 1 acceptor
1 1 anion
1 2 acceptor
1 2 anion
1 3 acceptor
1 3 anion
1 4 acceptor
1 4 anion
1 5 acceptor
1 6 acceptor
1 7 acceptor
1 8 acceptor
6 13 14 15 16 19 20 rings
6 13 14 17 18 21 22 rings

> <PUBCHEM_HEAVY_ATOM_COUNT>
22

> <PUBCHEM_ATOM_DEF_STEREO_COUNT>
0

> <PUBCHEM_ATOM_UDEF_STEREO_COUNT>
0

> <PUBCHEM_BOND_DEF_STEREO_COUNT>
0

> <PUBCHEM_BOND_UDEF_STEREO_COUNT>
0

> <PUBCHEM_ISOTOPIC_ATOM_COUNT>
0

> <PUBCHEM_COMPONENT_COUNT>
1

> <PUBCHEM_CACTVS_TAUTO_COUNT>
1

> <PUBCHEM_CONFORMER_ID>
00021C7300000001

> <PUBCHEM_MMFF94_ENERGY>
103.9731

> <PUBCHEM_FEATURE_SELFOVERLAP>
71.42

> <PUBCHEM_SHAPE_FINGERPRINT>
10863032 1 18343584044500994529
10967382 1 18266458900270867917
1100329 8 16465019714926543088
11132069 177 18340480054556520106
11680986 33 18410572855596209848
13140716 1 18410573942201778617
13583140 156 16878221957260612505
14178342 30 18341326755830310553
14223421 5 18337954622318345435
14790565 3 18266763366091995684
15196674 1 18410573985151451136
15536298 74 18343584044748823426
16945 1 18410575084663078918
18186145 218 18410295770171021404
19591789 44 18410586084074863142
20510252 161 18200598136593050241
20691752 17 17894349973170465378
20739085 24 18192740940801654753
20905425 154 18341335595057232070
21267235 1 18410583885051516647
21501502 16 18410856563934756866
22182313 1 18410856572524691607
23184049 29 18337950095807911226
2334 1 18410292540239511559
23463225 33 18407757032324708112
23559900 14 18270402677509612726
23566358 2 18340216257976345676
2748010 2 18410855460128161919
335352 9 18194683661561889205
350125 39 18410020926513013297
5104073 3 18410855455833195480

> <PUBCHEM_SHAPE_MULTIPOLES>
385.87
5.97
3.05
0.93
0
0
0
0
0
0
0
0
0
0

> <PUBCHEM_SHAPE_SELFOVERLAP>
855.484

> <PUBCHEM_SHAPE_VOLUME>
201.6

> <PUBCHEM_COORDINATE_TYPE>
2
5
10

$$$$
