11746343
  -OEChem-11012401033D

 22 22  0     0  0  0  0  0  0999 V2000
   -1.0739    2.0661   -1.6076 Cl  0  0  0  0  0  0  0  0  0  0  0  0
    3.7165   -0.4305    0.5382 O   0  0  0  0  0  0  0  0  0  0  0  0
    2.2539   -1.2302   -1.6574 O   0  0  0  0  0  0  0  0  0  0  0  0
    3.0381    1.7208    0.8225 O   0  0  0  0  0  0  0  0  0  0  0  0
    0.3489   -1.9485   -0.6409 O   0  0  0  0  0  0  0  0  0  0  0  0
   -1.0242    0.3051    0.4856 C   0  0  0  0  0  0  0  0  0  0  0  0
    0.3794    0.6274    0.7159 C   0  0  0  0  0  0  0  0  0  0  0  0
   -1.7659    0.8993   -0.5353 C   0  0  0  0  0  0  0  0  0  0  0  0
   -1.6227   -0.6319    1.3280 C   0  0  0  0  0  0  0  0  0  0  0  0
   -3.1061    0.5566   -0.7139 C   0  0  0  0  0  0  0  0  0  0  0  0
   -2.9630   -0.9745    1.1494 C   0  0  0  0  0  0  0  0  0  0  0  0
    1.4573    0.0159    0.1718 C   0  0  0  0  0  0  0  0  0  0  0  0
   -3.7048   -0.3802    0.1286 C   0  0  0  0  0  0  0  0  0  0  0  0
    2.7926    0.5589    0.5391 C   0  0  0  0  0  0  0  0  0  0  0  0
    1.2741   -1.1543   -0.7239 C   0  0  0  0  0  0  0  0  0  0  0  0
    0.5201    1.4734    1.3872 H   0  0  0  0  0  0  0  0  0  0  0  0
   -1.0609   -1.1052    2.1300 H   0  0  0  0  0  0  0  0  0  0  0  0
   -3.6988    1.0100   -1.5045 H   0  0  0  0  0  0  0  0  0  0  0  0
   -3.4293   -1.7039    1.8052 H   0  0  0  0  0  0  0  0  0  0  0  0
   -4.7483   -0.6471   -0.0104 H   0  0  0  0  0  0  0  0  0  0  0  0
    4.6072   -0.1016    0.7851 H   0  0  0  0  0  0  0  0  0  0  0  0
    2.1332   -1.9997   -2.2538 H   0  0  0  0  0  0  0  0  0  0  0  0
  1  8  1  0  0  0  0
  2 14  1  0  0  0  0
  2 21  1  0  0  0  0
  3 15  1  0  0  0  0
  3 22  1  0  0  0  0
  4 14  2  0  0  0  0
  5 15  2  0  0  0  0
  6  7  1  0  0  0  0
  6  8  1  0  0  0  0
  6  9  2  0  0  0  0
  7 12  2  0  0  0  0
  7 16  1  0  0  0  0
  8 10  2  0  0  0  0
  9 11  1  0  0  0  0
  9 17  1  0  0  0  0
 10 13  1  0  0  0  0
 10 18  1  0  0  0  0
 11 13  2  0  0  0  0
 11 19  1  0  0  0  0
 12 14  1  0  0  0  0
 12 15  1  0  0  0  0
 13 20  1  0  0  0  0
M  END
> <PUBCHEM_COMPOUND_CID>
11746343

> <PUBCHEM_CONFORMER_RMSD>
0.6

> <PUBCHEM_CONFORMER_DIVERSEORDER>
1
3
4
5
2

> <PUBCHEM_MMFF94_PARTIAL_CHARGES>
22
1 -0.18
10 -0.15
11 -0.15
12 0.03
13 -0.15
14 0.71
15 0.71
16 0.15
17 0.15
18 0.15
19 0.15
2 -0.65
20 0.15
21 0.5
22 0.5
3 -0.65
4 -0.57
5 -0.57
6 0.03
7 -0.18
8 0.18
9 -0.15

> <PUBCHEM_EFFECTIVE_ROTOR_COUNT>
3

> <PUBCHEM_PHARMACOPHORE_FEATURES>
7
1 2 acceptor
1 3 acceptor
1 4 acceptor
1 5 acceptor
3 2 4 14 anion
3 3 5 15 anion
6 6 8 9 10 11 13 rings

> <PUBCHEM_HEAVY_ATOM_COUNT>
15

> <PUBCHEM_ATOM_DEF_STEREO_COUNT>
0

> <PUBCHEM_ATOM_UDEF_STEREO_COUNT>
0

> <PUBCHEM_BOND_DEF_STEREO_COUNT>
0

> <PUBCHEM_BOND_UDEF_STEREO_COUNT>
0

> <PUBCHEM_ISOTOPIC_ATOM_COUNT>
0

> <PUBCHEM_COMPONENT_COUNT>
1

> <PUBCHEM_CACTVS_TAUTO_COUNT>
1

> <PUBCHEM_CONFORMER_ID>
00B33C2700000001

> <PUBCHEM_MMFF94_ENERGY>
43.9678

> <PUBCHEM_FEATURE_SELFOVERLAP>
35.642

> <PUBCHEM_SHAPE_FINGERPRINT>
107287 299 18201725071686704824
11132069 177 18130496543828710002
13296909 8 16515946117181616476
13581323 91 17168142338644716363
14115302 16 15864073225784159307
15219456 202 18411699855230925593
15279307 12 16128651946658928783
15309172 13 18131350851257011474
15375358 24 18335975416037713277
15375462 6 18113334224065658680
16945 1 18059305347604704291
17357990 137 15648474220893361285
18175812 5 18335699468098389057
18380122 1 18409448093882210821
19422 9 16128664032828819951
200 152 17704062984999091161
20201158 50 18411135810097877571
20279233 1 18409450276137040875
20344682 1 18337383933108247805
204376 136 17844802775678611656
20645477 70 17703226200931823847
21061003 4 18202002139916609649
21730867 7 18202005417013267606
22802520 49 18118687617311078231
23236772 104 16128653080783560499
23402539 116 18040983051848932847
23557571 272 18113618963106855061
23559900 14 17822000987640791040
2748010 2 18339927017324294989
474 4 16198719510919219512
57812782 119 18260822687829371938
581208 293 17846499240072707938
77492 1 16056881321019112065
81228 2 17896048650333205637
8272917 22 17346048775075699277

> <PUBCHEM_SHAPE_MULTIPOLES>
287.09
5.72
1.74
1.36
0.92
0.79
-0.34
-0.48
0.8
-0.59
-0.41
0.68
-0.16
1.19

> <PUBCHEM_SHAPE_SELFOVERLAP>
598.151

> <PUBCHEM_SHAPE_VOLUME>
162.6

> <PUBCHEM_COORDINATE_TYPE>
2
5
10

$$$$
