69004
  -OEChem-11012400383D

 17 16  0     0  0  0  0  0  0999 V2000
    0.0073   -0.2038    0.0000 S   0  0  0  0  0  0  0  0  0  0  0  0
   -0.0035   -0.9250    1.2621 O   0  0  0  0  0  0  0  0  0  0  0  0
   -0.0035   -0.9249   -1.2621 O   0  0  0  0  0  0  0  0  0  0  0  0
    1.3891    0.8916    0.0000 C   0  0  0  0  0  0  0  0  0  0  0  0
   -1.3908    0.8958    0.0000 C   0  0  0  0  0  0  0  0  0  0  0  0
    2.6978    0.1335    0.0000 C   0  0  0  0  0  0  0  0  0  0  0  0
   -2.6965    0.1327    0.0000 C   0  0  0  0  0  0  0  0  0  0  0  0
    1.3147    1.5224   -0.8907 H   0  0  0  0  0  0  0  0  0  0  0  0
    1.3148    1.5225    0.8907 H   0  0  0  0  0  0  0  0  0  0  0  0
   -1.3155    1.5256    0.8914 H   0  0  0  0  0  0  0  0  0  0  0  0
   -1.3155    1.5256   -0.8913 H   0  0  0  0  0  0  0  0  0  0  0  0
    3.5412    0.8308   -0.0001 H   0  0  0  0  0  0  0  0  0  0  0  0
    2.7857   -0.5060    0.8842 H   0  0  0  0  0  0  0  0  0  0  0  0
    2.7855   -0.5062   -0.8842 H   0  0  0  0  0  0  0  0  0  0  0  0
   -3.5426    0.8266   -0.0001 H   0  0  0  0  0  0  0  0  0  0  0  0
   -2.7814   -0.5073   -0.8840 H   0  0  0  0  0  0  0  0  0  0  0  0
   -2.7814   -0.5071    0.8842 H   0  0  0  0  0  0  0  0  0  0  0  0
  1  2  2  0  0  0  0
  1  3  2  0  0  0  0
  1  4  1  0  0  0  0
  1  5  1  0  0  0  0
  4  6  1  0  0  0  0
  4  8  1  0  0  0  0
  4  9  1  0  0  0  0
  5  7  1  0  0  0  0
  5 10  1  0  0  0  0
  5 11  1  0  0  0  0
  6 12  1  0  0  0  0
  6 13  1  0  0  0  0
  6 14  1  0  0  0  0
  7 15  1  0  0  0  0
  7 16  1  0  0  0  0
  7 17  1  0  0  0  0
M  END
> <PUBCHEM_COMPOUND_CID>
69004

> <PUBCHEM_CONFORMER_RMSD>
0.4

> <PUBCHEM_CONFORMER_DIVERSEORDER>
1
4
5
2
3

> <PUBCHEM_MMFF94_PARTIAL_CHARGES>
5
1 1.09
2 -0.65
3 -0.65
4 0.11
5 0.11

> <PUBCHEM_EFFECTIVE_ROTOR_COUNT>
2

> <PUBCHEM_PHARMACOPHORE_FEATURES>
2
1 2 acceptor
1 3 acceptor

> <PUBCHEM_HEAVY_ATOM_COUNT>
7

> <PUBCHEM_ATOM_DEF_STEREO_COUNT>
0

> <PUBCHEM_ATOM_UDEF_STEREO_COUNT>
0

> <PUBCHEM_BOND_DEF_STEREO_COUNT>
0

> <PUBCHEM_BOND_UDEF_STEREO_COUNT>
0

> <PUBCHEM_ISOTOPIC_ATOM_COUNT>
0

> <PUBCHEM_COMPONENT_COUNT>
1

> <PUBCHEM_CACTVS_TAUTO_COUNT>
1

> <PUBCHEM_CONFORMER_ID>
00010D8C00000001

> <PUBCHEM_MMFF94_ENERGY>
-1.6633

> <PUBCHEM_FEATURE_SELFOVERLAP>
10.166

> <PUBCHEM_SHAPE_FINGERPRINT>
16714656 1 18060414746305328397
20096714 4 18411133653845076696
29004967 10 17632304457839055689
5084963 1 18408041809873066329
5460574 1 9295290542740602208
5943 1 17401704953508172742

> <PUBCHEM_SHAPE_MULTIPOLES>
136.17
3.39
1.04
0.95
0
0.02
0
0.63
0
0
0
0
-0.32
0

> <PUBCHEM_SHAPE_SELFOVERLAP>
231.281

> <PUBCHEM_SHAPE_VOLUME>
92.5

> <PUBCHEM_COORDINATE_TYPE>
2
5
10

$$$$
