136888469
  -OEChem-11012401253D

 82 87  0     1  0  0  0  0  0999 V2000
   -3.0150    4.6052   -0.4866 O   0  0  0  0  0  0  0  0  0  0  0  0
   -4.8679    3.1958    1.2453 O   0  0  0  0  0  0  0  0  0  0  0  0
   -3.5964    1.5857    2.3070 O   0  0  0  0  0  0  0  0  0  0  0  0
   -7.3313   -2.3985   -1.4285 O   0  0  0  0  0  0  0  0  0  0  0  0
   -5.5639   -1.9469   -2.8409 O   0  0  0  0  0  0  0  0  0  0  0  0
    7.7322    1.1146   -0.4103 O   0  0  0  0  0  0  0  0  0  0  0  0
   -0.8406   -0.9000    0.4620 N   0  0  0  0  0  0  0  0  0  0  0  0
    0.5493    1.6123   -0.1604 N   0  0  0  0  0  0  0  0  0  0  0  0
    1.8997   -2.0266    0.3891 N   0  0  0  0  0  0  0  0  0  0  0  0
    3.0727    0.5523   -0.3449 N   0  0  0  0  0  0  0  0  0  0  0  0
   -3.1609   -0.9783    0.6259 C   0  0  1  0  0  0  0  0  0  0  0  0
   -2.5431   -2.2685    1.2574 C   0  0  1  0  0  0  0  0  0  0  0  0
   -1.9464   -0.0924    0.3794 C   0  0  0  0  0  0  0  0  0  0  0  0
   -3.8795   -1.3079   -0.6848 C   0  0  0  0  0  0  0  0  0  0  0  0
   -1.9677    1.2284    0.1367 C   0  0  0  0  0  0  0  0  0  0  0  0
   -1.0684   -2.1755    0.8849 C   0  0  0  0  0  0  0  0  0  0  0  0
   -3.1353    2.2072    0.0318 C   0  0  2  0  0  0  0  0  0  0  0  0
   -2.7267   -2.2782    2.7771 C   0  0  0  0  0  0  0  0  0  0  0  0
   -0.6926    1.9330   -0.1235 C   0  0  0  0  0  0  0  0  0  0  0  0
   -1.0184    3.3177   -0.4017 C   0  0  0  0  0  0  0  0  0  0  0  0
   -5.3259   -1.7114   -0.4319 C   0  0  0  0  0  0  0  0  0  0  0  0
   -2.4607    3.5326   -0.3214 C   0  0  0  0  0  0  0  0  0  0  0  0
   -0.2169   -3.2062    0.9869 C   0  0  0  0  0  0  0  0  0  0  0  0
    0.1831    3.8480   -0.6175 C   0  0  0  0  0  0  0  0  0  0  0  0
   -3.8700    2.2708    1.3308 C   0  0  0  0  0  0  0  0  0  0  0  0
    1.1938    2.7948   -0.4770 C   0  0  0  0  0  0  0  0  0  0  0  0
    1.2238   -3.1108    0.6379 C   0  0  0  0  0  0  0  0  0  0  0  0
   -6.0512   -2.0221   -1.7214 C   0  0  0  0  0  0  0  0  0  0  0  0
    0.4881    5.2644   -0.9485 C   0  0  0  0  0  0  0  0  0  0  0  0
    2.0168   -4.3586    0.5792 C   0  0  0  0  0  0  0  0  0  0  0  0
    2.5238    2.9251   -0.6192 C   0  0  0  0  0  0  0  0  0  0  0  0
    3.2406   -3.8996    0.2647 C   0  0  0  0  0  0  0  0  0  0  0  0
    3.1895   -2.4418    0.1427 C   0  0  0  0  0  0  0  0  0  0  0  0
    3.5090    1.8653   -0.4897 C   0  0  0  0  0  0  0  0  0  0  0  0
    1.4922   -5.7275    0.8104 C   0  0  0  0  0  0  0  0  0  0  0  0
    4.8505    2.0011   -0.5207 C   0  0  0  0  0  0  0  0  0  0  0  0
    4.1522   -0.1797   -0.2741 C   0  0  0  0  0  0  0  0  0  0  0  0
    4.2363   -1.6528   -0.1510 C   0  0  0  0  0  0  0  0  0  0  0  0
    5.3793    0.6623   -0.3716 C   0  0  0  0  0  0  0  0  0  0  0  0
   -5.6567    3.3606    2.4280 C   0  0  0  0  0  0  0  0  0  0  0  0
    5.7053    3.2103   -0.6655 C   0  0  0  0  0  0  0  0  0  0  0  0
    4.3880   -4.7556    0.0872 C   0  0  0  0  0  0  0  0  0  0  0  0
   -8.1497   -2.7277   -2.5557 C   0  0  0  0  0  0  0  0  0  0  0  0
    6.6565    0.2758   -0.3234 C   0  0  0  0  0  0  0  0  0  0  0  0
    6.3258    3.6337    0.6566 C   0  0  0  0  0  0  0  0  0  0  0  0
    5.0766   -4.8306   -1.0507 C   0  0  0  0  0  0  0  0  0  0  0  0
   -3.8638   -0.5202    1.3246 H   0  0  0  0  0  0  0  0  0  0  0  0
   -2.9947   -3.1761    0.8391 H   0  0  0  0  0  0  0  0  0  0  0  0
   -3.3543   -2.0974   -1.2384 H   0  0  0  0  0  0  0  0  0  0  0  0
   -3.8836   -0.4339   -1.3486 H   0  0  0  0  0  0  0  0  0  0  0  0
    0.0885   -0.5655    0.2504 H   0  0  0  0  0  0  0  0  0  0  0  0
   -3.8022    1.9084   -0.7823 H   0  0  0  0  0  0  0  0  0  0  0  0
   -2.2763   -1.3971    3.2480 H   0  0  0  0  0  0  0  0  0  0  0  0
   -2.2687   -3.1678    3.2228 H   0  0  0  0  0  0  0  0  0  0  0  0
   -3.7917   -2.2893    3.0328 H   0  0  0  0  0  0  0  0  0  0  0  0
   -5.3615   -2.6033    0.2031 H   0  0  0  0  0  0  0  0  0  0  0  0
   -5.8601   -0.8947    0.0670 H   0  0  0  0  0  0  0  0  0  0  0  0
   -0.5893   -4.1607    1.3439 H   0  0  0  0  0  0  0  0  0  0  0  0
    0.9907    5.3357   -1.9186 H   0  0  0  0  0  0  0  0  0  0  0  0
   -0.4229    5.8695   -1.0026 H   0  0  0  0  0  0  0  0  0  0  0  0
    1.1359    5.7093   -0.1862 H   0  0  0  0  0  0  0  0  0  0  0  0
    2.9205    3.9105   -0.8501 H   0  0  0  0  0  0  0  0  0  0  0  0
    1.1235   -5.8309    1.8357 H   0  0  0  0  0  0  0  0  0  0  0  0
    2.2622   -6.4904    0.6600 H   0  0  0  0  0  0  0  0  0  0  0  0
    0.6739   -5.9494    0.1181 H   0  0  0  0  0  0  0  0  0  0  0  0
    5.2146   -2.0912   -0.3105 H   0  0  0  0  0  0  0  0  0  0  0  0
   -6.4152    4.1219    2.2275 H   0  0  0  0  0  0  0  0  0  0  0  0
   -5.0287    3.6999    3.2573 H   0  0  0  0  0  0  0  0  0  0  0  0
   -6.1590    2.4222    2.6817 H   0  0  0  0  0  0  0  0  0  0  0  0
    6.4854    3.0421   -1.4167 H   0  0  0  0  0  0  0  0  0  0  0  0
    5.1223    4.0528   -1.0539 H   0  0  0  0  0  0  0  0  0  0  0  0
    4.6611   -5.3970    0.9204 H   0  0  0  0  0  0  0  0  0  0  0  0
   -9.1395   -3.0091   -2.1865 H   0  0  0  0  0  0  0  0  0  0  0  0
   -7.7229   -3.5766   -3.0984 H   0  0  0  0  0  0  0  0  0  0  0  0
   -8.2540   -1.8602   -3.2142 H   0  0  0  0  0  0  0  0  0  0  0  0
    6.9788   -0.7490   -0.2022 H   0  0  0  0  0  0  0  0  0  0  0  0
    6.9086    2.8458    1.1392 H   0  0  0  0  0  0  0  0  0  0  0  0
    5.5484    3.9451    1.3637 H   0  0  0  0  0  0  0  0  0  0  0  0
    6.9893    4.4906    0.4993 H   0  0  0  0  0  0  0  0  0  0  0  0
    5.9188   -5.5093   -1.1354 H   0  0  0  0  0  0  0  0  0  0  0  0
    4.8240   -4.2342   -1.9211 H   0  0  0  0  0  0  0  0  0  0  0  0
    8.5315    0.5640   -0.3410 H   0  0  0  0  0  0  0  0  0  0  0  0
  1 22  2  0  0  0  0
  2 25  1  0  0  0  0
  2 40  1  0  0  0  0
  3 25  2  0  0  0  0
  4 28  1  0  0  0  0
  4 43  1  0  0  0  0
  5 28  2  0  0  0  0
  6 44  1  0  0  0  0
  6 82  1  0  0  0  0
  7 13  1  0  0  0  0
  7 16  1  0  0  0  0
  7 51  1  0  0  0  0
  8 19  2  0  0  0  0
  8 26  1  0  0  0  0
  9 27  2  0  0  0  0
  9 33  1  0  0  0  0
 10 34  1  0  0  0  0
 10 37  2  0  0  0  0
 11 12  1  0  0  0  0
 11 13  1  0  0  0  0
 11 14  1  0  0  0  0
 11 47  1  0  0  0  0
 12 16  1  0  0  0  0
 12 18  1  0  0  0  0
 12 48  1  0  0  0  0
 13 15  2  0  0  0  0
 14 21  1  0  0  0  0
 14 49  1  0  0  0  0
 14 50  1  0  0  0  0
 15 17  1  0  0  0  0
 15 19  1  0  0  0  0
 16 23  2  0  0  0  0
 17 22  1  0  0  0  0
 17 25  1  0  0  0  0
 17 52  1  0  0  0  0
 18 53  1  0  0  0  0
 18 54  1  0  0  0  0
 18 55  1  0  0  0  0
 19 20  1  0  0  0  0
 20 22  1  0  0  0  0
 20 24  2  0  0  0  0
 21 28  1  0  0  0  0
 21 56  1  0  0  0  0
 21 57  1  0  0  0  0
 23 27  1  0  0  0  0
 23 58  1  0  0  0  0
 24 26  1  0  0  0  0
 24 29  1  0  0  0  0
 26 31  2  0  0  0  0
 27 30  1  0  0  0  0
 29 59  1  0  0  0  0
 29 60  1  0  0  0  0
 29 61  1  0  0  0  0
 30 32  2  0  0  0  0
 30 35  1  0  0  0  0
 31 34  1  0  0  0  0
 31 62  1  0  0  0  0
 32 33  1  0  0  0  0
 32 42  1  0  0  0  0
 33 38  2  0  0  0  0
 34 36  2  0  0  0  0
 35 63  1  0  0  0  0
 35 64  1  0  0  0  0
 35 65  1  0  0  0  0
 36 39  1  0  0  0  0
 36 41  1  0  0  0  0
 37 38  1  0  0  0  0
 37 39  1  0  0  0  0
 38 66  1  0  0  0  0
 39 44  2  3  0  0  0
 40 67  1  0  0  0  0
 40 68  1  0  0  0  0
 40 69  1  0  0  0  0
 41 45  1  0  0  0  0
 41 70  1  0  0  0  0
 41 71  1  0  0  0  0
 42 46  2  0  0  0  0
 42 72  1  0  0  0  0
 43 73  1  0  0  0  0
 43 74  1  0  0  0  0
 43 75  1  0  0  0  0
 44 76  1  0  0  0  0
 45 77  1  0  0  0  0
 45 78  1  0  0  0  0
 45 79  1  0  0  0  0
 46 80  1  0  0  0  0
 46 81  1  0  0  0  0
M  END
> <PUBCHEM_COMPOUND_CID>
136888469

> <PUBCHEM_CONFORMER_RMSD>
1.2

> <PUBCHEM_CONFORMER_DIVERSEORDER>
1
3
2
4

> <PUBCHEM_MMFF94_PARTIAL_CHARGES>
51
1 -0.57
10 -0.62
11 0.14
12 0.14
13 -0.04
15 -0.12
16 -0.04
17 0.26
19 0.42
2 -0.43
20 0.03
21 0.06
22 0.49
23 -0.14
24 -0.14
25 0.66
26 0.17
27 0.42
28 0.66
29 0.14
3 -0.57
30 -0.12
31 -0.15
33 0.17
34 0.17
35 0.14
36 -0.14
37 0.42
38 -0.14
39 0.01
4 -0.43
40 0.28
41 0.14
42 -0.15
43 0.28
44 -0.07
46 -0.3
5 -0.57
51 0.4
58 0.15
6 -0.53
62 0.15
66 0.15
7 -0.6
72 0.15
76 0.15
8 -0.62
80 0.15
81 0.15
82 0.45
9 -0.62

> <PUBCHEM_EFFECTIVE_ROTOR_COUNT>
8.6

> <PUBCHEM_PHARMACOPHORE_FEATURES>
17
1 1 acceptor
1 10 acceptor
1 17 anion
1 3 acceptor
1 45 hydrophobe
1 46 hydrophobe
1 5 acceptor
1 6 donor
1 7 cation
1 7 donor
1 8 acceptor
1 9 acceptor
5 10 34 36 37 39 rings
5 15 17 19 20 22 rings
5 7 11 12 13 16 rings
5 8 19 20 24 26 rings
5 9 27 30 32 33 rings

> <PUBCHEM_HEAVY_ATOM_COUNT>
46

> <PUBCHEM_ATOM_DEF_STEREO_COUNT>
3

> <PUBCHEM_ATOM_UDEF_STEREO_COUNT>
0

> <PUBCHEM_BOND_DEF_STEREO_COUNT>
0

> <PUBCHEM_BOND_UDEF_STEREO_COUNT>
1

> <PUBCHEM_ISOTOPIC_ATOM_COUNT>
0

> <PUBCHEM_COMPONENT_COUNT>
1

> <PUBCHEM_CACTVS_TAUTO_COUNT>
-1

> <PUBCHEM_CONFORMER_ID>
0828C09500000001

> <PUBCHEM_MMFF94_ENERGY>
145.2775

> <PUBCHEM_FEATURE_SELFOVERLAP>
86.527

> <PUBCHEM_SHAPE_FINGERPRINT>
10290309 65 18262805060441125724
10653451 467 17608944419197437579
10675989 125 18193550301988170509
1100329 8 17830738656106898186
11135609 187 18335131046889655565
11513181 2 18270405979743728630
12440605 4 18339370678206562921
1361 2 18337945817820576591
14068700 675 18129941312190456469
15082195 135 18339066121226646963
15320467 1 18264215879977042682
15328829 1 17845672451201979723
15351339 4 18188755207225089027
15361156 5 18120390773655443846
15400415 2 18337117847480361380
15890870 6 18189048875556411694
15927050 60 18193840340454864965
16112460 7 18052272695725638744
20764821 26 18334584507889831340
21133410 171 17393278236591358451
21133410 38 18341060652841992155
22311459 1 18337674242521352355
23559900 14 18048312542199340697
3388396 114 18409725170923369126
3882209 13 17828166984109091898
5265222 85 18190765162132330516
5776283 40 17974031478748551414
6004065 56 18122901194644529285
6036956 94 17972325280655659932
6371009 1 18336539525721988298
9961470 85 18336272232289725416

> <PUBCHEM_SHAPE_MULTIPOLES>
891.52
16.49
8.73
1.72
4.22
2.12
0.11
2.54
-6.73
-4.29
0.05
4.47
0.73
-4.12

> <PUBCHEM_SHAPE_SELFOVERLAP>
1962.751

> <PUBCHEM_SHAPE_VOLUME>
483.2

> <PUBCHEM_COORDINATE_TYPE>
2
5
10

$$$$
