7386
  -OEChem-11012400533D

 17 17  0     0  0  0  0  0  0999 V2000
   -2.4852   -1.2270    1.0906 F   0  0  0  0  0  0  0  0  0  0  0  0
   -3.3458    0.4444   -0.0023 F   0  0  0  0  0  0  0  0  0  0  0  0
   -2.5029   -1.2361   -1.0838 F   0  0  0  0  0  0  0  0  0  0  0  0
    3.7468   -0.1038   -0.0023 O   0  5  0  0  0  0  0  0  0  0  0  0
    2.5396   -1.9372    0.0000 O   0  0  0  0  0  0  0  0  0  0  0  0
    2.6352   -0.6860   -0.0009 N   0  3  0  0  0  0  0  0  0  0  0  0
   -0.9624    0.2378    0.0003 C   0  0  0  0  0  0  0  0  0  0  0  0
    0.2022   -0.5300    0.0003 C   0  0  0  0  0  0  0  0  0  0  0  0
    1.4494    0.0949    0.0000 C   0  0  0  0  0  0  0  0  0  0  0  0
   -0.8798    1.6303   -0.0001 C   0  0  0  0  0  0  0  0  0  0  0  0
   -2.2961   -0.4297   -0.0009 C   0  0  0  0  0  0  0  0  0  0  0  0
    1.5318    1.4874   -0.0005 C   0  0  0  0  0  0  0  0  0  0  0  0
    0.3672    2.2551   -0.0004 C   0  0  0  0  0  0  0  0  0  0  0  0
    0.1098   -1.6138    0.0001 H   0  0  0  0  0  0  0  0  0  0  0  0
   -1.7755    2.2453   -0.0004 H   0  0  0  0  0  0  0  0  0  0  0  0
    2.4857    2.0086   -0.0009 H   0  0  0  0  0  0  0  0  0  0  0  0
    0.4312    3.3393   -0.0009 H   0  0  0  0  0  0  0  0  0  0  0  0
  1 11  1  0  0  0  0
  2 11  1  0  0  0  0
  3 11  1  0  0  0  0
  4  6  1  0  0  0  0
  5  6  2  0  0  0  0
  6  9  1  0  0  0  0
  7  8  2  0  0  0  0
  7 10  1  0  0  0  0
  7 11  1  0  0  0  0
  8  9  1  0  0  0  0
  8 14  1  0  0  0  0
  9 12  2  0  0  0  0
 10 13  2  0  0  0  0
 10 15  1  0  0  0  0
 12 13  1  0  0  0  0
 12 16  1  0  0  0  0
 13 17  1  0  0  0  0
M  CHG  2   4  -1   6   1
M  END
> <PUBCHEM_COMPOUND_CID>
7386

> <PUBCHEM_CONFORMER_RMSD>
0.6

> <PUBCHEM_CONFORMER_DIVERSEORDER>
1

> <PUBCHEM_MMFF94_PARTIAL_CHARGES>
17
1 -0.34
10 -0.15
11 1.16
12 -0.15
13 -0.15
14 0.15
15 0.15
16 0.15
17 0.15
2 -0.34
3 -0.34
4 -0.52
5 -0.52
6 0.91
7 -0.14
8 -0.15
9 0.13

> <PUBCHEM_EFFECTIVE_ROTOR_COUNT>
2

> <PUBCHEM_PHARMACOPHORE_FEATURES>
4
1 4 acceptor
1 4 anion
1 5 acceptor
6 7 8 9 10 12 13 rings

> <PUBCHEM_HEAVY_ATOM_COUNT>
13

> <PUBCHEM_ATOM_DEF_STEREO_COUNT>
0

> <PUBCHEM_ATOM_UDEF_STEREO_COUNT>
0

> <PUBCHEM_BOND_DEF_STEREO_COUNT>
0

> <PUBCHEM_BOND_UDEF_STEREO_COUNT>
0

> <PUBCHEM_ISOTOPIC_ATOM_COUNT>
0

> <PUBCHEM_COMPONENT_COUNT>
1

> <PUBCHEM_CACTVS_TAUTO_COUNT>
1

> <PUBCHEM_CONFORMER_ID>
00001CDA00000001

> <PUBCHEM_MMFF94_ENERGY>
28.3881

> <PUBCHEM_FEATURE_SELFOVERLAP>
20.379

> <PUBCHEM_SHAPE_FINGERPRINT>
10130415 120 18335138674392675825
12932764 1 17916031346307067585
14128692 85 18342738550256004668
16945 1 18122344854582843009
17990270 104 18263641934327140473
193761 8 17402049397522513060
20201158 50 18334574650618328602
20281407 28 18343582928099589522
20645477 70 18265889336558882679
20711985 344 17970049085348364669
20871998 184 18128535964145955580
20871998 22 18342470205078694542
23552423 10 18336828713900910357
2748010 2 18410847767958266564
3312278 4 18334299751289139802
7364860 26 18198340852190543152
81228 2 18192435164815963896

> <PUBCHEM_SHAPE_MULTIPOLES>
228.99
4.77
1.95
0.7
0.47
0.58
0
-2.04
-0.01
0.42
0
-0.34
-0.14
0

> <PUBCHEM_SHAPE_SELFOVERLAP>
485.506

> <PUBCHEM_SHAPE_VOLUME>
129.2

> <PUBCHEM_COORDINATE_TYPE>
2
5
10

$$$$
