136881
  -OEChem-11012400483D

 15 15  0     1  0  0  0  0  0999 V2000
    1.1247    1.5780    0.9414 Cl  0  0  0  0  0  0  0  0  0  0  0  0
   -1.1245    1.5783   -0.9414 Cl  0  0  0  0  0  0  0  0  0  0  0  0
   -0.4575   -0.7001    0.5947 C   0  0  1  0  0  0  0  0  0  0  0  0
    0.4574   -0.7003   -0.5947 C   0  0  1  0  0  0  0  0  0  0  0  0
    0.0000    0.5993    0.0000 C   0  0  0  0  0  0  0  0  0  0  0  0
   -1.8533   -1.1776    0.4244 C   0  0  0  0  0  0  0  0  0  0  0  0
    1.8533   -1.1776   -0.4245 C   0  0  0  0  0  0  0  0  0  0  0  0
   -0.0585   -0.9879    1.5607 H   0  0  0  0  0  0  0  0  0  0  0  0
    0.0583   -0.9880   -1.5607 H   0  0  0  0  0  0  0  0  0  0  0  0
   -2.5278   -0.6199    1.0819 H   0  0  0  0  0  0  0  0  0  0  0  0
   -2.2194   -1.0858   -0.6032 H   0  0  0  0  0  0  0  0  0  0  0  0
   -1.9188   -2.2356    0.6995 H   0  0  0  0  0  0  0  0  0  0  0  0
    1.9191   -2.2354   -0.7000 H   0  0  0  0  0  0  0  0  0  0  0  0
    2.5276   -0.6195   -1.0819 H   0  0  0  0  0  0  0  0  0  0  0  0
    2.2193   -1.0860    0.6031 H   0  0  0  0  0  0  0  0  0  0  0  0
  1  5  1  0  0  0  0
  2  5  1  0  0  0  0
  3  4  1  0  0  0  0
  3  5  1  0  0  0  0
  3  6  1  0  0  0  0
  3  8  1  0  0  0  0
  4  5  1  0  0  0  0
  4  7  1  0  0  0  0
  4  9  1  0  0  0  0
  6 10  1  0  0  0  0
  6 11  1  0  0  0  0
  6 12  1  0  0  0  0
  7 13  1  0  0  0  0
  7 14  1  0  0  0  0
  7 15  1  0  0  0  0
M  END
> <PUBCHEM_COMPOUND_CID>
136881

> <PUBCHEM_CONFORMER_RMSD>
0.4

> <PUBCHEM_CONFORMER_DIVERSEORDER>
1
3
2

> <PUBCHEM_MMFF94_PARTIAL_CHARGES>
9
1 -0.23
2 -0.23
3 -0.19
4 -0.19
5 0.45
6 0.09
7 0.09
8 0.1
9 0.1

> <PUBCHEM_EFFECTIVE_ROTOR_COUNT>
0.6

> <PUBCHEM_PHARMACOPHORE_FEATURES>
0

> <PUBCHEM_HEAVY_ATOM_COUNT>
7

> <PUBCHEM_ATOM_DEF_STEREO_COUNT>
0

> <PUBCHEM_ATOM_UDEF_STEREO_COUNT>
2

> <PUBCHEM_BOND_DEF_STEREO_COUNT>
0

> <PUBCHEM_BOND_UDEF_STEREO_COUNT>
0

> <PUBCHEM_ISOTOPIC_ATOM_COUNT>
0

> <PUBCHEM_COMPONENT_COUNT>
1

> <PUBCHEM_CACTVS_TAUTO_COUNT>
1

> <PUBCHEM_CONFORMER_ID>
000216B100000001

> <PUBCHEM_MMFF94_ENERGY>
12.9246

> <PUBCHEM_FEATURE_SELFOVERLAP>
0

> <PUBCHEM_SHAPE_FINGERPRINT>
137420 1 14799166724694653333
21040471 1 17610623011872892175
23211744 25 17904462027077019701
29004967 10 18044675314557800227
5084963 1 16902750176106251315
5943 1 10841805715027373920
68250623 7 17257584310823928902

> <PUBCHEM_SHAPE_MULTIPOLES>
147.8
2.03
1.96
1.04
0
0.57
0
-0.55
0
0
0
0
0.25
0.84

> <PUBCHEM_SHAPE_SELFOVERLAP>
265.754

> <PUBCHEM_SHAPE_VOLUME>
95.6

> <PUBCHEM_COORDINATE_TYPE>
2
5
10

$$$$
