144224
  -OEChem-11012400553D

 30 32  0     0  0  0  0  0  0999 V2000
    1.1058    3.0010    0.4818 O   0  0  0  0  0  0  0  0  0  0  0  0
    0.0139    1.0536    0.0070 N   0  0  0  0  0  0  0  0  0  0  0  0
   -0.9657    3.0708   -0.5614 N   0  0  0  0  0  0  0  0  0  0  0  0
    0.6691   -1.1079   -0.0475 C   0  0  0  0  0  0  0  0  0  0  0  0
    1.1080    0.1983    0.0130 C   0  0  0  0  0  0  0  0  0  0  0  0
    1.5945   -2.2772   -0.1054 C   0  0  0  0  0  0  0  0  0  0  0  0
    2.5493    0.6078    0.0412 C   0  0  0  0  0  0  0  0  0  0  0  0
    3.0211   -1.8841    0.3092 C   0  0  0  0  0  0  0  0  0  0  0  0
    3.4581   -0.5696   -0.3533 C   0  0  0  0  0  0  0  0  0  0  0  0
   -0.7457   -1.0867   -0.0498 C   0  0  0  0  0  0  0  0  0  0  0  0
   -1.1432    0.2564    0.0264 C   0  0  0  0  0  0  0  0  0  0  0  0
   -1.7262   -2.1023   -0.0809 C   0  0  0  0  0  0  0  0  0  0  0  0
   -2.5085    0.5851    0.1569 C   0  0  0  0  0  0  0  0  0  0  0  0
    0.1085    2.4588    0.0289 C   0  0  0  0  0  0  0  0  0  0  0  0
   -3.0779   -1.7657    0.0023 C   0  0  0  0  0  0  0  0  0  0  0  0
   -3.4611   -0.4384    0.1318 C   0  0  0  0  0  0  0  0  0  0  0  0
    1.2363   -3.0841    0.5436 H   0  0  0  0  0  0  0  0  0  0  0  0
    1.6079   -2.6631   -1.1321 H   0  0  0  0  0  0  0  0  0  0  0  0
    2.7401    1.4386   -0.6465 H   0  0  0  0  0  0  0  0  0  0  0  0
    2.8052    0.9371    1.0553 H   0  0  0  0  0  0  0  0  0  0  0  0
    3.0691   -1.7689    1.3997 H   0  0  0  0  0  0  0  0  0  0  0  0
    3.7148   -2.6887    0.0406 H   0  0  0  0  0  0  0  0  0  0  0  0
    3.4376   -0.6969   -1.4435 H   0  0  0  0  0  0  0  0  0  0  0  0
    4.4937   -0.3378   -0.0797 H   0  0  0  0  0  0  0  0  0  0  0  0
   -1.4359   -3.1473   -0.1507 H   0  0  0  0  0  0  0  0  0  0  0  0
   -2.8481    1.6050    0.3001 H   0  0  0  0  0  0  0  0  0  0  0  0
   -3.8305   -2.5488   -0.0139 H   0  0  0  0  0  0  0  0  0  0  0  0
   -4.5152   -0.1893    0.2237 H   0  0  0  0  0  0  0  0  0  0  0  0
   -1.0105    4.0840   -0.6040 H   0  0  0  0  0  0  0  0  0  0  0  0
   -1.6860    2.5858   -1.0834 H   0  0  0  0  0  0  0  0  0  0  0  0
  1 14  2  0  0  0  0
  2  5  1  0  0  0  0
  2 11  1  0  0  0  0
  2 14  1  0  0  0  0
  3 14  1  0  0  0  0
  3 29  1  0  0  0  0
  3 30  1  0  0  0  0
  4  5  2  0  0  0  0
  4  6  1  0  0  0  0
  4 10  1  0  0  0  0
  5  7  1  0  0  0  0
  6  8  1  0  0  0  0
  6 17  1  0  0  0  0
  6 18  1  0  0  0  0
  7  9  1  0  0  0  0
  7 19  1  0  0  0  0
  7 20  1  0  0  0  0
  8  9  1  0  0  0  0
  8 21  1  0  0  0  0
  8 22  1  0  0  0  0
  9 23  1  0  0  0  0
  9 24  1  0  0  0  0
 10 11  1  0  0  0  0
 10 12  2  0  0  0  0
 11 13  2  0  0  0  0
 12 15  1  0  0  0  0
 12 25  1  0  0  0  0
 13 16  1  0  0  0  0
 13 26  1  0  0  0  0
 15 16  2  0  0  0  0
 15 27  1  0  0  0  0
 16 28  1  0  0  0  0
M  END
> <PUBCHEM_COMPOUND_CID>
144224

> <PUBCHEM_CONFORMER_RMSD>
0.6

> <PUBCHEM_CONFORMER_DIVERSEORDER>
1
2

> <PUBCHEM_MMFF94_PARTIAL_CHARGES>
19
1 -0.57
11 -0.15
12 -0.15
13 -0.15
14 0.64
15 -0.15
16 -0.15
2 0.29
25 0.15
26 0.15
27 0.15
28 0.15
29 0.37
3 -0.8
30 0.37
4 -0.18
5 -0.33
6 0.18
7 0.18

> <PUBCHEM_EFFECTIVE_ROTOR_COUNT>
1.8

> <PUBCHEM_PHARMACOPHORE_FEATURES>
5
1 1 acceptor
1 3 donor
5 2 4 5 10 11 rings
6 10 11 12 13 15 16 rings
6 4 5 6 7 8 9 rings

> <PUBCHEM_HEAVY_ATOM_COUNT>
16

> <PUBCHEM_ATOM_DEF_STEREO_COUNT>
0

> <PUBCHEM_ATOM_UDEF_STEREO_COUNT>
0

> <PUBCHEM_BOND_DEF_STEREO_COUNT>
0

> <PUBCHEM_BOND_UDEF_STEREO_COUNT>
0

> <PUBCHEM_ISOTOPIC_ATOM_COUNT>
0

> <PUBCHEM_COMPONENT_COUNT>
1

> <PUBCHEM_CACTVS_TAUTO_COUNT>
2

> <PUBCHEM_CONFORMER_ID>
0002336000000001

> <PUBCHEM_MMFF94_ENERGY>
39.5723

> <PUBCHEM_FEATURE_SELFOVERLAP>
25.538

> <PUBCHEM_SHAPE_FINGERPRINT>
10967382 1 18122626316647985703
11132069 177 18341326730181565954
11680986 33 17977668932798700435
12032990 46 18411144636008114646
12382932 28 18412263900190316250
12553582 1 18410576175606280386
13132413 78 18341055202185530525
13140716 1 18267021850118853081
13380535 76 17474664434996582264
14648413 74 18120093037842249603
15442244 35 18413111671231982331
15490181 8 17185309284198288932
16945 1 18411131441878656615
193761 8 17545884824013227847
19591789 44 16319788101742380931
19868273 325 18410577275133563558
20510252 161 18054224332800867650
20559304 39 18266181819088061491
20645477 70 17976247260628966775
20711985 365 18120654630475313294
21029758 11 18340760473366953717
21029758 27 18335997435976356655
21267235 1 18411149029733486054
21501502 16 18193280680841491858
221490 88 18120096345146980579
2334 1 17978510063409755877
23402539 116 18271514295959086671
23463225 33 18410013234390441262
23526114 1 18194122043074787604
23552423 10 18051412065567348215
23557571 272 18128542570385925046
2748010 2 18194396925255677749
3071541 12 18123475139645942169
3071541 158 18334293218638731437
3091708 16 9283010101733517856
34934 24 18410847763562935914
352729 6 17618219507644392847
427121 178 15692975803219044377
43471831 8 17617935176525038483
54173680 148 17978228258053054738
6992083 37 18271541814056969979
7364860 26 18125442161710828625
7832392 63 18413389856295587531
81228 2 18194413190349458474

> <PUBCHEM_SHAPE_MULTIPOLES>
313.44
4.93
3.24
0.65
0.01
2.25
0
-2.55
0.06
0.14
-0.04
0.04
0.03
0.08

> <PUBCHEM_SHAPE_SELFOVERLAP>
690.88

> <PUBCHEM_SHAPE_VOLUME>
169.3

> <PUBCHEM_COORDINATE_TYPE>
2
5
10

$$$$
