8819
  -OEChem-11012401263D

 18 18  0     0  0  0  0  0  0999 V2000
    3.3958   -0.5253    0.4006 O   0  0  0  0  0  0  0  0  0  0  0  0
   -3.3896   -0.5268   -0.4061 O   0  0  0  0  0  0  0  0  0  0  0  0
    1.4455    0.1228    0.0467 N   0  0  0  0  0  0  0  0  0  0  0  0
   -1.4470    0.1403   -0.0454 N   0  0  0  0  0  0  0  0  0  0  0  0
    2.6891    0.1320   -0.3700 N   0  0  0  0  0  0  0  0  0  0  0  0
   -2.6907    0.1311    0.3710 N   0  0  0  0  0  0  0  0  0  0  0  0
   -0.7086   -1.0740    0.3160 C   0  0  0  0  0  0  0  0  0  0  0  0
    0.6917   -1.0850   -0.3103 C   0  0  0  0  0  0  0  0  0  0  0  0
   -0.6932    1.3479    0.3118 C   0  0  0  0  0  0  0  0  0  0  0  0
    0.7071    1.3371   -0.3143 C   0  0  0  0  0  0  0  0  0  0  0  0
   -0.6195   -1.1629    1.4085 H   0  0  0  0  0  0  0  0  0  0  0  0
   -1.2355   -1.9715   -0.0357 H   0  0  0  0  0  0  0  0  0  0  0  0
   -1.2196    2.2423   -0.0471 H   0  0  0  0  0  0  0  0  0  0  0  0
   -0.6057    1.4414    1.4038 H   0  0  0  0  0  0  0  0  0  0  0  0
    1.2110   -1.9847    0.0461 H   0  0  0  0  0  0  0  0  0  0  0  0
    0.6031   -1.1769   -1.4023 H   0  0  0  0  0  0  0  0  0  0  0  0
    0.6191    1.4284   -1.4066 H   0  0  0  0  0  0  0  0  0  0  0  0
    1.2421    2.2281    0.0409 H   0  0  0  0  0  0  0  0  0  0  0  0
  1  5  2  0  0  0  0
  2  6  2  0  0  0  0
  3  5  1  0  0  0  0
  3  8  1  0  0  0  0
  3 10  1  0  0  0  0
  4  6  1  0  0  0  0
  4  7  1  0  0  0  0
  4  9  1  0  0  0  0
  7  8  1  0  0  0  0
  7 11  1  0  0  0  0
  7 12  1  0  0  0  0
  8 15  1  0  0  0  0
  8 16  1  0  0  0  0
  9 10  1  0  0  0  0
  9 13  1  0  0  0  0
  9 14  1  0  0  0  0
 10 17  1  0  0  0  0
 10 18  1  0  0  0  0
M  END
> <PUBCHEM_COMPOUND_CID>
8819

> <PUBCHEM_CONFORMER_RMSD>
0.6

> <PUBCHEM_CONFORMER_DIVERSEORDER>
1
3
7
6
8
4
2
5

> <PUBCHEM_MMFF94_PARTIAL_CHARGES>
10
1 -0.16
10 0.27
2 -0.16
3 -0.36
4 -0.36
5 -0.01
6 -0.01
7 0.27
8 0.27
9 0.27

> <PUBCHEM_EFFECTIVE_ROTOR_COUNT>
3.2

> <PUBCHEM_PHARMACOPHORE_FEATURES>
1
6 3 4 7 8 9 10 rings

> <PUBCHEM_HEAVY_ATOM_COUNT>
10

> <PUBCHEM_ATOM_DEF_STEREO_COUNT>
0

> <PUBCHEM_ATOM_UDEF_STEREO_COUNT>
0

> <PUBCHEM_BOND_DEF_STEREO_COUNT>
0

> <PUBCHEM_BOND_UDEF_STEREO_COUNT>
0

> <PUBCHEM_ISOTOPIC_ATOM_COUNT>
0

> <PUBCHEM_COMPONENT_COUNT>
1

> <PUBCHEM_CACTVS_TAUTO_COUNT>
1

> <PUBCHEM_CONFORMER_ID>
0000227300000001

> <PUBCHEM_MMFF94_ENERGY>
21.0041

> <PUBCHEM_FEATURE_SELFOVERLAP>
5.074

> <PUBCHEM_SHAPE_FINGERPRINT>
10219947 1 18411420617721179534
10857977 72 18342730814961804544
11062470 55 17821447954276271509
14325111 11 18410857659183189280
16945 1 18410584984562702694
20201158 50 18408324384577572131
21040471 1 18122911090275721677
23235685 24 18410572885639829857
23402655 69 18195229037564800541
23552423 10 18117569418048826494
2748010 2 18050012386906187894
29004967 10 18409457976696755145
5084963 1 18411138034621943985

> <PUBCHEM_SHAPE_MULTIPOLES>
174.13
4.41
1.31
0.66
0.01
0.23
0
-0.84
0
0
0
0
0
-0.17

> <PUBCHEM_SHAPE_SELFOVERLAP>
342.714

> <PUBCHEM_SHAPE_VOLUME>
104.8

> <PUBCHEM_COORDINATE_TYPE>
2
5
10

$$$$
