69273
  -OEChem-11012400473D

 18 18  0     0  0  0  0  0  0999 V2000
    4.4674   -0.3374   -0.0011 I   0  0  0  0  0  0  0  0  0  0  0  0
   -2.4553   -0.8598    0.0000 O   0  0  0  0  0  0  0  0  0  0  0  0
   -2.4018    1.4415    0.0000 O   0  0  0  0  0  0  0  0  0  0  0  0
   -0.3710    0.1921    0.0007 C   0  0  0  0  0  0  0  0  0  0  0  0
    0.4536    1.3170    0.0001 C   0  0  0  0  0  0  0  0  0  0  0  0
    0.1908   -1.0847    0.0010 C   0  0  0  0  0  0  0  0  0  0  0  0
    1.8401    1.1652   -0.0003 C   0  0  0  0  0  0  0  0  0  0  0  0
    1.5775   -1.2366    0.0006 C   0  0  0  0  0  0  0  0  0  0  0  0
    2.4022   -0.1115    0.0000 C   0  0  0  0  0  0  0  0  0  0  0  0
   -1.8168    0.3502    0.0006 C   0  0  0  0  0  0  0  0  0  0  0  0
   -3.8867   -0.8361   -0.0015 C   0  0  0  0  0  0  0  0  0  0  0  0
    0.0362    2.3205   -0.0002 H   0  0  0  0  0  0  0  0  0  0  0  0
   -0.4117   -1.9886    0.0014 H   0  0  0  0  0  0  0  0  0  0  0  0
    2.4645    2.0551   -0.0009 H   0  0  0  0  0  0  0  0  0  0  0  0
    1.9951   -2.2402    0.0007 H   0  0  0  0  0  0  0  0  0  0  0  0
   -4.2444   -1.8691   -0.0019 H   0  0  0  0  0  0  0  0  0  0  0  0
   -4.2545   -0.3350   -0.9017 H   0  0  0  0  0  0  0  0  0  0  0  0
   -4.2562   -0.3351    0.8982 H   0  0  0  0  0  0  0  0  0  0  0  0
  1  9  1  0  0  0  0
  2 10  1  0  0  0  0
  2 11  1  0  0  0  0
  3 10  2  0  0  0  0
  4  5  2  0  0  0  0
  4  6  1  0  0  0  0
  4 10  1  0  0  0  0
  5  7  1  0  0  0  0
  5 12  1  0  0  0  0
  6  8  2  0  0  0  0
  6 13  1  0  0  0  0
  7  9  2  0  0  0  0
  7 14  1  0  0  0  0
  8  9  1  0  0  0  0
  8 15  1  0  0  0  0
 11 16  1  0  0  0  0
 11 17  1  0  0  0  0
 11 18  1  0  0  0  0
M  END
> <PUBCHEM_COMPOUND_CID>
69273

> <PUBCHEM_CONFORMER_RMSD>
0.4

> <PUBCHEM_CONFORMER_DIVERSEORDER>
1
2

> <PUBCHEM_MMFF94_PARTIAL_CHARGES>
15
1 -0.08
10 0.63
11 0.28
12 0.15
13 0.15
14 0.15
15 0.15
2 -0.43
3 -0.57
4 0.09
5 -0.15
6 -0.15
7 -0.15
8 -0.15
9 0.08

> <PUBCHEM_EFFECTIVE_ROTOR_COUNT>
2

> <PUBCHEM_PHARMACOPHORE_FEATURES>
3
1 1 hydrophobe
1 3 acceptor
6 4 5 6 7 8 9 rings

> <PUBCHEM_HEAVY_ATOM_COUNT>
11

> <PUBCHEM_ATOM_DEF_STEREO_COUNT>
0

> <PUBCHEM_ATOM_UDEF_STEREO_COUNT>
0

> <PUBCHEM_BOND_DEF_STEREO_COUNT>
0

> <PUBCHEM_BOND_UDEF_STEREO_COUNT>
0

> <PUBCHEM_ISOTOPIC_ATOM_COUNT>
0

> <PUBCHEM_COMPONENT_COUNT>
1

> <PUBCHEM_CACTVS_TAUTO_COUNT>
1

> <PUBCHEM_CONFORMER_ID>
00010E9900000001

> <PUBCHEM_MMFF94_ENERGY>
29.2687

> <PUBCHEM_FEATURE_SELFOVERLAP>
15.223

> <PUBCHEM_SHAPE_FINGERPRINT>
11062470 55 10881397638632626566
11806522 49 18410571829194179542
12032990 46 18412831270160781766
12932764 1 16988268820441031278
13690532 89 18408603660879102394
14252887 29 17988936560741475246
14325111 11 18410573981257533888
14993402 34 17967819362114441318
16945 1 18410575123397029282
18522853 276 18341894095171352992
193761 8 17545882625311387872
200 152 18130497600712320823
20201158 50 18407761443077026451
20871998 22 18200322013435428734
21293036 1 18408609171332517438
21501925 9 18409721876894124418
23402539 116 18342448253342595775
23402655 69 18196357140462753341
23463225 33 18335137558159991130
23552423 10 18261396619818990087
2748010 2 18268149747259458126
3312278 4 18341050709649790848
5084963 1 18342740744862895777
7364860 26 18197780101608575888
8809292 202 18115030830368340899

> <PUBCHEM_SHAPE_MULTIPOLES>
226.57
6.9
1.44
0.63
0.96
0.19
0
-1.53
0
-0.23
0
0.17
-0.01
0

> <PUBCHEM_SHAPE_SELFOVERLAP>
447.939

> <PUBCHEM_SHAPE_VOLUME>
139.3

> <PUBCHEM_COORDINATE_TYPE>
2
5
10

$$$$
