41201
  -OEChem-11012400533D

 40 41  0     0  0  0  0  0  0999 V2000
   -0.7269   -0.0117   -0.2344 C   0  0  0  0  0  0  0  0  0  0  0  0
    0.7268   -0.0118    0.2344 C   0  0  0  0  0  0  0  0  0  0  0  0
   -1.4573   -1.2646    0.2657 C   0  0  0  0  0  0  0  0  0  0  0  0
   -1.4459    1.2604    0.2319 C   0  0  0  0  0  0  0  0  0  0  0  0
    1.4573   -1.2646   -0.2657 C   0  0  0  0  0  0  0  0  0  0  0  0
    1.4459    1.2604   -0.2318 C   0  0  0  0  0  0  0  0  0  0  0  0
   -3.6468    0.0088    0.3192 C   0  0  0  0  0  0  0  0  0  0  0  0
    3.6468    0.0088   -0.3192 C   0  0  0  0  0  0  0  0  0  0  0  0
   -2.9281   -1.2634   -0.1473 C   0  0  0  0  0  0  0  0  0  0  0  0
   -2.9166    1.2614   -0.1814 C   0  0  0  0  0  0  0  0  0  0  0  0
    2.9281   -1.2635    0.1473 C   0  0  0  0  0  0  0  0  0  0  0  0
    2.9166    1.2615    0.1813 C   0  0  0  0  0  0  0  0  0  0  0  0
   -5.1011    0.0092   -0.1482 C   0  0  0  0  0  0  0  0  0  0  0  0
    5.1011    0.0092    0.1482 C   0  0  0  0  0  0  0  0  0  0  0  0
   -0.7462   -0.0253   -1.3336 H   0  0  0  0  0  0  0  0  0  0  0  0
    0.7461   -0.0254    1.3336 H   0  0  0  0  0  0  0  0  0  0  0  0
   -1.3861   -1.3346    1.3584 H   0  0  0  0  0  0  0  0  0  0  0  0
   -1.0175   -2.1768   -0.1483 H   0  0  0  0  0  0  0  0  0  0  0  0
   -1.0023    2.1573   -0.2105 H   0  0  0  0  0  0  0  0  0  0  0  0
   -1.3731    1.3608    1.3221 H   0  0  0  0  0  0  0  0  0  0  0  0
    1.3862   -1.3345   -1.3584 H   0  0  0  0  0  0  0  0  0  0  0  0
    1.0176   -2.1768    0.1482 H   0  0  0  0  0  0  0  0  0  0  0  0
    1.0023    2.1573    0.2106 H   0  0  0  0  0  0  0  0  0  0  0  0
    1.3730    1.3609   -1.3220 H   0  0  0  0  0  0  0  0  0  0  0  0
   -3.6455    0.0237    1.4173 H   0  0  0  0  0  0  0  0  0  0  0  0
    3.6455    0.0237   -1.4174 H   0  0  0  0  0  0  0  0  0  0  0  0
   -2.9970   -1.3524   -1.2392 H   0  0  0  0  0  0  0  0  0  0  0  0
   -3.4224   -2.1468    0.2744 H   0  0  0  0  0  0  0  0  0  0  0  0
   -3.4029    2.1604    0.2159 H   0  0  0  0  0  0  0  0  0  0  0  0
   -2.9847    1.3212   -1.2753 H   0  0  0  0  0  0  0  0  0  0  0  0
    2.9969   -1.3524    1.2392 H   0  0  0  0  0  0  0  0  0  0  0  0
    3.4224   -2.1470   -0.2743 H   0  0  0  0  0  0  0  0  0  0  0  0
    3.4028    2.1605   -0.2160 H   0  0  0  0  0  0  0  0  0  0  0  0
    2.9847    1.3214    1.2753 H   0  0  0  0  0  0  0  0  0  0  0  0
   -5.1687   -0.0053   -1.2412 H   0  0  0  0  0  0  0  0  0  0  0  0
   -5.6322   -0.8682    0.2356 H   0  0  0  0  0  0  0  0  0  0  0  0
   -5.6242    0.9014    0.2117 H   0  0  0  0  0  0  0  0  0  0  0  0
    5.6322   -0.8682   -0.2354 H   0  0  0  0  0  0  0  0  0  0  0  0
    5.6242    0.9013   -0.2117 H   0  0  0  0  0  0  0  0  0  0  0  0
    5.1686   -0.0051    1.2413 H   0  0  0  0  0  0  0  0  0  0  0  0
  1  2  1  0  0  0  0
  1  3  1  0  0  0  0
  1  4  1  0  0  0  0
  1 15  1  0  0  0  0
  2  5  1  0  0  0  0
  2  6  1  0  0  0  0
  2 16  1  0  0  0  0
  3  9  1  0  0  0  0
  3 17  1  0  0  0  0
  3 18  1  0  0  0  0
  4 10  1  0  0  0  0
  4 19  1  0  0  0  0
  4 20  1  0  0  0  0
  5 11  1  0  0  0  0
  5 21  1  0  0  0  0
  5 22  1  0  0  0  0
  6 12  1  0  0  0  0
  6 23  1  0  0  0  0
  6 24  1  0  0  0  0
  7  9  1  0  0  0  0
  7 10  1  0  0  0  0
  7 13  1  0  0  0  0
  7 25  1  0  0  0  0
  8 11  1  0  0  0  0
  8 12  1  0  0  0  0
  8 14  1  0  0  0  0
  8 26  1  0  0  0  0
  9 27  1  0  0  0  0
  9 28  1  0  0  0  0
 10 29  1  0  0  0  0
 10 30  1  0  0  0  0
 11 31  1  0  0  0  0
 11 32  1  0  0  0  0
 12 33  1  0  0  0  0
 12 34  1  0  0  0  0
 13 35  1  0  0  0  0
 13 36  1  0  0  0  0
 13 37  1  0  0  0  0
 14 38  1  0  0  0  0
 14 39  1  0  0  0  0
 14 40  1  0  0  0  0
M  END
> <PUBCHEM_COMPOUND_CID>
41201

> <PUBCHEM_CONFORMER_RMSD>
0.6

> <PUBCHEM_CONFORMER_DIVERSEORDER>
1
6
8
7
3
2
5
4

> <PUBCHEM_MMFF94_PARTIAL_CHARGES>
0

> <PUBCHEM_EFFECTIVE_ROTOR_COUNT>
3.4

> <PUBCHEM_PHARMACOPHORE_FEATURES>
2
6 1 3 4 7 9 10 rings
6 2 5 6 8 11 12 rings

> <PUBCHEM_HEAVY_ATOM_COUNT>
14

> <PUBCHEM_ATOM_DEF_STEREO_COUNT>
0

> <PUBCHEM_ATOM_UDEF_STEREO_COUNT>
0

> <PUBCHEM_BOND_DEF_STEREO_COUNT>
0

> <PUBCHEM_BOND_UDEF_STEREO_COUNT>
0

> <PUBCHEM_ISOTOPIC_ATOM_COUNT>
0

> <PUBCHEM_COMPONENT_COUNT>
1

> <PUBCHEM_CACTVS_TAUTO_COUNT>
1

> <PUBCHEM_CONFORMER_ID>
0000A0F100000001

> <PUBCHEM_MMFF94_ENERGY>
19.1211

> <PUBCHEM_FEATURE_SELFOVERLAP>
10.149

> <PUBCHEM_SHAPE_FINGERPRINT>
10608611 8 18410570690911970336
11132069 177 18411415137337713137
11401426 45 18413386553133271562
11471102 20 18411417315112862046
11615757 297 17775289373673372129
12251169 10 18409730668370367398
13380535 76 18410858762958454147
14123238 8 18411138030321532928
14144814 61 18410294679149049368
14252887 29 17846788382051221854
14325111 11 18410575076099693473
15196674 1 18410856563934763367
15375358 24 18411139138428707850
15442244 35 18194966232013885322
15536298 74 18342176678508030224
17802600 8 18410571790423507168
17834072 33 18272647995668762191
17834074 16 18410577287981516134
18186145 218 17604139428201152043
18522853 276 18413951680793510552
200 152 17988921176199860101
20201158 50 18412547599986375371
20279233 1 18410863156709803074
20510252 161 18200315412107722113
20528008 55 18411135848826312699
20645477 70 18341613655503826590
21267235 1 18410865355733026147
23402539 116 18343013394188202517
23402655 69 18340764854059639453
23463225 33 18409167705706169484
23557571 272 18202008689688988276
23559900 14 18340763844747742544
26918003 58 18186521024992816091
3545911 37 18410856563940051126
42 15 18334016094426792643
4214541 1 18410575059030724009
474 4 17313957453549880372
5104073 3 18338799021436437459
58051976 100 18341894138231997359
58051976 378 18272370858234565142
69090 78 18413386544939164343
7364860 26 18343302565603759022
77779 3 18410857659151417356
8809292 202 18261397796640360787
9709674 26 18411707585961711479

> <PUBCHEM_SHAPE_MULTIPOLES>
288.11
9.35
1.53
0.67
0
0
0
-0.03
0
0
0
0
0
0.03

> <PUBCHEM_SHAPE_SELFOVERLAP>
572.123

> <PUBCHEM_SHAPE_VOLUME>
166.6

> <PUBCHEM_COORDINATE_TYPE>
2
5
10

$$$$
