69017
  -OEChem-11012401133D

 15 15  0     0  0  0  0  0  0999 V2000
   -1.2680   -1.1733    1.1866 O   0  0  0  0  0  0  0  0  0  0  0  0
    1.2681   -1.1727   -1.1870 O   0  0  0  0  0  0  0  0  0  0  0  0
   -2.1775   -0.3229   -0.7227 O   0  0  0  0  0  0  0  0  0  0  0  0
    2.1775   -0.3231    0.7227 O   0  0  0  0  0  0  0  0  0  0  0  0
    0.0000    0.3873    0.0002 C   0  0  0  0  0  0  0  0  0  0  0  0
    0.0503    1.6868    0.7487 C   0  0  0  0  0  0  0  0  0  0  0  0
   -0.0504    1.6868   -0.7485 C   0  0  0  0  0  0  0  0  0  0  0  0
   -1.2620   -0.3845    0.0843 C   0  0  0  0  0  0  0  0  0  0  0  0
    1.2620   -0.3844   -0.0844 C   0  0  0  0  0  0  0  0  0  0  0  0
    0.9855    2.0177    1.1846 H   0  0  0  0  0  0  0  0  0  0  0  0
   -0.8235    1.9992    1.3096 H   0  0  0  0  0  0  0  0  0  0  0  0
   -0.9857    2.0177   -1.1843 H   0  0  0  0  0  0  0  0  0  0  0  0
    0.8233    1.9992   -1.3093 H   0  0  0  0  0  0  0  0  0  0  0  0
   -2.0970   -1.6925    1.2612 H   0  0  0  0  0  0  0  0  0  0  0  0
    2.0970   -1.6918   -1.2617 H   0  0  0  0  0  0  0  0  0  0  0  0
  1  8  1  0  0  0  0
  1 14  1  0  0  0  0
  2  9  1  0  0  0  0
  2 15  1  0  0  0  0
  3  8  2  0  0  0  0
  4  9  2  0  0  0  0
  5  6  1  0  0  0  0
  5  7  1  0  0  0  0
  5  8  1  0  0  0  0
  5  9  1  0  0  0  0
  6  7  1  0  0  0  0
  6 10  1  0  0  0  0
  6 11  1  0  0  0  0
  7 12  1  0  0  0  0
  7 13  1  0  0  0  0
M  END
> <PUBCHEM_COMPOUND_CID>
69017

> <PUBCHEM_CONFORMER_RMSD>
0.6

> <PUBCHEM_CONFORMER_DIVERSEORDER>
1
3
2

> <PUBCHEM_MMFF94_PARTIAL_CHARGES>
14
1 -0.65
10 0.1
11 0.1
12 0.1
13 0.1
14 0.5
15 0.5
2 -0.65
3 -0.57
4 -0.57
6 -0.2
7 -0.2
8 0.72
9 0.72

> <PUBCHEM_EFFECTIVE_ROTOR_COUNT>
2.6

> <PUBCHEM_PHARMACOPHORE_FEATURES>
6
1 1 acceptor
1 2 acceptor
1 3 acceptor
1 4 acceptor
3 1 3 8 anion
3 2 4 9 anion

> <PUBCHEM_HEAVY_ATOM_COUNT>
9

> <PUBCHEM_ATOM_DEF_STEREO_COUNT>
0

> <PUBCHEM_ATOM_UDEF_STEREO_COUNT>
0

> <PUBCHEM_BOND_DEF_STEREO_COUNT>
0

> <PUBCHEM_BOND_UDEF_STEREO_COUNT>
0

> <PUBCHEM_ISOTOPIC_ATOM_COUNT>
0

> <PUBCHEM_COMPONENT_COUNT>
1

> <PUBCHEM_CACTVS_TAUTO_COUNT>
1

> <PUBCHEM_CONFORMER_ID>
00010D9900000001

> <PUBCHEM_MMFF94_ENERGY>
17.0775

> <PUBCHEM_FEATURE_SELFOVERLAP>
30.559

> <PUBCHEM_SHAPE_FINGERPRINT>
12423570 1 13664179057716680904
137420 1 12548817720675884741
20653091 64 18118419559648722281
21040471 1 17472140570521931284
29004967 10 18272088318137528875
5084963 1 17109902053666669348
68250623 7 15024039692989645604

> <PUBCHEM_SHAPE_MULTIPOLES>
161.74
2.13
1.61
1.07
0
0.69
0
-0.91
0
0
0
0
-0.1
0.25

> <PUBCHEM_SHAPE_SELFOVERLAP>
329.586

> <PUBCHEM_SHAPE_VOLUME>
94.7

> <PUBCHEM_COORDINATE_TYPE>
2
5
10

$$$$
