140803
  -OEChem-11012400513D

 18 19  0     0  0  0  0  0  0999 V2000
    1.2136    1.3154   -0.0021 O   0  0  0  0  0  0  0  0  0  0  0  0
    3.8842   -0.8411    0.0020 O   0  0  0  0  0  0  0  0  0  0  0  0
    1.5656   -0.8989   -0.0003 N   0  0  0  0  0  0  0  0  0  0  0  0
    2.6072    1.0893    0.0003 N   0  0  0  0  0  0  0  0  0  0  0  0
   -0.7373   -0.0069   -0.0008 C   0  0  0  0  0  0  0  0  0  0  0  0
    0.7151    0.0648   -0.0022 C   0  0  0  0  0  0  0  0  0  0  0  0
   -1.4934    1.1653    0.0006 C   0  0  0  0  0  0  0  0  0  0  0  0
   -1.3744   -1.2479   -0.0013 C   0  0  0  0  0  0  0  0  0  0  0  0
   -2.8866    1.0968    0.0017 C   0  0  0  0  0  0  0  0  0  0  0  0
   -2.7677   -1.3164   -0.0003 C   0  0  0  0  0  0  0  0  0  0  0  0
   -3.5237   -0.1441    0.0012 C   0  0  0  0  0  0  0  0  0  0  0  0
    2.7974   -0.2764    0.0011 C   0  0  0  0  0  0  0  0  0  0  0  0
   -1.0335    2.1496    0.0009 H   0  0  0  0  0  0  0  0  0  0  0  0
   -0.8051   -2.1736   -0.0025 H   0  0  0  0  0  0  0  0  0  0  0  0
   -3.4758    2.0092    0.0028 H   0  0  0  0  0  0  0  0  0  0  0  0
   -3.2641   -2.2824   -0.0006 H   0  0  0  0  0  0  0  0  0  0  0  0
   -4.6084   -0.1976    0.0021 H   0  0  0  0  0  0  0  0  0  0  0  0
    3.2598    1.8616    0.0000 H   0  0  0  0  0  0  0  0  0  0  0  0
  1  4  1  0  0  0  0
  1  6  1  0  0  0  0
  2 12  2  0  0  0  0
  3  6  2  0  0  0  0
  3 12  1  0  0  0  0
  4 12  1  0  0  0  0
  4 18  1  0  0  0  0
  5  6  1  0  0  0  0
  5  7  2  0  0  0  0
  5  8  1  0  0  0  0
  7  9  1  0  0  0  0
  7 13  1  0  0  0  0
  8 10  2  0  0  0  0
  8 14  1  0  0  0  0
  9 11  2  0  0  0  0
  9 15  1  0  0  0  0
 10 11  1  0  0  0  0
 10 16  1  0  0  0  0
 11 17  1  0  0  0  0
M  END
> <PUBCHEM_COMPOUND_CID>
140803

> <PUBCHEM_CONFORMER_RMSD>
0.4

> <PUBCHEM_CONFORMER_DIVERSEORDER>
1

> <PUBCHEM_MMFF94_PARTIAL_CHARGES>
18
1 -0.19
10 -0.15
11 -0.15
12 0.84
13 0.15
14 0.15
15 0.15
16 0.15
17 0.15
18 0.37
2 -0.57
3 -0.66
4 -0.39
5 0.09
6 0.51
7 -0.15
8 -0.15
9 -0.15

> <PUBCHEM_EFFECTIVE_ROTOR_COUNT>
1

> <PUBCHEM_PHARMACOPHORE_FEATURES>
5
1 2 acceptor
1 3 donor
1 4 donor
5 1 3 4 6 12 rings
6 5 7 8 9 10 11 rings

> <PUBCHEM_HEAVY_ATOM_COUNT>
12

> <PUBCHEM_ATOM_DEF_STEREO_COUNT>
0

> <PUBCHEM_ATOM_UDEF_STEREO_COUNT>
0

> <PUBCHEM_BOND_DEF_STEREO_COUNT>
0

> <PUBCHEM_BOND_UDEF_STEREO_COUNT>
0

> <PUBCHEM_ISOTOPIC_ATOM_COUNT>
0

> <PUBCHEM_COMPONENT_COUNT>
1

> <PUBCHEM_CACTVS_TAUTO_COUNT>
2

> <PUBCHEM_CONFORMER_ID>
0002260300000001

> <PUBCHEM_MMFF94_ENERGY>
31.5304

> <PUBCHEM_FEATURE_SELFOVERLAP>
25.437

> <PUBCHEM_SHAPE_FINGERPRINT>
10608611 8 18411976979205786009
11062470 55 12895068509539597523
11769659 78 18411131471964734599
12032990 46 18410862061514189643
12932764 1 17385713690774532037
13024252 1 15574435414772189585
13380535 76 18340768156905541575
14144814 61 18409165497892538835
14325111 11 18410855473076523105
15775835 57 18114464448840979609
16945 1 18410856538481464195
19973954 147 18410576231562116041
200 152 17917418840024111999
20201158 50 18343021068894028471
20871998 184 18129386058844732295
21501502 16 18339364166213293021
23402539 116 18131060516569936333
23463225 33 18336546023564531838
23552423 10 18188208813906415399
23559900 14 18271238327710425234
2748010 2 18339077210937388525
369184 2 18412262856950749233
57812782 119 18272084993816887557
6333449 129 18411979152907098047
69090 78 18343577447985271935
7364860 26 18269275836456481132
8809292 202 18261679254474261923

> <PUBCHEM_SHAPE_MULTIPOLES>
225.25
6.04
1.43
0.59
2.22
0.05
0
-0.68
0
-0.39
0
-0.08
-0.01
0

> <PUBCHEM_SHAPE_SELFOVERLAP>
491.249

> <PUBCHEM_SHAPE_VOLUME>
123.4

> <PUBCHEM_COORDINATE_TYPE>
2
5
10

$$$$
