13129019
  -OEChem-10312420552D

 52 62  0     1  0  0  0  0  0999 V2000
    3.2247   -3.2499    0.0000 O   0  0  0  0  0  0  0  0  0  0  0  0
    7.2750    3.2499    0.0000 O   0  0  0  0  0  0  0  0  0  0  0  0
    2.0000   -2.0251    0.0000 O   0  0  0  0  0  0  0  0  0  0  0  0
    8.4997    2.0251    0.0000 O   0  0  0  0  0  0  0  0  0  0  0  0
    4.5428    0.0000    0.0000 C   0  0  0  0  0  0  0  0  0  0  0  0
    5.2499   -0.7071    0.0000 C   0  0  0  0  0  0  0  0  0  0  0  0
    5.2499    0.7071    0.0000 C   0  0  0  0  0  0  0  0  0  0  0  0
    5.9570   -0.0000    0.0000 C   0  0  0  0  0  0  0  0  0  0  0  0
    3.1228    0.4766    0.0000 C   0  0  3  0  0  0  0  0  0  0  0  0
    5.7265   -2.1270    0.0000 C   0  0  3  0  0  0  0  0  0  0  0  0
    4.7733    2.1270    0.0000 C   0  0  3  0  0  0  0  0  0  0  0  0
    7.3769   -0.4766    0.0000 C   0  0  3  0  0  0  0  0  0  0  0  0
    3.6582    0.4536    0.0000 C   0  0  3  0  0  0  0  0  0  0  0  0
    5.7035   -1.5917    0.0000 C   0  0  3  0  0  0  0  0  0  0  0  0
    4.7963    1.5917    0.0000 C   0  0  3  0  0  0  0  0  0  0  0  0
    6.8415   -0.4536    0.0000 C   0  0  3  0  0  0  0  0  0  0  0  0
    3.2842    1.9657    0.0000 C   0  0  0  0  0  0  0  0  0  0  0  0
    7.2156   -1.9657    0.0000 C   0  0  0  0  0  0  0  0  0  0  0  0
    3.8146    1.4353    0.0000 C   0  0  0  0  0  0  0  0  0  0  0  0
    6.6852   -1.4353    0.0000 C   0  0  0  0  0  0  0  0  0  0  0  0
    3.6730   -1.5768    0.0000 C   0  0  0  0  0  0  0  0  0  0  0  0
    6.8267    1.5768    0.0000 C   0  0  0  0  0  0  0  0  0  0  0  0
    3.5452   -0.5315    0.0000 C   0  0  0  0  0  0  0  0  0  0  0  0
    6.9545    0.5315    0.0000 C   0  0  0  0  0  0  0  0  0  0  0  0
    2.9659   -2.2839    0.0000 C   0  0  0  0  0  0  0  0  0  0  0  0
    7.5338    2.2839    0.0000 C   0  0  0  0  0  0  0  0  0  0  0  0
    2.5176   -3.9570    0.0000 C   0  0  0  0  0  0  0  0  0  0  0  0
    7.9821    3.9570    0.0000 C   0  0  0  0  0  0  0  0  0  0  0  0
    2.5046    0.4290    0.0000 H   0  0  0  0  0  0  0  0  0  0  0  0
    5.6788   -2.7452    0.0000 H   0  0  0  0  0  0  0  0  0  0  0  0
    4.8209    2.7452    0.0000 H   0  0  0  0  0  0  0  0  0  0  0  0
    7.9951   -0.4290    0.0000 H   0  0  0  0  0  0  0  0  0  0  0  0
    3.0439    0.5377    0.0000 H   0  0  0  0  0  0  0  0  0  0  0  0
    5.6112   -2.2048    0.0000 H   0  0  0  0  0  0  0  0  0  0  0  0
    4.8885    2.2048    0.0000 H   0  0  0  0  0  0  0  0  0  0  0  0
    7.4558   -0.5377    0.0000 H   0  0  0  0  0  0  0  0  0  0  0  0
    2.8458    2.4041    0.0000 H   0  0  0  0  0  0  0  0  0  0  0  0
    7.6540   -2.4041    0.0000 H   0  0  0  0  0  0  0  0  0  0  0  0
    3.3762    1.8737    0.0000 H   0  0  0  0  0  0  0  0  0  0  0  0
    7.1236   -1.8737    0.0000 H   0  0  0  0  0  0  0  0  0  0  0  0
    3.0742   -1.4164    0.0000 H   0  0  0  0  0  0  0  0  0  0  0  0
    7.4256    1.4164    0.0000 H   0  0  0  0  0  0  0  0  0  0  0  0
    2.9413   -0.3912    0.0000 H   0  0  0  0  0  0  0  0  0  0  0  0
    3.3370   -1.1155    0.0000 H   0  0  0  0  0  0  0  0  0  0  0  0
    7.5584    0.3912    0.0000 H   0  0  0  0  0  0  0  0  0  0  0  0
    7.1627    1.1155    0.0000 H   0  0  0  0  0  0  0  0  0  0  0  0
    2.0792   -3.5186    0.0000 H   0  0  0  0  0  0  0  0  0  0  0  0
    2.0792   -4.3954    0.0000 H   0  0  0  0  0  0  0  0  0  0  0  0
    2.9560   -4.3954    0.0000 H   0  0  0  0  0  0  0  0  0  0  0  0
    8.4205    3.5186    0.0000 H   0  0  0  0  0  0  0  0  0  0  0  0
    8.4205    4.3954    0.0000 H   0  0  0  0  0  0  0  0  0  0  0  0
    7.5437    4.3954    0.0000 H   0  0  0  0  0  0  0  0  0  0  0  0
  1 25  1  0  0  0  0
  1 27  1  0  0  0  0
  2 26  1  0  0  0  0
  2 28  1  0  0  0  0
  3 25  2  0  0  0  0
  4 26  2  0  0  0  0
  5  6  1  0  0  0  0
  5  7  1  0  0  0  0
  5  9  1  0  0  0  0
  5 13  1  0  0  0  0
  6  8  1  0  0  0  0
  6 10  1  0  0  0  0
  6 14  1  0  0  0  0
  7  8  1  0  0  0  0
  7 11  1  0  0  0  0
  7 15  1  0  0  0  0
  8 12  1  0  0  0  0
  8 16  1  0  0  0  0
  9 17  1  0  0  0  0
  9 21  1  0  0  0  0
  9 29  1  0  0  0  0
 10 18  1  0  0  0  0
 10 21  1  0  0  0  0
 10 30  1  0  0  0  0
 11 17  1  0  0  0  0
 11 22  1  0  0  0  0
 11 31  1  0  0  0  0
 12 18  1  0  0  0  0
 12 22  1  0  0  0  0
 12 32  1  0  0  0  0
 13 19  1  0  0  0  0
 13 23  1  0  0  0  0
 13 33  1  0  0  0  0
 14 20  1  0  0  0  0
 14 23  1  0  0  0  0
 14 34  1  0  0  0  0
 15 19  1  0  0  0  0
 15 24  1  0  0  0  0
 15 35  1  0  0  0  0
 16 20  1  0  0  0  0
 16 24  1  0  0  0  0
 16 36  1  0  0  0  0
 17 18  1  0  0  0  0
 17 37  1  0  0  0  0
 18 38  1  0  0  0  0
 19 20  1  0  0  0  0
 19 39  1  0  0  0  0
 20 40  1  0  0  0  0
 21 25  1  0  0  0  0
 21 41  1  0  0  0  0
 22 26  1  0  0  0  0
 22 42  1  0  0  0  0
 23 43  1  0  0  0  0
 23 44  1  0  0  0  0
 24 45  1  0  0  0  0
 24 46  1  0  0  0  0
 27 47  1  0  0  0  0
 27 48  1  0  0  0  0
 27 49  1  0  0  0  0
 28 50  1  0  0  0  0
 28 51  1  0  0  0  0
 28 52  1  0  0  0  0
M  END
> <PUBCHEM_COMPOUND_CID>
13129019

> <PUBCHEM_COMPOUND_CANONICALIZED>
1

> <PUBCHEM_CACTVS_COMPLEXITY>
909

> <PUBCHEM_CACTVS_HBOND_ACCEPTOR>
4

> <PUBCHEM_CACTVS_HBOND_DONOR>
0

> <PUBCHEM_CACTVS_ROTATABLE_BOND>
4

> <PUBCHEM_CACTVS_SUBSKEYS>
AAADceB4OAAAAAAAAAAAAAAAAABgAYMGDBgAAAAAAAAYMAAAAAAAGgAAAAAADwCAgAICCAAABAAIAACQCAAAAAAAAAAAAAEAAAAAABIAAAAAAAAEAAAAAAGIyPCPgAAAAAAAAACAAAQAACAAAQAACAAAAA==

> <PUBCHEM_IUPAC_OPENEYE_NAME>
dimethyl undecacyclo[9.9.0.01,5.02,12.02,18.03,7.06,10.08,12.011,15.013,17.016,20]icosane-4,9-dicarboxylate

> <PUBCHEM_IUPAC_CAS_NAME>
undecacyclo[9.9.0.01,5.02,12.02,18.03,7.06,10.08,12.011,15.013,17.016,20]eicosane-4,9-dicarboxylic acid dimethyl ester

> <PUBCHEM_IUPAC_NAME_MARKUP>
dimethyl undecacyclo[9.9.0.0<SUP>1,5</SUP>.0<SUP>2,12</SUP>.0<SUP>2,18</SUP>.0<SUP>3,7</SUP>.0<SUP>6,10</SUP>.0<SUP>8,12</SUP>.0<SUP>11,15</SUP>.0<SUP>13,17</SUP>.0<SUP>16,20</SUP>]icosane-4,9-dicarboxylate

> <PUBCHEM_IUPAC_NAME>
dimethyl undecacyclo[9.9.0.01,5.02,12.02,18.03,7.06,10.08,12.011,15.013,17.016,20]icosane-4,9-dicarboxylate

> <PUBCHEM_IUPAC_SYSTEMATIC_NAME>
dimethyl undecacyclo[9.9.0.01,5.02,12.02,18.03,7.06,10.08,12.011,15.013,17.016,20]icosane-4,9-dicarboxylate

> <PUBCHEM_IUPAC_TRADITIONAL_NAME>
undecacyclo[9.9.0.01,5.02,12.02,18.03,7.06,10.08,12.011,15.013,17.016,20]eicosane-4,9-dicarboxylic acid dimethyl ester

> <PUBCHEM_IUPAC_INCHI>
InChI=1S/C24H24O4/c1-27-19(25)13-15-11-12-16(13)22-6-3-5-9-7-4-8(10(6)9)24(22)18(12)14(20(26)28-2)17(11)23(7,24)21(5,15)22/h5-18H,3-4H2,1-2H3

> <PUBCHEM_IUPAC_INCHIKEY>
CNWISPJWGINKAP-UHFFFAOYSA-N

> <PUBCHEM_XLOGP3_AA>
2.1

> <PUBCHEM_EXACT_MASS>
376.16745924

> <PUBCHEM_MOLECULAR_FORMULA>
C24H24O4

> <PUBCHEM_MOLECULAR_WEIGHT>
376.4

> <PUBCHEM_OPENEYE_CAN_SMILES>
COC(=O)C1C2C3C4C1C56C27C8CC5C9C8C1C72C3C(C4C62C9C1)C(=O)OC

> <PUBCHEM_OPENEYE_ISO_SMILES>
COC(=O)C1C2C3C4C1C56C27C8CC5C9C8C1C72C3C(C4C62C9C1)C(=O)OC

> <PUBCHEM_CACTVS_TPSA>
52.6

> <PUBCHEM_MONOISOTOPIC_WEIGHT>
376.16745924

> <PUBCHEM_TOTAL_CHARGE>
0

> <PUBCHEM_HEAVY_ATOM_COUNT>
28

> <PUBCHEM_ATOM_DEF_STEREO_COUNT>
0

> <PUBCHEM_ATOM_UDEF_STEREO_COUNT>
8

> <PUBCHEM_BOND_DEF_STEREO_COUNT>
0

> <PUBCHEM_BOND_UDEF_STEREO_COUNT>
0

> <PUBCHEM_ISOTOPIC_ATOM_COUNT>
0

> <PUBCHEM_COMPONENT_COUNT>
1

> <PUBCHEM_CACTVS_TAUTO_COUNT>
-1

> <PUBCHEM_COORDINATE_TYPE>
1
5
255

> <PUBCHEM_BONDANNOTATIONS>
10  21  3
11  22  3
12  22  3
13  23  3
14  23  3
15  24  3
16  24  3
9  21  3

$$$$
