19502
  -OEChem-11012400593D

 24 24  0     1  0  0  0  0  0999 V2000
   -0.7714    0.3262    0.3221 C   0  0  1  0  0  0  0  0  0  0  0  0
    1.5071   -0.3542    0.3612 C   0  0  2  0  0  0  0  0  0  0  0  0
    0.1276   -0.8426   -0.0722 C   0  0  0  0  0  0  0  0  0  0  0  0
    0.0463    1.5620   -0.0641 C   0  0  0  0  0  0  0  0  0  0  0  0
    1.5136    1.1224   -0.0437 C   0  0  0  0  0  0  0  0  0  0  0  0
   -2.1377    0.2795   -0.3406 C   0  0  0  0  0  0  0  0  0  0  0  0
    2.6444   -1.1506   -0.2552 C   0  0  0  0  0  0  0  0  0  0  0  0
   -2.9298   -0.9426    0.0925 C   0  0  0  0  0  0  0  0  0  0  0  0
   -0.8975    0.3237    1.4138 H   0  0  0  0  0  0  0  0  0  0  0  0
    1.5817   -0.4208    1.4549 H   0  0  0  0  0  0  0  0  0  0  0  0
    0.0943   -1.0212   -1.1543 H   0  0  0  0  0  0  0  0  0  0  0  0
   -0.1458   -1.7714    0.4386 H   0  0  0  0  0  0  0  0  0  0  0  0
   -0.1341    2.3870    0.6333 H   0  0  0  0  0  0  0  0  0  0  0  0
   -0.2145    1.9211   -1.0667 H   0  0  0  0  0  0  0  0  0  0  0  0
    1.9526    1.2651   -1.0382 H   0  0  0  0  0  0  0  0  0  0  0  0
    2.1014    1.7215    0.6600 H   0  0  0  0  0  0  0  0  0  0  0  0
   -2.0396    0.2778   -1.4328 H   0  0  0  0  0  0  0  0  0  0  0  0
   -2.7018    1.1812   -0.0738 H   0  0  0  0  0  0  0  0  0  0  0  0
    3.6125   -0.7512    0.0641 H   0  0  0  0  0  0  0  0  0  0  0  0
    2.5915   -2.2000    0.0527 H   0  0  0  0  0  0  0  0  0  0  0  0
    2.6098   -1.1184   -1.3494 H   0  0  0  0  0  0  0  0  0  0  0  0
   -2.4616   -1.8700   -0.2507 H   0  0  0  0  0  0  0  0  0  0  0  0
   -3.0275   -0.9857    1.1820 H   0  0  0  0  0  0  0  0  0  0  0  0
   -3.9376   -0.9053   -0.3339 H   0  0  0  0  0  0  0  0  0  0  0  0
  1  3  1  0  0  0  0
  1  4  1  0  0  0  0
  1  6  1  0  0  0  0
  1  9  1  0  0  0  0
  2  3  1  0  0  0  0
  2  5  1  0  0  0  0
  2  7  1  0  0  0  0
  2 10  1  0  0  0  0
  3 11  1  0  0  0  0
  3 12  1  0  0  0  0
  4  5  1  0  0  0  0
  4 13  1  0  0  0  0
  4 14  1  0  0  0  0
  5 15  1  0  0  0  0
  5 16  1  0  0  0  0
  6  8  1  0  0  0  0
  6 17  1  0  0  0  0
  6 18  1  0  0  0  0
  7 19  1  0  0  0  0
  7 20  1  0  0  0  0
  7 21  1  0  0  0  0
  8 22  1  0  0  0  0
  8 23  1  0  0  0  0
  8 24  1  0  0  0  0
M  END
> <PUBCHEM_COMPOUND_CID>
19502

> <PUBCHEM_CONFORMER_RMSD>
0.4

> <PUBCHEM_CONFORMER_DIVERSEORDER>
2
14
11
3
7
10
8
13
1
12
4
5
9
6

> <PUBCHEM_MMFF94_PARTIAL_CHARGES>
0

> <PUBCHEM_EFFECTIVE_ROTOR_COUNT>
2

> <PUBCHEM_PHARMACOPHORE_FEATURES>
2
1 8 hydrophobe
5 1 2 3 4 5 rings

> <PUBCHEM_HEAVY_ATOM_COUNT>
8

> <PUBCHEM_ATOM_DEF_STEREO_COUNT>
0

> <PUBCHEM_ATOM_UDEF_STEREO_COUNT>
2

> <PUBCHEM_BOND_DEF_STEREO_COUNT>
0

> <PUBCHEM_BOND_UDEF_STEREO_COUNT>
0

> <PUBCHEM_ISOTOPIC_ATOM_COUNT>
0

> <PUBCHEM_COMPONENT_COUNT>
1

> <PUBCHEM_CACTVS_TAUTO_COUNT>
1

> <PUBCHEM_CONFORMER_ID>
00004C2E00000002

> <PUBCHEM_MMFF94_ENERGY>
10.1577

> <PUBCHEM_FEATURE_SELFOVERLAP>
10.148

> <PUBCHEM_SHAPE_FINGERPRINT>
10857977 72 18340472400977565810
12897270 3 18334010562519555959
12932764 1 17385434415243024667
14128692 85 18411705382700861278
21040471 1 18121778606136593528
21293036 1 18261120690009081694
23552423 10 18260551103956628414
29004967 10 18410570703886179417
5084963 1 18342457032250311491

> <PUBCHEM_SHAPE_MULTIPOLES>
164.64
3.78
1.48
0.67
1.25
0.28
0
-1.61
0.2
-0.37
0.06
0
-0.01
0.11

> <PUBCHEM_SHAPE_SELFOVERLAP>
313.758

> <PUBCHEM_SHAPE_VOLUME>
99.7

> <PUBCHEM_COORDINATE_TYPE>
2
5
10

$$$$
