142350
  -OEChem-11012400323D

 18 18  0     0  0  0  0  0  0999 V2000
    0.1478   -1.0279   -0.2602 O   0  0  0  0  0  0  0  0  0  0  0  0
   -0.3654    1.2912   -0.1654 O   0  0  0  0  0  0  0  0  0  0  0  0
    2.8125   -0.4144    0.1912 O   0  0  0  0  0  0  0  0  0  0  0  0
   -2.1637   -0.3229   -0.2209 C   0  0  0  0  0  0  0  0  0  0  0  0
    0.5192    0.2512    0.2607 C   0  0  0  0  0  0  0  0  0  0  0  0
   -1.1596   -1.3963    0.1779 C   0  0  0  0  0  0  0  0  0  0  0  0
   -1.6987    1.0392    0.2769 C   0  0  0  0  0  0  0  0  0  0  0  0
    1.9079    0.5798   -0.2602 C   0  0  0  0  0  0  0  0  0  0  0  0
   -2.2144   -0.2895   -1.3163 H   0  0  0  0  0  0  0  0  0  0  0  0
   -3.1618   -0.5593    0.1603 H   0  0  0  0  0  0  0  0  0  0  0  0
    0.5446    0.1996    1.3576 H   0  0  0  0  0  0  0  0  0  0  0  0
   -1.1483   -1.5472    1.2636 H   0  0  0  0  0  0  0  0  0  0  0  0
   -1.4179   -2.3514   -0.2897 H   0  0  0  0  0  0  0  0  0  0  0  0
   -2.3433    1.8298   -0.1195 H   0  0  0  0  0  0  0  0  0  0  0  0
   -1.7333    1.0959    1.3711 H   0  0  0  0  0  0  0  0  0  0  0  0
    2.2384    1.5619    0.0936 H   0  0  0  0  0  0  0  0  0  0  0  0
    1.9203    0.5868   -1.3557 H   0  0  0  0  0  0  0  0  0  0  0  0
    3.6903   -0.1812   -0.1560 H   0  0  0  0  0  0  0  0  0  0  0  0
  1  5  1  0  0  0  0
  1  6  1  0  0  0  0
  2  5  1  0  0  0  0
  2  7  1  0  0  0  0
  3  8  1  0  0  0  0
  3 18  1  0  0  0  0
  4  6  1  0  0  0  0
  4  7  1  0  0  0  0
  4  9  1  0  0  0  0
  4 10  1  0  0  0  0
  5  8  1  0  0  0  0
  5 11  1  0  0  0  0
  6 12  1  0  0  0  0
  6 13  1  0  0  0  0
  7 14  1  0  0  0  0
  7 15  1  0  0  0  0
  8 16  1  0  0  0  0
  8 17  1  0  0  0  0
M  END
> <PUBCHEM_COMPOUND_CID>
142350

> <PUBCHEM_CONFORMER_RMSD>
0.4

> <PUBCHEM_CONFORMER_DIVERSEORDER>
1
10
2
4
8
7
9
6
5
3

> <PUBCHEM_MMFF94_PARTIAL_CHARGES>
8
1 -0.56
18 0.4
2 -0.56
3 -0.68
5 0.56
6 0.28
7 0.28
8 0.28

> <PUBCHEM_EFFECTIVE_ROTOR_COUNT>
2.2

> <PUBCHEM_PHARMACOPHORE_FEATURES>
5
1 1 acceptor
1 2 acceptor
1 3 acceptor
1 3 donor
6 1 2 4 5 6 7 rings

> <PUBCHEM_HEAVY_ATOM_COUNT>
8

> <PUBCHEM_ATOM_DEF_STEREO_COUNT>
0

> <PUBCHEM_ATOM_UDEF_STEREO_COUNT>
0

> <PUBCHEM_BOND_DEF_STEREO_COUNT>
0

> <PUBCHEM_BOND_UDEF_STEREO_COUNT>
0

> <PUBCHEM_ISOTOPIC_ATOM_COUNT>
0

> <PUBCHEM_COMPONENT_COUNT>
1

> <PUBCHEM_CACTVS_TAUTO_COUNT>
1

> <PUBCHEM_CONFORMER_ID>
00022C0E00000001

> <PUBCHEM_MMFF94_ENERGY>
12.0013

> <PUBCHEM_FEATURE_SELFOVERLAP>
25.412

> <PUBCHEM_SHAPE_FINGERPRINT>
16714656 1 18410294722162064701
18185500 45 18263081187570505638
21040471 1 18339646620458351881
23552423 10 18187648058776357806
29004967 10 18191873533306199962
369184 2 15913326888115700058
5084963 1 18408600361790292192

> <PUBCHEM_SHAPE_MULTIPOLES>
147.03
3.17
1.36
0.63
1.58
0.05
-0.01
0.16
-0.01
-0.46
-0.03
-0.03
-0.01
-0.1

> <PUBCHEM_SHAPE_SELFOVERLAP>
282.056

> <PUBCHEM_SHAPE_VOLUME>
88.8

> <PUBCHEM_COORDINATE_TYPE>
2
5
10

$$$$
