735940
  -OEChem-11012401043D

 18 18  0     0  0  0  0  0  0999 V2000
    1.5437    1.0407   -0.0280 O   0  0  0  0  0  0  0  0  0  0  0  0
   -3.0394   -1.2040   -0.0273 O   0  0  0  0  0  0  0  0  0  0  0  0
    1.1061   -0.2344   -0.0053 C   0  0  0  0  0  0  0  0  0  0  0  0
   -0.2937   -0.5450   -0.0128 C   0  0  0  0  0  0  0  0  0  0  0  0
    2.1369   -1.1263    0.0261 C   0  0  0  0  0  0  0  0  0  0  0  0
   -1.2596    0.3853   -0.0046 C   0  0  0  0  0  0  0  0  0  0  0  0
    3.3150   -0.3420    0.0226 C   0  0  0  0  0  0  0  0  0  0  0  0
    2.9006    0.9691   -0.0107 C   0  0  0  0  0  0  0  0  0  0  0  0
   -2.6938   -0.0249    0.0054 C   0  0  0  0  0  0  0  0  0  0  0  0
   -3.7158    1.0815    0.0346 C   0  0  0  0  0  0  0  0  0  0  0  0
   -0.5558   -1.6002   -0.0145 H   0  0  0  0  0  0  0  0  0  0  0  0
    2.0710   -2.2052    0.0492 H   0  0  0  0  0  0  0  0  0  0  0  0
   -1.0416    1.4476    0.0014 H   0  0  0  0  0  0  0  0  0  0  0  0
    4.3380   -0.6888    0.0422 H   0  0  0  0  0  0  0  0  0  0  0  0
    3.4188    1.9169   -0.0252 H   0  0  0  0  0  0  0  0  0  0  0  0
   -4.1388    1.2086   -0.9651 H   0  0  0  0  0  0  0  0  0  0  0  0
   -4.5060    0.8208    0.7443 H   0  0  0  0  0  0  0  0  0  0  0  0
   -3.2707    2.0255    0.3605 H   0  0  0  0  0  0  0  0  0  0  0  0
  1  3  1  0  0  0  0
  1  8  1  0  0  0  0
  2  9  2  0  0  0  0
  3  4  1  0  0  0  0
  3  5  2  0  0  0  0
  4  6  2  0  0  0  0
  4 11  1  0  0  0  0
  5  7  1  0  0  0  0
  5 12  1  0  0  0  0
  6  9  1  0  0  0  0
  6 13  1  0  0  0  0
  7  8  2  0  0  0  0
  7 14  1  0  0  0  0
  8 15  1  0  0  0  0
  9 10  1  0  0  0  0
 10 16  1  0  0  0  0
 10 17  1  0  0  0  0
 10 18  1  0  0  0  0
M  END
> <PUBCHEM_COMPOUND_CID>
735940

> <PUBCHEM_CONFORMER_RMSD>
0.4

> <PUBCHEM_CONFORMER_DIVERSEORDER>
1
11
7
12
8
6
5
4
2
3
9
10

> <PUBCHEM_MMFF94_PARTIAL_CHARGES>
15
1 -0.28
10 0.06
11 0.15
12 0.15
13 0.15
14 0.15
15 0.15
2 -0.57
3 0.09
4 -0.11
5 -0.15
6 -0.14
7 -0.15
8 -0.01
9 0.49

> <PUBCHEM_EFFECTIVE_ROTOR_COUNT>
2

> <PUBCHEM_PHARMACOPHORE_FEATURES>
3
1 1 acceptor
1 2 acceptor
5 1 3 5 7 8 rings

> <PUBCHEM_HEAVY_ATOM_COUNT>
10

> <PUBCHEM_ATOM_DEF_STEREO_COUNT>
0

> <PUBCHEM_ATOM_UDEF_STEREO_COUNT>
0

> <PUBCHEM_BOND_DEF_STEREO_COUNT>
1

> <PUBCHEM_BOND_UDEF_STEREO_COUNT>
0

> <PUBCHEM_ISOTOPIC_ATOM_COUNT>
0

> <PUBCHEM_COMPONENT_COUNT>
1

> <PUBCHEM_CACTVS_TAUTO_COUNT>
2

> <PUBCHEM_CONFORMER_ID>
000B3AC400000001

> <PUBCHEM_MMFF94_ENERGY>
11.6823

> <PUBCHEM_FEATURE_SELFOVERLAP>
15.223

> <PUBCHEM_SHAPE_FINGERPRINT>
10608611 8 18410007753964744233
11062470 55 18411418392991475697
12932764 1 17458336416804459471
14144814 61 18411418397339138651
14325111 11 18410856576925205767
18186145 218 18261391122276707999
190213 19 17632578244750459938
20201158 50 18411138008904946139
20645477 70 18270679757896217519
20871998 22 17981323392271207454
23402655 69 18412824664021156261
3248919 1 17346605144754257143

> <PUBCHEM_SHAPE_MULTIPOLES>
194.06
6.56
1.21
0.6
2.79
0.01
0
0.77
-0.05
0.04
0
-0.01
0
-0.04

> <PUBCHEM_SHAPE_SELFOVERLAP>
398.46

> <PUBCHEM_SHAPE_VOLUME>
113

> <PUBCHEM_COORDINATE_TYPE>
2
5
10

$$$$
