237619
  -OEChem-11012400503D

 36 38  0     1  0  0  0  0  0999 V2000
   -1.5370    1.3723    0.3721 O   0  0  0  0  0  0  0  0  0  0  0  0
   -3.6984    2.0139   -0.0707 O   0  0  0  0  0  0  0  0  0  0  0  0
    3.6614    1.9582   -0.2894 O   0  0  0  0  0  0  0  0  0  0  0  0
   -1.5275   -0.6698   -0.6740 C   0  0  1  0  0  0  0  0  0  0  0  0
   -0.8655    0.1141    0.4432 C   0  0  1  0  0  0  0  0  0  0  0  0
    1.1938   -1.3575    0.2415 C   0  0  2  0  0  0  0  0  0  0  0  0
   -1.1328   -2.1348   -0.6210 C   0  0  0  0  0  0  0  0  0  0  0  0
    0.6462    0.0900    0.2549 C   0  0  0  0  0  0  0  0  0  0  0  0
    0.3935   -2.2420   -0.7626 C   0  0  0  0  0  0  0  0  0  0  0  0
   -2.9867   -0.2729   -0.5230 C   0  0  2  0  0  0  0  0  0  0  0  0
   -2.8233    1.1616   -0.0650 C   0  0  0  0  0  0  0  0  0  0  0  0
    1.1119   -1.9638    1.6609 C   0  0  0  0  0  0  0  0  0  0  0  0
    2.6483   -1.4236   -0.1609 C   0  0  0  0  0  0  0  0  0  0  0  0
    1.4330    1.1778    0.0892 C   0  0  0  0  0  0  0  0  0  0  0  0
   -3.7997   -1.0687    0.4845 C   0  0  0  0  0  0  0  0  0  0  0  0
    3.4291   -0.3606   -0.3514 C   0  0  0  0  0  0  0  0  0  0  0  0
    2.8969    1.0028   -0.1821 C   0  0  0  0  0  0  0  0  0  0  0  0
    0.9568    2.6030    0.1537 C   0  0  0  0  0  0  0  0  0  0  0  0
   -1.1916   -0.2615   -1.6417 H   0  0  0  0  0  0  0  0  0  0  0  0
   -1.0944   -0.2951    1.4346 H   0  0  0  0  0  0  0  0  0  0  0  0
   -1.6179   -2.6874   -1.4335 H   0  0  0  0  0  0  0  0  0  0  0  0
   -1.4517   -2.5996    0.3183 H   0  0  0  0  0  0  0  0  0  0  0  0
    0.6825   -3.2962   -0.6575 H   0  0  0  0  0  0  0  0  0  0  0  0
    0.6581   -1.9560   -1.7911 H   0  0  0  0  0  0  0  0  0  0  0  0
   -3.4764   -0.2849   -1.5028 H   0  0  0  0  0  0  0  0  0  0  0  0
    1.5552   -2.9671    1.6923 H   0  0  0  0  0  0  0  0  0  0  0  0
    1.6504   -1.3452    2.3898 H   0  0  0  0  0  0  0  0  0  0  0  0
    0.0825   -2.0653    2.0184 H   0  0  0  0  0  0  0  0  0  0  0  0
    3.0927   -2.4097   -0.2827 H   0  0  0  0  0  0  0  0  0  0  0  0
   -4.8060   -0.6467    0.5822 H   0  0  0  0  0  0  0  0  0  0  0  0
   -3.9042   -2.1111    0.1680 H   0  0  0  0  0  0  0  0  0  0  0  0
   -3.3480   -1.0554    1.4819 H   0  0  0  0  0  0  0  0  0  0  0  0
    4.4733   -0.4718   -0.6203 H   0  0  0  0  0  0  0  0  0  0  0  0
    1.7797    3.3228    0.2017 H   0  0  0  0  0  0  0  0  0  0  0  0
    0.3611    2.7774    1.0554 H   0  0  0  0  0  0  0  0  0  0  0  0
    0.3648    2.8492   -0.7335 H   0  0  0  0  0  0  0  0  0  0  0  0
  1  5  1  0  0  0  0
  1 11  1  0  0  0  0
  2 11  2  0  0  0  0
  3 17  2  0  0  0  0
  4  5  1  0  0  0  0
  4  7  1  0  0  0  0
  4 10  1  0  0  0  0
  4 19  1  0  0  0  0
  5  8  1  0  0  0  0
  5 20  1  0  0  0  0
  6  8  1  0  0  0  0
  6  9  1  0  0  0  0
  6 12  1  0  0  0  0
  6 13  1  0  0  0  0
  7  9  1  0  0  0  0
  7 21  1  0  0  0  0
  7 22  1  0  0  0  0
  8 14  2  0  0  0  0
  9 23  1  0  0  0  0
  9 24  1  0  0  0  0
 10 11  1  0  0  0  0
 10 15  1  0  0  0  0
 10 25  1  0  0  0  0
 12 26  1  0  0  0  0
 12 27  1  0  0  0  0
 12 28  1  0  0  0  0
 13 16  2  0  0  0  0
 13 29  1  0  0  0  0
 14 17  1  0  0  0  0
 14 18  1  0  0  0  0
 15 30  1  0  0  0  0
 15 31  1  0  0  0  0
 15 32  1  0  0  0  0
 16 17  1  0  0  0  0
 16 33  1  0  0  0  0
 18 34  1  0  0  0  0
 18 35  1  0  0  0  0
 18 36  1  0  0  0  0
M  END
> <PUBCHEM_COMPOUND_CID>
237619

> <PUBCHEM_CONFORMER_RMSD>
0.6

> <PUBCHEM_CONFORMER_DIVERSEORDER>
1

> <PUBCHEM_MMFF94_PARTIAL_CHARGES>
15
1 -0.43
10 0.06
11 0.66
13 -0.29
14 -0.12
16 -0.14
17 0.54
18 0.14
2 -0.57
29 0.15
3 -0.57
33 0.15
5 0.42
6 0.28
8 -0.28

> <PUBCHEM_EFFECTIVE_ROTOR_COUNT>
0.8

> <PUBCHEM_PHARMACOPHORE_FEATURES>
5
1 2 acceptor
1 3 acceptor
5 1 4 5 10 11 rings
6 4 5 6 7 8 9 rings
6 6 8 13 14 16 17 rings

> <PUBCHEM_HEAVY_ATOM_COUNT>
18

> <PUBCHEM_ATOM_DEF_STEREO_COUNT>
4

> <PUBCHEM_ATOM_UDEF_STEREO_COUNT>
0

> <PUBCHEM_BOND_DEF_STEREO_COUNT>
0

> <PUBCHEM_BOND_UDEF_STEREO_COUNT>
0

> <PUBCHEM_ISOTOPIC_ATOM_COUNT>
0

> <PUBCHEM_COMPONENT_COUNT>
1

> <PUBCHEM_CACTVS_TAUTO_COUNT>
2

> <PUBCHEM_CONFORMER_ID>
0003A03300000001

> <PUBCHEM_MMFF94_ENERGY>
43.1531

> <PUBCHEM_FEATURE_SELFOVERLAP>
25.474

> <PUBCHEM_SHAPE_FINGERPRINT>
10062212 137 18339633460588983690
10411042 1 16466712959498927319
10608611 8 18409728456636530101
10863032 1 18409168792158887055
10948715 1 18408887364648330214
10967382 1 18340486776212038724
10980938 120 18409729547526340888
12491281 212 18338238275196974382
12644460 14 18192441770744275081
13140716 1 18268144271096904688
13172582 1 18196075669089679138
13221675 6 18341048618137919599
14289901 80 16153708700085986439
14787075 74 17682122415156176923
15196674 1 18411700980428091044
15536298 74 18344145891154164564
15775835 57 18409169939015381972
16945 1 18197772413231565494
18186145 218 18202294597245722772
19591789 44 18412268349845175463
19765921 60 18261107530208155346
20645477 70 18411413978197651351
21267235 1 18411991255703354278
21501502 16 18337666426229506315
21524375 3 18262798587597226012
22094290 62 18410570652504820790
221490 88 18409177605490164514
22854114 111 18333731320941604934
2334 1 18412541002895386257
23402539 116 18201428143802954238
23419403 2 11685020061630477873
23463225 33 18339358548443510126
23558518 356 17903349647737722160
23559900 14 18058734757965474528
238 59 17540491826979868133
25 1 18334577949458998126
2748010 2 18341046328724925245
2871803 45 18335415820464449007
3060560 45 18127406761282681559
335352 9 18196092131693758062
34934 24 18337946771207994000
353137 74 18339639044088445627
474 4 17895479223278711500
5104073 3 18410856551086831161
528886 8 18270676463766707074
5939293 188 18340480054662300808
63268167 104 18411703201063313712
7364860 26 18342174427755217614
7832392 63 18341889701662428326
81228 2 17114090626127563779
90525 40 18201436956664382527
9981440 41 17761201516693490920

> <PUBCHEM_SHAPE_MULTIPOLES>
352.82
5.86
2.73
0.92
1.66
0.43
-0.21
1.77
0.42
-0.42
-0.03
-0.06
-0.46
-0.26

> <PUBCHEM_SHAPE_SELFOVERLAP>
763.468

> <PUBCHEM_SHAPE_VOLUME>
193.2

> <PUBCHEM_COORDINATE_TYPE>
2
5
10

$$$$
