59154795
  -OEChem-11012400583D

 16 15  0     0  0  0  0  0  0999 V2000
    1.7798   -1.3168    0.1413 F   0  0  0  0  0  0  0  0  0  0  0  0
   -0.8155   -0.0792   -0.1267 O   0  0  0  0  0  0  0  0  0  0  0  0
   -2.0784    0.3818    0.3351 C   0  0  0  0  0  0  0  0  0  0  0  0
    0.2542    0.5390    0.5744 C   0  0  0  0  0  0  0  0  0  0  0  0
   -3.1729   -0.3115   -0.4478 C   0  0  0  0  0  0  0  0  0  0  0  0
    1.5441    0.0118    0.0418 C   0  0  0  0  0  0  0  0  0  0  0  0
    2.4887    0.7750   -0.5181 C   0  0  0  0  0  0  0  0  0  0  0  0
   -2.1877    0.1559    1.4018 H   0  0  0  0  0  0  0  0  0  0  0  0
   -2.1527    1.4655    0.1915 H   0  0  0  0  0  0  0  0  0  0  0  0
    0.1911    1.6275    0.4587 H   0  0  0  0  0  0  0  0  0  0  0  0
    0.1844    0.2969    1.6410 H   0  0  0  0  0  0  0  0  0  0  0  0
   -3.0708   -0.1056   -1.5184 H   0  0  0  0  0  0  0  0  0  0  0  0
   -3.1060   -1.3976   -0.3250 H   0  0  0  0  0  0  0  0  0  0  0  0
   -4.1609    0.0208   -0.1171 H   0  0  0  0  0  0  0  0  0  0  0  0
    3.4087    0.3312   -0.8823 H   0  0  0  0  0  0  0  0  0  0  0  0
    2.3642    1.8469   -0.6237 H   0  0  0  0  0  0  0  0  0  0  0  0
  1  6  1  0  0  0  0
  2  3  1  0  0  0  0
  2  4  1  0  0  0  0
  3  5  1  0  0  0  0
  3  8  1  0  0  0  0
  3  9  1  0  0  0  0
  4  6  1  0  0  0  0
  4 10  1  0  0  0  0
  4 11  1  0  0  0  0
  5 12  1  0  0  0  0
  5 13  1  0  0  0  0
  5 14  1  0  0  0  0
  6  7  2  0  0  0  0
  7 15  1  0  0  0  0
  7 16  1  0  0  0  0
M  END
> <PUBCHEM_COMPOUND_CID>
59154795

> <PUBCHEM_CONFORMER_RMSD>
0.4

> <PUBCHEM_CONFORMER_DIVERSEORDER>
1
38
6
25
40
7
15
4
35
9
10
8
23
37
2
39
5
26
3
17
29
27
34
12
21
33
24
20
19
11
36
18
31
30
28
22
16
32
14
13

> <PUBCHEM_MMFF94_PARTIAL_CHARGES>
8
1 -0.15
15 0.15
16 0.15
2 -0.56
3 0.28
4 0.42
6 0.01
7 -0.3

> <PUBCHEM_EFFECTIVE_ROTOR_COUNT>
3

> <PUBCHEM_PHARMACOPHORE_FEATURES>
1
1 2 acceptor

> <PUBCHEM_HEAVY_ATOM_COUNT>
7

> <PUBCHEM_ATOM_DEF_STEREO_COUNT>
0

> <PUBCHEM_ATOM_UDEF_STEREO_COUNT>
0

> <PUBCHEM_BOND_DEF_STEREO_COUNT>
0

> <PUBCHEM_BOND_UDEF_STEREO_COUNT>
0

> <PUBCHEM_ISOTOPIC_ATOM_COUNT>
0

> <PUBCHEM_COMPONENT_COUNT>
1

> <PUBCHEM_CACTVS_TAUTO_COUNT>
1

> <PUBCHEM_CONFORMER_ID>
0386A16B00000001

> <PUBCHEM_MMFF94_ENERGY>
3.9588

> <PUBCHEM_FEATURE_SELFOVERLAP>
5.074

> <PUBCHEM_SHAPE_FINGERPRINT>
12897270 3 18335143123836350085
12932741 1 16878237401952024161
12932764 1 17989483035279210481
14390081 3 15574707002454720725
23552423 10 18267027154540795163
29004967 10 18187091654121045672
3248919 1 18186238428982207305
5460574 1 8214147352070836945

> <PUBCHEM_SHAPE_MULTIPOLES>
130.91
4.6
0.93
0.73
2.22
0.18
-0.01
0.1
-0.95
-0.42
0.04
0
-0.06
-0.28

> <PUBCHEM_SHAPE_SELFOVERLAP>
233.093

> <PUBCHEM_SHAPE_VOLUME>
85.9

> <PUBCHEM_COORDINATE_TYPE>
2
5
10

$$$$
