138668
  -OEChem-11012400413D

 35 36  0     0  0  0  0  0  0999 V2000
    0.3701    2.4150   -0.5977 O   0  0  0  0  0  0  0  0  0  0  0  0
    4.5445    0.9651   -0.3138 O   0  0  0  0  0  0  0  0  0  0  0  0
   -0.2468    0.2081   -0.0807 N   0  0  0  0  0  0  0  0  0  0  0  0
    1.8453    1.1587    0.6433 N   0  0  0  0  0  0  0  0  0  0  0  0
    0.2303   -1.1011   -0.0099 C   0  0  0  0  0  0  0  0  0  0  0  0
   -1.6901    0.4447   -0.0752 C   0  0  0  0  0  0  0  0  0  0  0  0
    0.6548    1.3387   -0.0630 C   0  0  0  0  0  0  0  0  0  0  0  0
    2.8217    2.2122    0.7975 C   0  0  0  0  0  0  0  0  0  0  0  0
   -0.5064   -2.0763    0.6625 C   0  0  0  0  0  0  0  0  0  0  0  0
   -2.4886   -0.5196   -0.6129 C   0  0  0  0  0  0  0  0  0  0  0  0
    1.4433   -1.4352   -0.6121 C   0  0  0  0  0  0  0  0  0  0  0  0
   -2.1355    1.6124    0.4676 C   0  0  0  0  0  0  0  0  0  0  0  0
    3.8388    2.1992   -0.3291 C   0  0  0  0  0  0  0  0  0  0  0  0
   -0.0299   -3.3854    0.7331 C   0  0  0  0  0  0  0  0  0  0  0  0
   -3.8652   -0.2943   -0.6075 C   0  0  0  0  0  0  0  0  0  0  0  0
    1.9197   -2.7443   -0.5417 C   0  0  0  0  0  0  0  0  0  0  0  0
   -3.5121    1.8375    0.4731 C   0  0  0  0  0  0  0  0  0  0  0  0
    1.1830   -3.7193    0.1310 C   0  0  0  0  0  0  0  0  0  0  0  0
   -4.3769    0.8841   -0.0645 C   0  0  0  0  0  0  0  0  0  0  0  0
    3.3182    2.0354    1.7575 H   0  0  0  0  0  0  0  0  0  0  0  0
    2.3128    3.1805    0.8407 H   0  0  0  0  0  0  0  0  0  0  0  0
    1.9984    0.3008    1.1622 H   0  0  0  0  0  0  0  0  0  0  0  0
   -1.4119   -1.8573    1.2216 H   0  0  0  0  0  0  0  0  0  0  0  0
   -2.1349   -1.4089   -1.1224 H   0  0  0  0  0  0  0  0  0  0  0  0
    2.0232   -0.7124   -1.1799 H   0  0  0  0  0  0  0  0  0  0  0  0
   -1.4987    2.3539    0.9356 H   0  0  0  0  0  0  0  0  0  0  0  0
    4.5594    3.0124   -0.1994 H   0  0  0  0  0  0  0  0  0  0  0  0
    3.3516    2.3067   -1.3036 H   0  0  0  0  0  0  0  0  0  0  0  0
   -0.5935   -4.1409    1.2728 H   0  0  0  0  0  0  0  0  0  0  0  0
   -4.5379   -1.0275   -1.0431 H   0  0  0  0  0  0  0  0  0  0  0  0
    2.8601   -3.0067   -1.0177 H   0  0  0  0  0  0  0  0  0  0  0  0
   -3.9120    2.7505    0.9047 H   0  0  0  0  0  0  0  0  0  0  0  0
    1.5552   -4.7380    0.1879 H   0  0  0  0  0  0  0  0  0  0  0  0
   -5.4486    1.0604   -0.0620 H   0  0  0  0  0  0  0  0  0  0  0  0
    5.1851    0.9939   -1.0447 H   0  0  0  0  0  0  0  0  0  0  0  0
  1  7  2  0  0  0  0
  2 13  1  0  0  0  0
  2 35  1  0  0  0  0
  3  5  1  0  0  0  0
  3  6  1  0  0  0  0
  3  7  1  0  0  0  0
  4  7  1  0  0  0  0
  4  8  1  0  0  0  0
  4 22  1  0  0  0  0
  5  9  2  0  0  0  0
  5 11  1  0  0  0  0
  6 10  2  0  0  0  0
  6 12  1  0  0  0  0
  8 13  1  0  0  0  0
  8 20  1  0  0  0  0
  8 21  1  0  0  0  0
  9 14  1  0  0  0  0
  9 23  1  0  0  0  0
 10 15  1  0  0  0  0
 10 24  1  0  0  0  0
 11 16  2  0  0  0  0
 11 25  1  0  0  0  0
 12 17  2  0  0  0  0
 12 26  1  0  0  0  0
 13 27  1  0  0  0  0
 13 28  1  0  0  0  0
 14 18  2  0  0  0  0
 14 29  1  0  0  0  0
 15 19  2  0  0  0  0
 15 30  1  0  0  0  0
 16 18  1  0  0  0  0
 16 31  1  0  0  0  0
 17 19  1  0  0  0  0
 17 32  1  0  0  0  0
 18 33  1  0  0  0  0
 19 34  1  0  0  0  0
M  END
> <PUBCHEM_COMPOUND_CID>
138668

> <PUBCHEM_CONFORMER_RMSD>
0.8

> <PUBCHEM_CONFORMER_DIVERSEORDER>
1
8
15
6
16
3
7
12
9
4
11
2
10
14
13
5

> <PUBCHEM_MMFF94_PARTIAL_CHARGES>
31
1 -0.57
10 -0.15
11 -0.15
12 -0.15
13 0.28
14 -0.15
15 -0.15
16 -0.15
17 -0.15
18 -0.15
19 -0.15
2 -0.68
22 0.37
23 0.15
24 0.15
25 0.15
26 0.15
29 0.15
3 -0.29
30 0.15
31 0.15
32 0.15
33 0.15
34 0.15
35 0.4
4 -0.73
5 0.12
6 0.12
7 0.69
8 0.3
9 -0.15

> <PUBCHEM_EFFECTIVE_ROTOR_COUNT>
6

> <PUBCHEM_PHARMACOPHORE_FEATURES>
6
1 1 acceptor
1 2 acceptor
1 2 donor
1 4 donor
6 5 9 11 14 16 18 rings
6 6 10 12 15 17 19 rings

> <PUBCHEM_HEAVY_ATOM_COUNT>
19

> <PUBCHEM_ATOM_DEF_STEREO_COUNT>
0

> <PUBCHEM_ATOM_UDEF_STEREO_COUNT>
0

> <PUBCHEM_BOND_DEF_STEREO_COUNT>
0

> <PUBCHEM_BOND_UDEF_STEREO_COUNT>
0

> <PUBCHEM_ISOTOPIC_ATOM_COUNT>
0

> <PUBCHEM_COMPONENT_COUNT>
1

> <PUBCHEM_CACTVS_TAUTO_COUNT>
2

> <PUBCHEM_CONFORMER_ID>
00021DAC00000001

> <PUBCHEM_MMFF94_ENERGY>
83.1889

> <PUBCHEM_FEATURE_SELFOVERLAP>
30.448

> <PUBCHEM_SHAPE_FINGERPRINT>
10967382 1 18410855421489293391
11578080 2 17534619313568751076
12553582 1 17762616188367926175
12592029 89 18411419505424922592
12643181 29 18337679715692056252
12788726 201 17396693663525160114
13140716 1 18335986384930786251
13380535 76 18338515351757811330
13464514 151 18341902865605230694
138480 1 17978509737261442146
15375462 189 17831872248295114283
15490181 8 18264772241028606325
15536298 74 18201438030300620269
15664445 248 17697330511993800463
16752209 62 17905318881779578058
16945 1 17988062509084406061
19591789 44 18410292519128736942
20510252 161 17910676788919620497
20645477 70 18270391682292640613
21524375 3 18343580776141808052
22182313 1 18265073476891902634
2255824 54 18268427936723584007
22907989 373 17687757450723445364
23366157 5 18189055295904362091
23419403 2 17683005095185675394
23559900 14 18055619630363225291
23598291 2 18129937854836287309
25147074 1 17988357054348582153
2748010 2 18263099823571188283
3071541 12 18339925892137860803
3091708 16 9333428194424213883
352729 6 18049445043396486069
43471831 8 18411130351046757785
458136 41 18410303496775183737
474 4 18410290289703035369
474229 33 18192712465427048811
54173680 148 17760928845650338360
59755656 215 18338796831641815623
6138700 20 18341336575016852174
633830 44 18131064982513582492
7364860 26 18270114609140527643
81228 2 17473806807199774032
81539 233 18335411366103159373
84936 182 18272650117029464617
90316 7 17113815190022830715
9709674 26 17983579895015767404
9981440 41 18338510958043289026

> <PUBCHEM_SHAPE_MULTIPOLES>
369.31
6.62
4.22
0.83
1.98
3.08
0.03
-4.97
-0.66
-3.74
0.57
-0.02
0.07
-0.07

> <PUBCHEM_SHAPE_SELFOVERLAP>
785.14

> <PUBCHEM_SHAPE_VOLUME>
204.3

> <PUBCHEM_COORDINATE_TYPE>
2
5
10

$$$$
