145536
  -OEChem-11012400563D

 44 46  0     0  0  0  0  0  0999 V2000
   -3.3125    0.5185    0.1305 O   0  0  0  0  0  0  0  0  0  0  0  0
    2.7317    0.0573   -0.4752 N   0  0  0  0  0  0  0  0  0  0  0  0
    2.2007    0.1661    0.6551 N   0  0  0  0  0  0  0  0  0  0  0  0
    6.1170   -1.3657   -0.0721 C   0  0  0  0  0  0  0  0  0  0  0  0
    6.2843    1.0395   -0.2265 C   0  0  0  0  0  0  0  0  0  0  0  0
    6.8936   -0.2072   -0.0844 C   0  0  0  0  0  0  0  0  0  0  0  0
    4.1281   -0.0314   -0.3432 C   0  0  0  0  0  0  0  0  0  0  0  0
    4.7310   -1.2776   -0.2020 C   0  0  0  0  0  0  0  0  0  0  0  0
    4.8983    1.1277   -0.3562 C   0  0  0  0  0  0  0  0  0  0  0  0
   -4.0377   -0.7049    0.1510 C   0  0  0  0  0  0  0  0  0  0  0  0
   -5.4892   -0.4236   -0.0451 C   0  0  0  0  0  0  0  0  0  0  0  0
   -1.9513    0.4314    0.2603 C   0  0  0  0  0  0  0  0  0  0  0  0
    6.7683   -2.6988    0.0803 C   0  0  0  0  0  0  0  0  0  0  0  0
    7.1149    2.2784   -0.2396 C   0  0  0  0  0  0  0  0  0  0  0  0
    0.8113    0.2546    0.5243 C   0  0  0  0  0  0  0  0  0  0  0  0
   -6.3091   -0.1879    1.0585 C   0  0  0  0  0  0  0  0  0  0  0  0
   -6.0268   -0.3958   -1.3319 C   0  0  0  0  0  0  0  0  0  0  0  0
   -1.3516   -0.8150    0.4028 C   0  0  0  0  0  0  0  0  0  0  0  0
   -1.1831    1.5902    0.2484 C   0  0  0  0  0  0  0  0  0  0  0  0
    0.0342   -0.9036    0.5354 C   0  0  0  0  0  0  0  0  0  0  0  0
    0.2027    1.5015    0.3809 C   0  0  0  0  0  0  0  0  0  0  0  0
   -7.6666    0.0755    0.8753 C   0  0  0  0  0  0  0  0  0  0  0  0
   -7.3843   -0.1324   -1.5151 C   0  0  0  0  0  0  0  0  0  0  0  0
   -8.2042    0.1032   -0.4114 C   0  0  0  0  0  0  0  0  0  0  0  0
    7.9742   -0.2759    0.0168 H   0  0  0  0  0  0  0  0  0  0  0  0
    4.1224   -2.1788   -0.1956 H   0  0  0  0  0  0  0  0  0  0  0  0
    4.4194    2.0978   -0.4662 H   0  0  0  0  0  0  0  0  0  0  0  0
   -3.9062   -1.2188    1.1126 H   0  0  0  0  0  0  0  0  0  0  0  0
   -3.7074   -1.3704   -0.6580 H   0  0  0  0  0  0  0  0  0  0  0  0
    7.0350   -3.1010   -0.9021 H   0  0  0  0  0  0  0  0  0  0  0  0
    6.1024   -3.4097    0.5814 H   0  0  0  0  0  0  0  0  0  0  0  0
    7.6762   -2.6274    0.6891 H   0  0  0  0  0  0  0  0  0  0  0  0
    7.2435    2.6550    0.7799 H   0  0  0  0  0  0  0  0  0  0  0  0
    8.1034    2.0865   -0.6707 H   0  0  0  0  0  0  0  0  0  0  0  0
    6.6478    3.0615   -0.8465 H   0  0  0  0  0  0  0  0  0  0  0  0
   -5.9023   -0.2041    2.0661 H   0  0  0  0  0  0  0  0  0  0  0  0
   -5.3985   -0.5750   -2.2004 H   0  0  0  0  0  0  0  0  0  0  0  0
   -1.8897   -1.7557    0.4240 H   0  0  0  0  0  0  0  0  0  0  0  0
   -1.6531    2.5632    0.1370 H   0  0  0  0  0  0  0  0  0  0  0  0
    0.5002   -1.8792    0.6480 H   0  0  0  0  0  0  0  0  0  0  0  0
    0.7997    2.4098    0.3714 H   0  0  0  0  0  0  0  0  0  0  0  0
   -8.3049    0.2597    1.7345 H   0  0  0  0  0  0  0  0  0  0  0  0
   -7.8029   -0.1099   -2.5170 H   0  0  0  0  0  0  0  0  0  0  0  0
   -9.2610    0.3087   -0.5541 H   0  0  0  0  0  0  0  0  0  0  0  0
  1 10  1  0  0  0  0
  1 12  1  0  0  0  0
  2  3  2  0  0  0  0
  2  7  1  0  0  0  0
  3 15  1  0  0  0  0
  4  6  2  0  0  0  0
  4  8  1  0  0  0  0
  4 13  1  0  0  0  0
  5  6  1  0  0  0  0
  5  9  2  0  0  0  0
  5 14  1  0  0  0  0
  6 25  1  0  0  0  0
  7  8  2  0  0  0  0
  7  9  1  0  0  0  0
  8 26  1  0  0  0  0
  9 27  1  0  0  0  0
 10 11  1  0  0  0  0
 10 28  1  0  0  0  0
 10 29  1  0  0  0  0
 11 16  2  0  0  0  0
 11 17  1  0  0  0  0
 12 18  2  0  0  0  0
 12 19  1  0  0  0  0
 13 30  1  0  0  0  0
 13 31  1  0  0  0  0
 13 32  1  0  0  0  0
 14 33  1  0  0  0  0
 14 34  1  0  0  0  0
 14 35  1  0  0  0  0
 15 20  2  0  0  0  0
 15 21  1  0  0  0  0
 16 22  1  0  0  0  0
 16 36  1  0  0  0  0
 17 23  2  0  0  0  0
 17 37  1  0  0  0  0
 18 20  1  0  0  0  0
 18 38  1  0  0  0  0
 19 21  2  0  0  0  0
 19 39  1  0  0  0  0
 20 40  1  0  0  0  0
 21 41  1  0  0  0  0
 22 24  2  0  0  0  0
 22 42  1  0  0  0  0
 23 24  1  0  0  0  0
 23 43  1  0  0  0  0
 24 44  1  0  0  0  0
M  END
> <PUBCHEM_COMPOUND_CID>
145536

> <PUBCHEM_CONFORMER_RMSD>
0.8

> <PUBCHEM_CONFORMER_DIVERSEORDER>
1
18
23
22
13
14
20
12
6
21
19
5
8
15
11
10
25
4
24
7
26
17
16
3
9
2

> <PUBCHEM_MMFF94_PARTIAL_CHARGES>
36
1 -0.36
10 0.42
11 -0.14
12 0.08
13 0.14
14 0.14
15 0.18
16 -0.15
17 -0.15
18 -0.15
19 -0.15
2 -0.18
20 -0.15
21 -0.15
22 -0.15
23 -0.15
24 -0.15
25 0.15
26 0.15
27 0.15
3 -0.18
36 0.15
37 0.15
38 0.15
39 0.15
4 -0.14
40 0.15
41 0.15
42 0.15
43 0.15
44 0.15
5 -0.14
6 -0.15
7 0.18
8 -0.15
9 -0.15

> <PUBCHEM_EFFECTIVE_ROTOR_COUNT>
5

> <PUBCHEM_PHARMACOPHORE_FEATURES>
4
1 1 acceptor
6 11 16 17 22 23 24 rings
6 12 15 18 19 20 21 rings
6 4 5 6 7 8 9 rings

> <PUBCHEM_HEAVY_ATOM_COUNT>
24

> <PUBCHEM_ATOM_DEF_STEREO_COUNT>
0

> <PUBCHEM_ATOM_UDEF_STEREO_COUNT>
0

> <PUBCHEM_BOND_DEF_STEREO_COUNT>
0

> <PUBCHEM_BOND_UDEF_STEREO_COUNT>
0

> <PUBCHEM_ISOTOPIC_ATOM_COUNT>
0

> <PUBCHEM_COMPONENT_COUNT>
1

> <PUBCHEM_CACTVS_TAUTO_COUNT>
1

> <PUBCHEM_CONFORMER_ID>
0002388000000001

> <PUBCHEM_MMFF94_ENERGY>
74.0502

> <PUBCHEM_FEATURE_SELFOVERLAP>
20.297

> <PUBCHEM_SHAPE_FINGERPRINT>
10050765 1 18049442548241922801
10066227 49 18335137532000680898
10299344 5 17917712400796219695
10319688 140 18043525023754126898
106641 1 11239989075555647383
10835480 77 18263083361425610576
11315181 36 17846782936544328539
11719270 70 17561083583908675718
12082328 90 18408603657095617391
12516196 113 15482672381287772851
13533116 47 18412825772998314410
14123256 10 18113899360194304885
14251764 18 17847063289695960657
14251764 46 18411982469080760434
15119646 104 18059576849641538790
15183329 4 17846781819114541439
15198563 99 17895751790720676317
15419008 47 17385717011143702741
15419008 91 17458896136863879997
15510794 2 17894634772462815915
15716309 27 18202283589444827755
15849732 13 17749110006380232711
18006028 8 17917711305722283065
20157964 124 18334859429284486084
21150785 3 18059856190119398433
21236236 1 18340772542394334977
21344244 78 18129650913104655296
21521721 280 18341054098515897368
21792934 111 18272360954451645472
21792961 116 17895191070323791371
22224240 67 10879989160116766133
22956985 138 16555958308328271886
23035841 295 18131632279627398155
23081809 10 18131357392666322272
23522609 53 17844273841392149064
23559900 14 18338231690933248633
249057 3 16515689974481141103
255183 451 17773331032913992630
3009799 131 17967532389057650957
335352 9 18343300401467736807
4073 2 18042129911470961210
4325135 7 18343303682496008636
445580 37 15647052621537170175
5219985 9 17775283863557918457
5283156 175 18413108338026130626
5969126 39 18412260602278379821
59755656 520 7853571280118648281
6081469 158 17749390343997497654

> <PUBCHEM_SHAPE_MULTIPOLES>
478.08
26.97
1.72
0.95
14.3
0.16
-0.15
2.53
-4.38
-4.75
0.02
1.68
0.03
-0.42

> <PUBCHEM_SHAPE_SELFOVERLAP>
1032.784

> <PUBCHEM_SHAPE_VOLUME>
264

> <PUBCHEM_COORDINATE_TYPE>
2
5
10

$$$$
