138433
  -OEChem-11012400323D

 20 19  0     0  0  0  0  0  0999 V2000
   -3.3136   -0.0494    0.0020 C   0  0  0  0  0  0  0  0  0  0  0  0
    3.3135    0.0495    0.0019 C   0  0  0  0  0  0  0  0  0  0  0  0
   -4.0545    1.2516   -0.0958 C   0  0  0  0  0  0  0  0  0  0  0  0
    4.0544   -1.2515   -0.0958 C   0  0  0  0  0  0  0  0  0  0  0  0
   -3.9564   -1.2236    0.0884 C   0  0  0  0  0  0  0  0  0  0  0  0
    3.9567    1.2235    0.0884 C   0  0  0  0  0  0  0  0  0  0  0  0
   -1.8865   -0.0325    0.0026 C   0  0  0  0  0  0  0  0  0  0  0  0
    1.8864    0.0327    0.0027 C   0  0  0  0  0  0  0  0  0  0  0  0
   -0.6859   -0.0121    0.0029 C   0  0  0  0  0  0  0  0  0  0  0  0
    0.6859    0.0117    0.0026 C   0  0  0  0  0  0  0  0  0  0  0  0
   -5.1406    1.1101   -0.0867 H   0  0  0  0  0  0  0  0  0  0  0  0
   -3.7944    1.7703   -1.0248 H   0  0  0  0  0  0  0  0  0  0  0  0
   -3.7968    1.9020    0.7470 H   0  0  0  0  0  0  0  0  0  0  0  0
    3.7966   -1.9019    0.7470 H   0  0  0  0  0  0  0  0  0  0  0  0
    3.7944   -1.7701   -1.0248 H   0  0  0  0  0  0  0  0  0  0  0  0
    5.1405   -1.1101   -0.0866 H   0  0  0  0  0  0  0  0  0  0  0  0
   -5.0407   -1.2727    0.0906 H   0  0  0  0  0  0  0  0  0  0  0  0
   -3.4207   -2.1655    0.1591 H   0  0  0  0  0  0  0  0  0  0  0  0
    5.0409    1.2724    0.0907 H   0  0  0  0  0  0  0  0  0  0  0  0
    3.4212    2.1655    0.1592 H   0  0  0  0  0  0  0  0  0  0  0  0
  1  3  1  0  0  0  0
  1  5  2  0  0  0  0
  1  7  1  0  0  0  0
  2  4  1  0  0  0  0
  2  6  2  0  0  0  0
  2  8  1  0  0  0  0
  3 11  1  0  0  0  0
  3 12  1  0  0  0  0
  3 13  1  0  0  0  0
  4 14  1  0  0  0  0
  4 15  1  0  0  0  0
  4 16  1  0  0  0  0
  5 17  1  0  0  0  0
  5 18  1  0  0  0  0
  6 19  1  0  0  0  0
  6 20  1  0  0  0  0
  7  9  3  0  0  0  0
  8 10  3  0  0  0  0
  9 10  1  0  0  0  0
M  END
> <PUBCHEM_COMPOUND_CID>
138433

> <PUBCHEM_CONFORMER_RMSD>
0.4

> <PUBCHEM_CONFORMER_DIVERSEORDER>
1

> <PUBCHEM_MMFF94_PARTIAL_CHARGES>
12
1 -0.07
17 0.15
18 0.15
19 0.15
2 -0.07
20 0.15
3 0.14
4 0.14
5 -0.3
6 -0.3
7 -0.06
8 -0.06

> <PUBCHEM_EFFECTIVE_ROTOR_COUNT>
0

> <PUBCHEM_PHARMACOPHORE_FEATURES>
0

> <PUBCHEM_HEAVY_ATOM_COUNT>
10

> <PUBCHEM_ATOM_DEF_STEREO_COUNT>
0

> <PUBCHEM_ATOM_UDEF_STEREO_COUNT>
0

> <PUBCHEM_BOND_DEF_STEREO_COUNT>
0

> <PUBCHEM_BOND_UDEF_STEREO_COUNT>
0

> <PUBCHEM_ISOTOPIC_ATOM_COUNT>
0

> <PUBCHEM_COMPONENT_COUNT>
1

> <PUBCHEM_CACTVS_TAUTO_COUNT>
1

> <PUBCHEM_CONFORMER_ID>
00021CC100000001

> <PUBCHEM_MMFF94_ENERGY>
4.0862

> <PUBCHEM_FEATURE_SELFOVERLAP>
0

> <PUBCHEM_SHAPE_FINGERPRINT>
10014705 185 18186796968473960989
10680689 15 17603869988023472189
11062470 55 18410856568240390600
11987891 38 18411984650096471934
14123238 8 18410575127612751956
14325111 11 18410573993746770914
18186145 218 17822006497572154532
190213 19 18410854369206488096
1986462 14 18335140882274754879
20645477 56 18262521382340591517
20645477 70 18343585105859486190
22485316 2 18411697690345998670
23402539 116 18409441483932674316
23402655 69 18343301461776266452
42 15 18409449163613871606
449060 50 18339360880911503668
77779 3 18410576188469673988

> <PUBCHEM_SHAPE_MULTIPOLES>
205.8
10.04
1.23
0.62
0
0
0
0
-0.03
0
0
0
0
0.18

> <PUBCHEM_SHAPE_SELFOVERLAP>
393.923

> <PUBCHEM_SHAPE_VOLUME>
123.3

> <PUBCHEM_COORDINATE_TYPE>
2
5
10

$$$$
