11062495
  -OEChem-11012400333D

 28 27  0     1  0  0  0  0  0999 V2000
    1.9315    1.3343    0.9881 O   0  0  0  0  0  0  0  0  0  0  0  0
    0.9971    0.9015   -0.0110 C   0  0  2  0  0  0  0  0  0  0  0  0
   -0.3298    0.5700    0.7088 C   0  0  0  0  0  0  0  0  0  0  0  0
   -1.4834    0.1847   -0.2272 C   0  0  0  0  0  0  0  0  0  0  0  0
    1.6306   -0.3023   -0.7463 C   0  0  0  0  0  0  0  0  0  0  0  0
    0.7772    2.0873   -0.9615 C   0  0  0  0  0  0  0  0  0  0  0  0
   -2.7584   -0.1138    0.5640 C   0  0  0  0  0  0  0  0  0  0  0  0
    1.8834   -1.5126    0.1059 C   0  0  0  0  0  0  0  0  0  0  0  0
   -3.9172   -0.4605   -0.3574 C   0  0  0  0  0  0  0  0  0  0  0  0
    1.2690   -2.6887   -0.0634 C   0  0  0  0  0  0  0  0  0  0  0  0
   -0.1651   -0.2268    1.4453 H   0  0  0  0  0  0  0  0  0  0  0  0
   -0.6312    1.4399    1.3093 H   0  0  0  0  0  0  0  0  0  0  0  0
   -1.2128   -0.6952   -0.8205 H   0  0  0  0  0  0  0  0  0  0  0  0
   -1.6944    0.9997   -0.9275 H   0  0  0  0  0  0  0  0  0  0  0  0
    2.6026    0.0010   -1.1583 H   0  0  0  0  0  0  0  0  0  0  0  0
    1.0092   -0.5731   -1.6092 H   0  0  0  0  0  0  0  0  0  0  0  0
    0.3122    2.9309   -0.4387 H   0  0  0  0  0  0  0  0  0  0  0  0
    1.7367    2.4562   -1.3429 H   0  0  0  0  0  0  0  0  0  0  0  0
    0.1604    1.8216   -1.8248 H   0  0  0  0  0  0  0  0  0  0  0  0
   -2.5820   -0.9488    1.2518 H   0  0  0  0  0  0  0  0  0  0  0  0
   -3.0325    0.7561    1.1722 H   0  0  0  0  0  0  0  0  0  0  0  0
    2.7633    1.5698    0.5427 H   0  0  0  0  0  0  0  0  0  0  0  0
    2.6153   -1.4182    0.9037 H   0  0  0  0  0  0  0  0  0  0  0  0
   -4.1414    0.3691   -1.0355 H   0  0  0  0  0  0  0  0  0  0  0  0
   -3.6878   -1.3451   -0.9600 H   0  0  0  0  0  0  0  0  0  0  0  0
   -4.8169   -0.6726    0.2288 H   0  0  0  0  0  0  0  0  0  0  0  0
    1.4979   -3.5263    0.5863 H   0  0  0  0  0  0  0  0  0  0  0  0
    0.5317   -2.8368   -0.8446 H   0  0  0  0  0  0  0  0  0  0  0  0
  1  2  1  0  0  0  0
  1 22  1  0  0  0  0
  2  3  1  0  0  0  0
  2  5  1  0  0  0  0
  2  6  1  0  0  0  0
  3  4  1  0  0  0  0
  3 11  1  0  0  0  0
  3 12  1  0  0  0  0
  4  7  1  0  0  0  0
  4 13  1  0  0  0  0
  4 14  1  0  0  0  0
  5  8  1  0  0  0  0
  5 15  1  0  0  0  0
  5 16  1  0  0  0  0
  6 17  1  0  0  0  0
  6 18  1  0  0  0  0
  6 19  1  0  0  0  0
  7  9  1  0  0  0  0
  7 20  1  0  0  0  0
  7 21  1  0  0  0  0
  8 10  2  0  0  0  0
  8 23  1  0  0  0  0
  9 24  1  0  0  0  0
  9 25  1  0  0  0  0
  9 26  1  0  0  0  0
 10 27  1  0  0  0  0
 10 28  1  0  0  0  0
M  END
> <PUBCHEM_COMPOUND_CID>
11062495

> <PUBCHEM_CONFORMER_RMSD>
0.6

> <PUBCHEM_CONFORMER_DIVERSEORDER>
4
42
49
55
13
72
50
9
21
44
53
65
12
57
59
17
56
61
2
19
67
46
51
60
69
62
63
28
40
6
71
31
1
68
20
48
39
64
26
47
70
54
3
52
66
58
14
25
45
8
11
41
7
32
22
37
43
24
10
29
35
16
15
34
33
23
27
38
18
5
30
36

> <PUBCHEM_MMFF94_PARTIAL_CHARGES>
9
1 -0.68
10 -0.3
2 0.28
22 0.4
23 0.15
27 0.15
28 0.15
5 0.14
8 -0.29

> <PUBCHEM_EFFECTIVE_ROTOR_COUNT>
5

> <PUBCHEM_PHARMACOPHORE_FEATURES>
4
1 1 acceptor
1 1 donor
1 10 hydrophobe
1 9 hydrophobe

> <PUBCHEM_HEAVY_ATOM_COUNT>
10

> <PUBCHEM_ATOM_DEF_STEREO_COUNT>
0

> <PUBCHEM_ATOM_UDEF_STEREO_COUNT>
1

> <PUBCHEM_BOND_DEF_STEREO_COUNT>
0

> <PUBCHEM_BOND_UDEF_STEREO_COUNT>
0

> <PUBCHEM_ISOTOPIC_ATOM_COUNT>
0

> <PUBCHEM_COMPONENT_COUNT>
1

> <PUBCHEM_CACTVS_TAUTO_COUNT>
1

> <PUBCHEM_CONFORMER_ID>
00A8CCDF00000004

> <PUBCHEM_MMFF94_ENERGY>
11.6116

> <PUBCHEM_FEATURE_SELFOVERLAP>
20.297

> <PUBCHEM_SHAPE_FINGERPRINT>
10219947 1 18334852874500169880
12932764 1 18060430135690179609
14251717 144 18411976966610969559
15757776 16 18410293575443096854
20201158 50 18334298643304024747
20645477 70 18273213097780802055
20653091 64 18130515149474036088
20708731 107 18262249896771664901
20711985 344 17536872178560432217
20871998 22 18126007065932801198
21040471 1 17907866445894499728
23530152 11 18122351438799330518
23552333 60 17918278657600100577
23552423 10 18411429418541789625
23552449 11 18130505249542659641
257057 1 17904191538558405011
3248919 1 18260550078082079993
3250762 1 17977367362102982960
528862 383 18412820304787625679
581208 293 18339356482870124399

> <PUBCHEM_SHAPE_MULTIPOLES>
199.93
4.45
2.32
0.93
5.92
0.76
0.02
1.49
-0.18
-2
-0.29
-0.13
-0.28
0.03

> <PUBCHEM_SHAPE_SELFOVERLAP>
363.079

> <PUBCHEM_SHAPE_VOLUME>
129

> <PUBCHEM_COORDINATE_TYPE>
2
5
10

$$$$
