61144
  -OEChem-11012400583D

  9  8  0     0  0  0  0  0  0999 V2000
    1.0770    0.9091    1.4575 Cl  0  0  0  0  0  0  0  0  0  0  0  0
    1.3255   -1.5971    0.0156 Cl  0  0  0  0  0  0  0  0  0  0  0  0
    1.0830    0.8831   -1.4710 Cl  0  0  0  0  0  0  0  0  0  0  0  0
   -1.5239   -1.1927    0.0000 O   0  0  0  0  0  0  0  0  0  0  0  0
   -1.6088    1.0905   -0.0011 N   0  0  0  0  0  0  0  0  0  0  0  0
    0.5805    0.0208    0.0000 C   0  0  0  0  0  0  0  0  0  0  0  0
   -0.9333   -0.1136   -0.0010 C   0  0  0  0  0  0  0  0  0  0  0  0
   -2.6229    1.1218   -0.0013 H   0  0  0  0  0  0  0  0  0  0  0  0
   -1.1217    1.9808   -0.0015 H   0  0  0  0  0  0  0  0  0  0  0  0
  1  6  1  0  0  0  0
  2  6  1  0  0  0  0
  3  6  1  0  0  0  0
  4  7  2  0  0  0  0
  5  7  1  0  0  0  0
  5  8  1  0  0  0  0
  5  9  1  0  0  0  0
  6  7  1  0  0  0  0
M  END
> <PUBCHEM_COMPOUND_CID>
61144

> <PUBCHEM_CONFORMER_RMSD>
0.4

> <PUBCHEM_CONFORMER_DIVERSEORDER>
1
2

> <PUBCHEM_MMFF94_PARTIAL_CHARGES>
9
1 -0.29
2 -0.29
3 -0.29
4 -0.57
5 -0.8
6 0.93
7 0.57
8 0.37
9 0.37

> <PUBCHEM_EFFECTIVE_ROTOR_COUNT>
1

> <PUBCHEM_PHARMACOPHORE_FEATURES>
2
1 4 acceptor
1 5 donor

> <PUBCHEM_HEAVY_ATOM_COUNT>
7

> <PUBCHEM_ATOM_DEF_STEREO_COUNT>
0

> <PUBCHEM_ATOM_UDEF_STEREO_COUNT>
0

> <PUBCHEM_BOND_DEF_STEREO_COUNT>
0

> <PUBCHEM_BOND_UDEF_STEREO_COUNT>
0

> <PUBCHEM_ISOTOPIC_ATOM_COUNT>
0

> <PUBCHEM_COMPONENT_COUNT>
1

> <PUBCHEM_CACTVS_TAUTO_COUNT>
2

> <PUBCHEM_CONFORMER_ID>
0000EED800000001

> <PUBCHEM_MMFF94_ENERGY>
11.18

> <PUBCHEM_FEATURE_SELFOVERLAP>
10.148

> <PUBCHEM_SHAPE_FINGERPRINT>
137420 1 14892948954784385006
20096714 4 17823156599556575797
21040471 1 18410575042019536453
24536 1 18113332041947978671
29004967 10 17316223340639706538
5943 1 15620813910058103584

> <PUBCHEM_SHAPE_MULTIPOLES>
138.82
1.96
1.57
1.3
0.64
0.45
-0.01
0.17
0
-0.29
0.02
-0.66
-0.65
0

> <PUBCHEM_SHAPE_SELFOVERLAP>
236.002

> <PUBCHEM_SHAPE_VOLUME>
94.3

> <PUBCHEM_COORDINATE_TYPE>
2
5
10

$$$$
