139414
  -OEChem-11012400473D

 44 45  0     0  0  0  0  0  0999 V2000
   -0.0146    2.3566    0.0389 O   0  0  0  0  0  0  0  0  0  0  0  0
   -1.3462   -0.8846   -0.5352 N   0  0  0  0  0  0  0  0  0  0  0  0
    1.4432   -0.7214    0.8452 N   0  0  0  0  0  0  0  0  0  0  0  0
   -1.2523    0.3723    0.0032 C   0  0  0  0  0  0  0  0  0  0  0  0
    1.3215    0.4454    0.2198 C   0  0  0  0  0  0  0  0  0  0  0  0
   -3.3908   -0.3221    0.1246 C   0  0  0  0  0  0  0  0  0  0  0  0
    3.4388   -0.0515    0.1382 C   0  0  0  0  0  0  0  0  0  0  0  0
   -2.5098    0.7469    0.4222 C   0  0  0  0  0  0  0  0  0  0  0  0
    2.4773    0.9189   -0.2374 C   0  0  0  0  0  0  0  0  0  0  0  0
   -2.6447   -1.3175   -0.4669 C   0  0  0  0  0  0  0  0  0  0  0  0
    2.7719   -1.0545    0.8062 C   0  0  0  0  0  0  0  0  0  0  0  0
   -0.0270    1.1049    0.0819 C   0  0  0  0  0  0  0  0  0  0  0  0
   -4.8423   -0.3651    0.3963 C   0  0  0  0  0  0  0  0  0  0  0  0
    4.8902   -0.0004   -0.1338 C   0  0  0  0  0  0  0  0  0  0  0  0
   -2.8748    2.0276    1.0634 C   0  0  0  0  0  0  0  0  0  0  0  0
    2.7420    2.1718   -0.9757 C   0  0  0  0  0  0  0  0  0  0  0  0
   -3.0322   -2.6460   -0.9789 C   0  0  0  0  0  0  0  0  0  0  0  0
    3.2615   -2.3052    1.4170 C   0  0  0  0  0  0  0  0  0  0  0  0
   -5.6809    0.1805   -0.7637 C   0  0  0  0  0  0  0  0  0  0  0  0
    5.2691   -0.6564   -1.4653 C   0  0  0  0  0  0  0  0  0  0  0  0
   -0.5802   -1.4102   -0.9340 H   0  0  0  0  0  0  0  0  0  0  0  0
    0.7139   -1.2681    1.2846 H   0  0  0  0  0  0  0  0  0  0  0  0
   -5.1525   -1.3998    0.5904 H   0  0  0  0  0  0  0  0  0  0  0  0
   -5.0875    0.1871    1.3099 H   0  0  0  0  0  0  0  0  0  0  0  0
    5.2452    1.0369   -0.1307 H   0  0  0  0  0  0  0  0  0  0  0  0
    5.4396   -0.5028    0.6720 H   0  0  0  0  0  0  0  0  0  0  0  0
   -2.8405    2.8414    0.3313 H   0  0  0  0  0  0  0  0  0  0  0  0
   -3.8785    2.0158    1.4954 H   0  0  0  0  0  0  0  0  0  0  0  0
   -2.1794    2.2673    1.8750 H   0  0  0  0  0  0  0  0  0  0  0  0
    1.9724    2.3541   -1.7332 H   0  0  0  0  0  0  0  0  0  0  0  0
    2.7604    3.0237   -0.2884 H   0  0  0  0  0  0  0  0  0  0  0  0
    3.7003    2.1450   -1.5030 H   0  0  0  0  0  0  0  0  0  0  0  0
   -2.2114   -3.1321   -1.5165 H   0  0  0  0  0  0  0  0  0  0  0  0
   -3.3282   -3.3013   -0.1534 H   0  0  0  0  0  0  0  0  0  0  0  0
   -3.8776   -2.5621   -1.6694 H   0  0  0  0  0  0  0  0  0  0  0  0
    3.8699   -2.8709    0.7042 H   0  0  0  0  0  0  0  0  0  0  0  0
    3.8782   -2.0852    2.2943 H   0  0  0  0  0  0  0  0  0  0  0  0
    2.4386   -2.9524    1.7377 H   0  0  0  0  0  0  0  0  0  0  0  0
   -5.4368    1.2289   -0.9656 H   0  0  0  0  0  0  0  0  0  0  0  0
   -6.7463    0.1178   -0.5215 H   0  0  0  0  0  0  0  0  0  0  0  0
   -5.5045   -0.3901   -1.6817 H   0  0  0  0  0  0  0  0  0  0  0  0
    4.9788   -1.7122   -1.4816 H   0  0  0  0  0  0  0  0  0  0  0  0
    6.3508   -0.5969   -1.6209 H   0  0  0  0  0  0  0  0  0  0  0  0
    4.7745   -0.1579   -2.3056 H   0  0  0  0  0  0  0  0  0  0  0  0
  1 12  2  0  0  0  0
  2  4  1  0  0  0  0
  2 10  1  0  0  0  0
  2 21  1  0  0  0  0
  3  5  1  0  0  0  0
  3 11  1  0  0  0  0
  3 22  1  0  0  0  0
  4  8  2  0  0  0  0
  4 12  1  0  0  0  0
  5  9  2  0  0  0  0
  5 12  1  0  0  0  0
  6  8  1  0  0  0  0
  6 10  2  0  0  0  0
  6 13  1  0  0  0  0
  7  9  1  0  0  0  0
  7 11  2  0  0  0  0
  7 14  1  0  0  0  0
  8 15  1  0  0  0  0
  9 16  1  0  0  0  0
 10 17  1  0  0  0  0
 11 18  1  0  0  0  0
 13 19  1  0  0  0  0
 13 23  1  0  0  0  0
 13 24  1  0  0  0  0
 14 20  1  0  0  0  0
 14 25  1  0  0  0  0
 14 26  1  0  0  0  0
 15 27  1  0  0  0  0
 15 28  1  0  0  0  0
 15 29  1  0  0  0  0
 16 30  1  0  0  0  0
 16 31  1  0  0  0  0
 16 32  1  0  0  0  0
 17 33  1  0  0  0  0
 17 34  1  0  0  0  0
 17 35  1  0  0  0  0
 18 36  1  0  0  0  0
 18 37  1  0  0  0  0
 18 38  1  0  0  0  0
 19 39  1  0  0  0  0
 19 40  1  0  0  0  0
 19 41  1  0  0  0  0
 20 42  1  0  0  0  0
 20 43  1  0  0  0  0
 20 44  1  0  0  0  0
M  END
> <PUBCHEM_COMPOUND_CID>
139414

> <PUBCHEM_CONFORMER_RMSD>
0.6

> <PUBCHEM_CONFORMER_DIVERSEORDER>
1
27
2
17
18
26
31
6
25
10
24
16
33
36
15
14
28
7
30
11
22
38
21
29
8
23
37
39
3
13
35
20
32
34
19
9
12
4
5

> <PUBCHEM_MMFF94_PARTIAL_CHARGES>
20
1 -0.57
10 -0.33
11 -0.33
12 0.74
13 0.18
14 0.18
15 0.18
16 0.18
17 0.18
18 0.18
2 0.03
21 0.27
22 0.27
3 0.03
4 -0.24
5 -0.24
6 -0.18
7 -0.18
8 -0.18
9 -0.18

> <PUBCHEM_EFFECTIVE_ROTOR_COUNT>
4

> <PUBCHEM_PHARMACOPHORE_FEATURES>
9
1 1 acceptor
1 19 hydrophobe
1 2 cation
1 2 donor
1 20 hydrophobe
1 3 cation
1 3 donor
5 2 4 6 8 10 rings
5 3 5 7 9 11 rings

> <PUBCHEM_HEAVY_ATOM_COUNT>
20

> <PUBCHEM_ATOM_DEF_STEREO_COUNT>
0

> <PUBCHEM_ATOM_UDEF_STEREO_COUNT>
0

> <PUBCHEM_BOND_DEF_STEREO_COUNT>
0

> <PUBCHEM_BOND_UDEF_STEREO_COUNT>
0

> <PUBCHEM_ISOTOPIC_ATOM_COUNT>
0

> <PUBCHEM_COMPONENT_COUNT>
1

> <PUBCHEM_CACTVS_TAUTO_COUNT>
18

> <PUBCHEM_CONFORMER_ID>
0002209600000001

> <PUBCHEM_MMFF94_ENERGY>
28.0858

> <PUBCHEM_FEATURE_SELFOVERLAP>
45.67

> <PUBCHEM_SHAPE_FINGERPRINT>
10616163 171 18341895229074952279
11578080 2 18193247828257824061
12107183 9 17760646967031299985
12236239 1 18409450288568255560
12553582 1 18410565193427496170
12788726 201 18339645529447053480
13140716 1 18057888146521812643
13583140 156 17894919529385039753
14576447 43 18334574655298372298
15042514 8 18129384955396898175
15196674 1 18268429203659509823
15242433 33 18335136492475618139
15375462 189 18409166640369618513
15537594 2 18335424568759268027
16752209 62 18272643516302754513
17349148 13 18060411405242733053
17804303 29 18060137661011917737
1813 80 18041009405689192332
18186145 218 17386278912860598508
18222031 100 18201993326643432061
19422 9 18341055215239204956
200 152 18333730221372117353
20612939 158 18041570225555606172
20645477 70 18410012164816704919
21267235 1 18411429413951423259
21634736 98 18336829787974829268
2255824 54 18187367683696487764
23402655 69 18187080641808970404
23463225 33 18410290294040252555
23557571 272 17632302241757581632
23559900 14 17988356078409740032
23598291 2 18337680809843190900
25147074 1 17969786264120943960
2871803 45 18333449833412373188
29717793 49 18201442466928224724
3004659 81 18410008857786774023
34797466 226 17203336645774229716
34934 24 18269268131184762925
474 4 17968946438700515252
5104073 3 18270681003689499651
542803 24 15647051573063905117
559249 180 18339080367564147771
58051976 100 18334856143038561791
9981440 41 17329990708195066176

> <PUBCHEM_SHAPE_MULTIPOLES>
395.76
10.99
2.3
1.12
1.27
0.19
-0.02
2.39
-2.22
0.14
0.02
-0.6
0.29
-1.58

> <PUBCHEM_SHAPE_SELFOVERLAP>
838.75

> <PUBCHEM_SHAPE_VOLUME>
227.5

> <PUBCHEM_COORDINATE_TYPE>
2
5
10

$$$$
