16450
  -OEChem-11012401213D

 24 25  0     0  0  0  0  0  0999 V2000
    4.3932   -0.6547    0.0005 O   0  5  0  0  0  0  0  0  0  0  0  0
    2.8755   -2.2408   -0.0008 O   0  0  0  0  0  0  0  0  0  0  0  0
    3.1951   -1.0275   -0.0003 N   0  3  0  0  0  0  0  0  0  0  0  0
   -0.1772    0.5294   -0.0011 C   0  0  0  0  0  0  0  0  0  0  0  0
   -1.5664    0.1244   -0.0006 C   0  0  0  0  0  0  0  0  0  0  0  0
    0.8298   -0.4356   -0.0012 C   0  0  0  0  0  0  0  0  0  0  0  0
    0.1544    1.8842    0.0001 C   0  0  0  0  0  0  0  0  0  0  0  0
    2.1691   -0.0456   -0.0001 C   0  0  0  0  0  0  0  0  0  0  0  0
   -2.2352   -0.0714    1.2078 C   0  0  0  0  0  0  0  0  0  0  0  0
   -2.2370   -0.0695   -1.2083 C   0  0  0  0  0  0  0  0  0  0  0  0
    1.4935    2.2742    0.0012 C   0  0  0  0  0  0  0  0  0  0  0  0
    2.5009    1.3093    0.0008 C   0  0  0  0  0  0  0  0  0  0  0  0
   -3.5744   -0.4614    1.2086 C   0  0  0  0  0  0  0  0  0  0  0  0
   -3.5763   -0.4595   -1.2074 C   0  0  0  0  0  0  0  0  0  0  0  0
   -4.2449   -0.6555    0.0010 C   0  0  0  0  0  0  0  0  0  0  0  0
    0.5508   -1.4876   -0.0019 H   0  0  0  0  0  0  0  0  0  0  0  0
   -0.6185    2.6493    0.0005 H   0  0  0  0  0  0  0  0  0  0  0  0
   -1.7275    0.0756    2.1581 H   0  0  0  0  0  0  0  0  0  0  0  0
   -1.7307    0.0789   -2.1592 H   0  0  0  0  0  0  0  0  0  0  0  0
    1.7516    3.3292    0.0023 H   0  0  0  0  0  0  0  0  0  0  0  0
    3.5331    1.6502    0.0016 H   0  0  0  0  0  0  0  0  0  0  0  0
   -4.0952   -0.6140    2.1493 H   0  0  0  0  0  0  0  0  0  0  0  0
   -4.0986   -0.6106   -2.1476 H   0  0  0  0  0  0  0  0  0  0  0  0
   -5.2876   -0.9592    0.0015 H   0  0  0  0  0  0  0  0  0  0  0  0
  1  3  1  0  0  0  0
  2  3  2  0  0  0  0
  3  8  1  0  0  0  0
  4  5  1  0  0  0  0
  4  6  2  0  0  0  0
  4  7  1  0  0  0  0
  5  9  2  0  0  0  0
  5 10  1  0  0  0  0
  6  8  1  0  0  0  0
  6 16  1  0  0  0  0
  7 11  2  0  0  0  0
  7 17  1  0  0  0  0
  8 12  2  0  0  0  0
  9 13  1  0  0  0  0
  9 18  1  0  0  0  0
 10 14  2  0  0  0  0
 10 19  1  0  0  0  0
 11 12  1  0  0  0  0
 11 20  1  0  0  0  0
 12 21  1  0  0  0  0
 13 15  2  0  0  0  0
 13 22  1  0  0  0  0
 14 15  1  0  0  0  0
 14 23  1  0  0  0  0
 15 24  1  0  0  0  0
M  CHG  2   1  -1   3   1
M  END
> <PUBCHEM_COMPOUND_CID>
16450

> <PUBCHEM_CONFORMER_RMSD>
0.6

> <PUBCHEM_CONFORMER_DIVERSEORDER>
1
2

> <PUBCHEM_MMFF94_PARTIAL_CHARGES>
22
1 -0.52
10 -0.15
11 -0.15
12 -0.15
13 -0.15
14 -0.15
15 -0.15
16 0.15
17 0.15
18 0.15
19 0.15
2 -0.52
20 0.15
21 0.15
22 0.15
23 0.15
24 0.15
3 0.91
6 -0.15
7 -0.15
8 0.13
9 -0.15

> <PUBCHEM_EFFECTIVE_ROTOR_COUNT>
2

> <PUBCHEM_PHARMACOPHORE_FEATURES>
5
1 1 acceptor
1 1 anion
1 2 acceptor
6 4 6 7 8 11 12 rings
6 5 9 10 13 14 15 rings

> <PUBCHEM_HEAVY_ATOM_COUNT>
15

> <PUBCHEM_ATOM_DEF_STEREO_COUNT>
0

> <PUBCHEM_ATOM_UDEF_STEREO_COUNT>
0

> <PUBCHEM_BOND_DEF_STEREO_COUNT>
0

> <PUBCHEM_BOND_UDEF_STEREO_COUNT>
0

> <PUBCHEM_ISOTOPIC_ATOM_COUNT>
0

> <PUBCHEM_COMPONENT_COUNT>
1

> <PUBCHEM_CACTVS_TAUTO_COUNT>
1

> <PUBCHEM_CONFORMER_ID>
0000404200000001

> <PUBCHEM_MMFF94_ENERGY>
50.45

> <PUBCHEM_FEATURE_SELFOVERLAP>
25.453

> <PUBCHEM_SHAPE_FINGERPRINT>
10465860 71 15791735208725245863
10751810 167 14779547894107544329
11137873 295 18335137562270316207
11471102 20 18337109063638400388
11543360 7 15719687514639792878
11578080 2 17487586742077244849
12032990 46 18334579035705883346
12186901 62 15864065460573017015
12236239 1 17775569766766599785
12251169 10 17704072888871889822
12553582 1 18340770351702356118
12932764 1 17846501482246401913
13296908 3 17967249832012652945
13296909 8 17060338470679246713
13581323 91 16415483765843130877
13705890 14 17530967994714446364
14144814 61 17846503672747976189
14251717 144 18411697711915858670
14252887 29 18130793326417211534
15219456 202 17968656133138765821
15375462 189 18131071541038672672
16945 1 18338516468571088800
1813 80 18129398037455409740
18186145 218 17603857910612547525
19422 9 18059295469580902135
200 152 18272927237452213933
20201158 50 18259704492920031866
20279233 1 17822005462585308617
20361792 2 18341327825202930669
204376 136 17906730654799872016
20645477 70 18336538395723661455
20671657 53 18334858286032037388
20871998 22 18200040525631689046
21296965 67 18411136892398058968
21501925 9 18412539912327147144
22094290 60 16226047782159366415
22112679 90 17418098749520228697
221490 88 18191029108281622627
2255824 54 18270403918190593716
232386 152 16702016521716323853
23559900 14 17095233718633682232
2748010 2 18266445538986813092
474 4 17556005132599220112
6049 1 17749389303982675373
7364860 26 18269834366962304080
77492 1 17703795872482812453
81228 2 18047185246544164936
83771 10 18413107238783586632
90316 7 16988572273140131217

> <PUBCHEM_SHAPE_MULTIPOLES>
291.97
7.44
1.74
1.01
0.89
0.34
0
-3.1
0
-2.1
0
1.18
-0.06
0

> <PUBCHEM_SHAPE_SELFOVERLAP>
635.983

> <PUBCHEM_SHAPE_VOLUME>
160

> <PUBCHEM_COORDINATE_TYPE>
2
5
10

$$$$
