137723
  -OEChem-11012401273D

 28 30  0     1  0  0  0  0  0999 V2000
   -0.2709   -0.7817    0.6248 C   0  0  2  0  0  0  0  0  0  0  0  0
   -0.2765    0.7896    0.5867 C   0  0  1  0  0  0  0  0  0  0  0  0
    1.0942   -1.2963    0.0680 C   0  0  2  0  0  0  0  0  0  0  0  0
    1.0176    1.2952   -0.1199 C   0  0  1  0  0  0  0  0  0  0  0  0
    2.2288   -0.6748    0.9142 C   0  0  0  0  0  0  0  0  0  0  0  0
    2.2165    0.8644    0.7631 C   0  0  0  0  0  0  0  0  0  0  0  0
   -1.4558   -1.4361   -0.1142 C   0  0  0  0  0  0  0  0  0  0  0  0
    1.2535   -0.7614   -1.3427 C   0  0  0  0  0  0  0  0  0  0  0  0
    1.1825    0.5752   -1.4419 C   0  0  0  0  0  0  0  0  0  0  0  0
   -1.5337    1.4160    0.0459 C   0  0  0  0  0  0  0  0  0  0  0  0
   -2.7812   -0.7280    0.1416 C   0  0  0  0  0  0  0  0  0  0  0  0
   -2.6751    0.7380   -0.1257 C   0  0  0  0  0  0  0  0  0  0  0  0
   -0.3473   -1.0828    1.6797 H   0  0  0  0  0  0  0  0  0  0  0  0
   -0.2191    1.1357    1.6301 H   0  0  0  0  0  0  0  0  0  0  0  0
    1.1450   -2.3895    0.0857 H   0  0  0  0  0  0  0  0  0  0  0  0
    1.0158    2.3813   -0.2590 H   0  0  0  0  0  0  0  0  0  0  0  0
    3.2030   -1.0662    0.5954 H   0  0  0  0  0  0  0  0  0  0  0  0
    2.1094   -0.9471    1.9697 H   0  0  0  0  0  0  0  0  0  0  0  0
    2.1573    1.3358    1.7513 H   0  0  0  0  0  0  0  0  0  0  0  0
    3.1603    1.1979    0.3129 H   0  0  0  0  0  0  0  0  0  0  0  0
   -1.5374   -2.4876    0.1874 H   0  0  0  0  0  0  0  0  0  0  0  0
   -1.2807   -1.4465   -1.1973 H   0  0  0  0  0  0  0  0  0  0  0  0
    1.3847   -1.4137   -2.1956 H   0  0  0  0  0  0  0  0  0  0  0  0
    1.2629    1.1049   -2.3816 H   0  0  0  0  0  0  0  0  0  0  0  0
   -1.5279    2.4861   -0.1425 H   0  0  0  0  0  0  0  0  0  0  0  0
   -3.1157   -0.8873    1.1731 H   0  0  0  0  0  0  0  0  0  0  0  0
   -3.5442   -1.1601   -0.5160 H   0  0  0  0  0  0  0  0  0  0  0  0
   -3.5652    1.2640   -0.4572 H   0  0  0  0  0  0  0  0  0  0  0  0
  1  2  1  0  0  0  0
  1  3  1  0  0  0  0
  1  7  1  0  0  0  0
  1 13  1  0  0  0  0
  2  4  1  0  0  0  0
  2 10  1  0  0  0  0
  2 14  1  0  0  0  0
  3  5  1  0  0  0  0
  3  8  1  0  0  0  0
  3 15  1  0  0  0  0
  4  6  1  0  0  0  0
  4  9  1  0  0  0  0
  4 16  1  0  0  0  0
  5  6  1  0  0  0  0
  5 17  1  0  0  0  0
  5 18  1  0  0  0  0
  6 19  1  0  0  0  0
  6 20  1  0  0  0  0
  7 11  1  0  0  0  0
  7 21  1  0  0  0  0
  7 22  1  0  0  0  0
  8  9  2  0  0  0  0
  8 23  1  0  0  0  0
  9 24  1  0  0  0  0
 10 12  2  0  0  0  0
 10 25  1  0  0  0  0
 11 12  1  0  0  0  0
 11 26  1  0  0  0  0
 11 27  1  0  0  0  0
 12 28  1  0  0  0  0
M  END
> <PUBCHEM_COMPOUND_CID>
137723

> <PUBCHEM_CONFORMER_RMSD>
0.4

> <PUBCHEM_CONFORMER_DIVERSEORDER>
1
2

> <PUBCHEM_MMFF94_PARTIAL_CHARGES>
12
10 -0.29
11 0.14
12 -0.29
2 0.14
23 0.15
24 0.15
25 0.15
28 0.15
3 0.14
4 0.14
8 -0.29
9 -0.29

> <PUBCHEM_EFFECTIVE_ROTOR_COUNT>
0.8

> <PUBCHEM_PHARMACOPHORE_FEATURES>
2
6 1 2 7 10 11 12 rings
8 1 2 3 4 5 6 8 9 rings

> <PUBCHEM_HEAVY_ATOM_COUNT>
12

> <PUBCHEM_ATOM_DEF_STEREO_COUNT>
0

> <PUBCHEM_ATOM_UDEF_STEREO_COUNT>
4

> <PUBCHEM_BOND_DEF_STEREO_COUNT>
0

> <PUBCHEM_BOND_UDEF_STEREO_COUNT>
0

> <PUBCHEM_ISOTOPIC_ATOM_COUNT>
0

> <PUBCHEM_COMPONENT_COUNT>
1

> <PUBCHEM_CACTVS_TAUTO_COUNT>
1

> <PUBCHEM_CONFORMER_ID>
000219FB00000001

> <PUBCHEM_MMFF94_ENERGY>
32.0787

> <PUBCHEM_FEATURE_SELFOVERLAP>
10.163

> <PUBCHEM_SHAPE_FINGERPRINT>
12326174 3 15841560634752559094
12423570 1 15391504545273003286
13024252 1 12831974070294298600
13839132 238 18201438025958336072
144361 1 18193867939929851255
15775835 57 18261398823348469337
16945 1 18339630209409237618
20653091 64 17385726932316974394
21040471 1 18337116678583572777
230 275 18335704970072704117
23552423 10 18187086165305802603
23559900 14 17768539288051822006
241688 4 17978240352432741784
2748010 2 18339644447410459605
29004967 10 16845575305179045905
369184 2 18411410718032539529
5084963 1 17530683191064260635

> <PUBCHEM_SHAPE_MULTIPOLES>
246.95
3.5
1.6
1.13
1.62
0
-0.31
-0.02
0.36
0.17
0.02
-0.63
0.02
0.03

> <PUBCHEM_SHAPE_SELFOVERLAP>
532.537

> <PUBCHEM_SHAPE_VOLUME>
130

> <PUBCHEM_COORDINATE_TYPE>
2
5
10

$$$$
