600029
  -OEChem-11012400543D

 34 35  0     0  0  0  0  0  0999 V2000
   -4.7759   -0.5659   -0.0066 S   0  0  0  0  0  0  0  0  0  0  0  0
   -0.2786   -0.4806    0.0054 Si  0  0  0  0  0  0  0  0  0  0  0  0
    0.7510   -1.8063    0.0383 O   0  0  0  0  0  0  0  0  0  0  0  0
    0.0586    0.4149   -1.3743 O   0  0  0  0  0  0  0  0  0  0  0  0
    0.0485    0.4743    1.3470 O   0  0  0  0  0  0  0  0  0  0  0  0
    2.8722    0.4956   -0.0042 N   0  0  0  0  0  0  0  0  0  0  0  0
    3.0782   -0.9429    0.1368 C   0  0  0  0  0  0  0  0  0  0  0  0
    2.4732    0.9958   -1.3166 C   0  0  0  0  0  0  0  0  0  0  0  0
    2.4082    1.2303    1.1689 C   0  0  0  0  0  0  0  0  0  0  0  0
   -2.0621   -1.0330    0.0108 C   0  0  0  0  0  0  0  0  0  0  0  0
    1.9543   -1.7555    0.8006 C   0  0  0  0  0  0  0  0  0  0  0  0
    1.3176    0.2718   -2.0268 C   0  0  0  0  0  0  0  0  0  0  0  0
    0.9165    1.5985    1.2273 C   0  0  0  0  0  0  0  0  0  0  0  0
   -3.0861    0.1017   -0.0179 C   0  0  0  0  0  0  0  0  0  0  0  0
   -5.6757    1.0013    0.0111 C   0  0  0  0  0  0  0  0  0  0  0  0
    3.9816   -1.0820    0.7445 H   0  0  0  0  0  0  0  0  0  0  0  0
    3.3183   -1.3854   -0.8380 H   0  0  0  0  0  0  0  0  0  0  0  0
    3.3519    0.9244   -1.9705 H   0  0  0  0  0  0  0  0  0  0  0  0
    2.2473    2.0678   -1.2571 H   0  0  0  0  0  0  0  0  0  0  0  0
    2.9759    2.1689    1.2080 H   0  0  0  0  0  0  0  0  0  0  0  0
    2.6843    0.6909    2.0834 H   0  0  0  0  0  0  0  0  0  0  0  0
   -2.2127   -1.6878   -0.8565 H   0  0  0  0  0  0  0  0  0  0  0  0
   -2.2191   -1.6491    0.9049 H   0  0  0  0  0  0  0  0  0  0  0  0
    2.3025   -2.7926    0.8825 H   0  0  0  0  0  0  0  0  0  0  0  0
    1.7596   -1.4362    1.8322 H   0  0  0  0  0  0  0  0  0  0  0  0
    1.1984    0.7331   -3.0150 H   0  0  0  0  0  0  0  0  0  0  0  0
    1.5447   -0.7826   -2.2284 H   0  0  0  0  0  0  0  0  0  0  0  0
    0.7605    2.1968    2.1335 H   0  0  0  0  0  0  0  0  0  0  0  0
    0.6129    2.2499    0.3981 H   0  0  0  0  0  0  0  0  0  0  0  0
   -2.9580    0.7127   -0.9186 H   0  0  0  0  0  0  0  0  0  0  0  0
   -2.9609    0.7516    0.8556 H   0  0  0  0  0  0  0  0  0  0  0  0
   -5.4265    1.5743    0.9080 H   0  0  0  0  0  0  0  0  0  0  0  0
   -6.7502    0.7997    0.0158 H   0  0  0  0  0  0  0  0  0  0  0  0
   -5.4369    1.5883   -0.8796 H   0  0  0  0  0  0  0  0  0  0  0  0
  1 14  1  0  0  0  0
  1 15  1  0  0  0  0
  2  3  1  0  0  0  0
  2  4  1  0  0  0  0
  2  5  1  0  0  0  0
  2 10  1  0  0  0  0
  3 11  1  0  0  0  0
  4 12  1  0  0  0  0
  5 13  1  0  0  0  0
  6  7  1  0  0  0  0
  6  8  1  0  0  0  0
  6  9  1  0  0  0  0
  7 11  1  0  0  0  0
  7 16  1  0  0  0  0
  7 17  1  0  0  0  0
  8 12  1  0  0  0  0
  8 18  1  0  0  0  0
  8 19  1  0  0  0  0
  9 13  1  0  0  0  0
  9 20  1  0  0  0  0
  9 21  1  0  0  0  0
 10 14  1  0  0  0  0
 10 22  1  0  0  0  0
 10 23  1  0  0  0  0
 11 24  1  0  0  0  0
 11 25  1  0  0  0  0
 12 26  1  0  0  0  0
 12 27  1  0  0  0  0
 13 28  1  0  0  0  0
 13 29  1  0  0  0  0
 14 30  1  0  0  0  0
 14 31  1  0  0  0  0
 15 32  1  0  0  0  0
 15 33  1  0  0  0  0
 15 34  1  0  0  0  0
M  END
> <PUBCHEM_COMPOUND_CID>
600029

> <PUBCHEM_CONFORMER_RMSD>
0.6

> <PUBCHEM_CONFORMER_DIVERSEORDER>
1
5
6
4
2
3

> <PUBCHEM_MMFF94_PARTIAL_CHARGES>
15
1 -0.46
10 -0.08
11 0.28
12 0.28
13 0.28
14 0.23
15 0.23
2 0.97
3 -0.58
4 -0.58
5 -0.58
6 -0.81
7 0.27
8 0.27
9 0.27

> <PUBCHEM_EFFECTIVE_ROTOR_COUNT>
4.8

> <PUBCHEM_PHARMACOPHORE_FEATURES>
2
1 15 hydrophobe
1 6 cation

> <PUBCHEM_HEAVY_ATOM_COUNT>
15

> <PUBCHEM_ATOM_DEF_STEREO_COUNT>
0

> <PUBCHEM_ATOM_UDEF_STEREO_COUNT>
0

> <PUBCHEM_BOND_DEF_STEREO_COUNT>
0

> <PUBCHEM_BOND_UDEF_STEREO_COUNT>
0

> <PUBCHEM_ISOTOPIC_ATOM_COUNT>
0

> <PUBCHEM_COMPONENT_COUNT>
1

> <PUBCHEM_CACTVS_TAUTO_COUNT>
1

> <PUBCHEM_CONFORMER_ID>
000927DD00000001

> <PUBCHEM_MMFF94_ENERGY>
44.9734

> <PUBCHEM_FEATURE_SELFOVERLAP>
10.148

> <PUBCHEM_SHAPE_FINGERPRINT>
12423570 1 15619753156568673654
12654215 9 18273216425668085360
14115302 16 18408329894867684087
14344429 50 18202283619224833683
14817 1 9321173566850897718
15048467 5 18333732450950851860
15775835 57 18340769346294698542
16945 1 17822558487096246542
18186145 218 17917439756567727291
20233049 118 18342176648438030017
20645477 70 17274825796078099809
212847 35 18410856534561212257
22854114 111 18411134757962726315
22892500 29 18343294894586641521
231179 274 18130785681264479537
23402539 116 17632286879017948213
23402655 69 18060416920054587369
23419403 2 17830413295228151874
23557571 272 15697714801783349011
23559900 14 16845302630616946023
3060560 45 17418376895696532927
4047638 21 17989209278258367459
4990 188 17632581573983123711
528886 8 17749955573850721366
5939293 188 17560511910607462329

> <PUBCHEM_SHAPE_MULTIPOLES>
308.17
7.81
1.63
1.44
14.74
0.25
-0.45
-1.3
0.04
-0.72
0.42
-1.11
-0.46
-0.13

> <PUBCHEM_SHAPE_SELFOVERLAP>
584.046

> <PUBCHEM_SHAPE_VOLUME>
189.8

> <PUBCHEM_COORDINATE_TYPE>
2
5
10

$$$$
