141370
  -OEChem-11012401143D

 25 27  0     0  0  0  0  0  0999 V2000
    0.0001    0.7630   -0.2099 C   0  0  0  0  0  0  0  0  0  0  0  0
   -0.0001   -0.7630   -0.2098 C   0  0  0  0  0  0  0  0  0  0  0  0
   -0.0002    0.0000   -1.5189 C   0  0  0  0  0  0  0  0  0  0  0  0
    1.2777    1.5027    0.1485 C   0  0  0  0  0  0  0  0  0  0  0  0
   -1.2772    1.5027    0.1494 C   0  0  0  0  0  0  0  0  0  0  0  0
    1.2773   -1.5027    0.1491 C   0  0  0  0  0  0  0  0  0  0  0  0
   -1.2776   -1.5027    0.1486 C   0  0  0  0  0  0  0  0  0  0  0  0
    2.5104    0.6691    0.3355 C   0  0  0  0  0  0  0  0  0  0  0  0
   -2.5101    0.6695    0.3359 C   0  0  0  0  0  0  0  0  0  0  0  0
    2.5101   -0.6694    0.3361 C   0  0  0  0  0  0  0  0  0  0  0  0
   -2.5104   -0.6691    0.3356 C   0  0  0  0  0  0  0  0  0  0  0  0
   -0.9010    0.0001   -2.1233 H   0  0  0  0  0  0  0  0  0  0  0  0
    0.9006   -0.0002   -2.1234 H   0  0  0  0  0  0  0  0  0  0  0  0
    1.1270    2.0624    1.0797 H   0  0  0  0  0  0  0  0  0  0  0  0
    1.4750    2.2457   -0.6342 H   0  0  0  0  0  0  0  0  0  0  0  0
   -1.4744    2.2465   -0.6326 H   0  0  0  0  0  0  0  0  0  0  0  0
   -1.1261    2.0615    1.0811 H   0  0  0  0  0  0  0  0  0  0  0  0
    1.4745   -2.2462   -0.6331 H   0  0  0  0  0  0  0  0  0  0  0  0
    1.1262   -2.0620    1.0805 H   0  0  0  0  0  0  0  0  0  0  0  0
   -1.1269   -2.0622    1.0800 H   0  0  0  0  0  0  0  0  0  0  0  0
   -1.4750   -2.2458   -0.6339 H   0  0  0  0  0  0  0  0  0  0  0  0
    3.4488    1.1955    0.4863 H   0  0  0  0  0  0  0  0  0  0  0  0
   -3.4484    1.1961    0.4867 H   0  0  0  0  0  0  0  0  0  0  0  0
    3.4483   -1.1961    0.4872 H   0  0  0  0  0  0  0  0  0  0  0  0
   -3.4488   -1.1954    0.4862 H   0  0  0  0  0  0  0  0  0  0  0  0
  1  2  1  0  0  0  0
  1  3  1  0  0  0  0
  1  4  1  0  0  0  0
  1  5  1  0  0  0  0
  2  3  1  0  0  0  0
  2  6  1  0  0  0  0
  2  7  1  0  0  0  0
  3 12  1  0  0  0  0
  3 13  1  0  0  0  0
  4  8  1  0  0  0  0
  4 14  1  0  0  0  0
  4 15  1  0  0  0  0
  5  9  1  0  0  0  0
  5 16  1  0  0  0  0
  5 17  1  0  0  0  0
  6 10  1  0  0  0  0
  6 18  1  0  0  0  0
  6 19  1  0  0  0  0
  7 11  1  0  0  0  0
  7 20  1  0  0  0  0
  7 21  1  0  0  0  0
  8 10  2  0  0  0  0
  8 22  1  0  0  0  0
  9 11  2  0  0  0  0
  9 23  1  0  0  0  0
 10 24  1  0  0  0  0
 11 25  1  0  0  0  0
M  END
> <PUBCHEM_COMPOUND_CID>
141370

> <PUBCHEM_CONFORMER_RMSD>
0.4

> <PUBCHEM_CONFORMER_DIVERSEORDER>
1

> <PUBCHEM_MMFF94_PARTIAL_CHARGES>
17
1 -0.19
10 -0.29
11 -0.29
12 0.1
13 0.1
2 -0.19
22 0.15
23 0.15
24 0.15
25 0.15
3 -0.2
4 0.23
5 0.23
6 0.23
7 0.23
8 -0.29
9 -0.29

> <PUBCHEM_EFFECTIVE_ROTOR_COUNT>
1

> <PUBCHEM_PHARMACOPHORE_FEATURES>
2
7 1 2 3 4 6 8 10 rings
7 1 2 3 5 7 9 11 rings

> <PUBCHEM_HEAVY_ATOM_COUNT>
11

> <PUBCHEM_ATOM_DEF_STEREO_COUNT>
0

> <PUBCHEM_ATOM_UDEF_STEREO_COUNT>
0

> <PUBCHEM_BOND_DEF_STEREO_COUNT>
0

> <PUBCHEM_BOND_UDEF_STEREO_COUNT>
0

> <PUBCHEM_ISOTOPIC_ATOM_COUNT>
0

> <PUBCHEM_COMPONENT_COUNT>
1

> <PUBCHEM_CACTVS_TAUTO_COUNT>
1

> <PUBCHEM_CONFORMER_ID>
0002283A00000001

> <PUBCHEM_MMFF94_ENERGY>
16.3501

> <PUBCHEM_FEATURE_SELFOVERLAP>
10.242

> <PUBCHEM_SHAPE_FINGERPRINT>
10857977 72 18409160017530041536
12138202 97 17242713313189962661
12423570 1 9213848612595846669
13024252 1 13479406120136706540
15076042 46 18272369720226461184
15775835 57 17988645254225739696
16945 1 18410575084663078922
20653085 51 11023828421939000826
21040471 1 18411144605921815917
23552423 10 18188775070852759900
2748010 2 18122624942242529455
29004967 10 15864072078547738980
369184 2 18411693292336241995
5084963 1 18060700589100118945

> <PUBCHEM_SHAPE_MULTIPOLES>
226.37
3.5
1.71
0.88
0
0
0.31
0
-0.86
0
-0.15
0
0
0

> <PUBCHEM_SHAPE_SELFOVERLAP>
483.697

> <PUBCHEM_SHAPE_VOLUME>
123.1

> <PUBCHEM_COORDINATE_TYPE>
2
5
10

$$$$
