76644
  -OEChem-11012400403D

 37 38  0     0  0  0  0  0  0999 V2000
   -1.2366    0.3318   -0.2774 C   0  0  0  0  0  0  0  0  0  0  0  0
    1.2293    0.3282    0.2582 C   0  0  0  0  0  0  0  0  0  0  0  0
   -0.0014    1.1911   -0.0144 C   0  0  0  0  0  0  0  0  0  0  0  0
   -1.5254   -0.5831    0.9205 C   0  0  0  0  0  0  0  0  0  0  0  0
   -2.4517    1.2130   -0.5972 C   0  0  0  0  0  0  0  0  0  0  0  0
    1.5457   -0.5618   -0.9514 C   0  0  0  0  0  0  0  0  0  0  0  0
    2.4355    1.2042    0.6223 C   0  0  0  0  0  0  0  0  0  0  0  0
   -2.7876   -1.4146    0.7034 C   0  0  0  0  0  0  0  0  0  0  0  0
   -3.7125    0.3785   -0.8116 C   0  0  0  0  0  0  0  0  0  0  0  0
    2.8043   -1.3960   -0.7236 C   0  0  0  0  0  0  0  0  0  0  0  0
    3.6927    0.3672    0.8474 C   0  0  0  0  0  0  0  0  0  0  0  0
   -3.9912   -0.5359    0.3771 C   0  0  0  0  0  0  0  0  0  0  0  0
    3.9990   -0.5226   -0.3532 C   0  0  0  0  0  0  0  0  0  0  0  0
   -1.0785   -0.2914   -1.1648 H   0  0  0  0  0  0  0  0  0  0  0  0
    1.0601   -0.3111    1.1313 H   0  0  0  0  0  0  0  0  0  0  0  0
    0.1834    1.8452   -0.8762 H   0  0  0  0  0  0  0  0  0  0  0  0
   -0.1844    1.8505    0.8440 H   0  0  0  0  0  0  0  0  0  0  0  0
   -1.6352    0.0139    1.8347 H   0  0  0  0  0  0  0  0  0  0  0  0
   -0.7127   -1.2948    1.0916 H   0  0  0  0  0  0  0  0  0  0  0  0
   -2.2563    1.8091   -1.4966 H   0  0  0  0  0  0  0  0  0  0  0  0
   -2.6248    1.9222    0.2224 H   0  0  0  0  0  0  0  0  0  0  0  0
    1.6764    0.0548   -1.8497 H   0  0  0  0  0  0  0  0  0  0  0  0
    0.7340   -1.2657   -1.1568 H   0  0  0  0  0  0  0  0  0  0  0  0
    2.2198    1.7818    1.5293 H   0  0  0  0  0  0  0  0  0  0  0  0
    2.6250    1.9301   -0.1789 H   0  0  0  0  0  0  0  0  0  0  0  0
   -2.9977   -2.0076    1.6008 H   0  0  0  0  0  0  0  0  0  0  0  0
   -2.6211   -2.1242   -0.1166 H   0  0  0  0  0  0  0  0  0  0  0  0
   -3.5996   -0.2267   -1.7195 H   0  0  0  0  0  0  0  0  0  0  0  0
   -4.5694    1.0418   -0.9750 H   0  0  0  0  0  0  0  0  0  0  0  0
    3.0349   -1.9703   -1.6281 H   0  0  0  0  0  0  0  0  0  0  0  0
    2.6209   -2.1224    0.0778 H   0  0  0  0  0  0  0  0  0  0  0  0
    3.5611   -0.2564    1.7402 H   0  0  0  0  0  0  0  0  0  0  0  0
    4.5447    1.0281    1.0428 H   0  0  0  0  0  0  0  0  0  0  0  0
   -4.8609   -1.1666    0.1615 H   0  0  0  0  0  0  0  0  0  0  0  0
   -4.2467    0.0726    1.2533 H   0  0  0  0  0  0  0  0  0  0  0  0
    4.8649   -1.1565   -0.1314 H   0  0  0  0  0  0  0  0  0  0  0  0
    4.2726    0.1039   -1.2111 H   0  0  0  0  0  0  0  0  0  0  0  0
  1  3  1  0  0  0  0
  1  4  1  0  0  0  0
  1  5  1  0  0  0  0
  1 14  1  0  0  0  0
  2  3  1  0  0  0  0
  2  6  1  0  0  0  0
  2  7  1  0  0  0  0
  2 15  1  0  0  0  0
  3 16  1  0  0  0  0
  3 17  1  0  0  0  0
  4  8  1  0  0  0  0
  4 18  1  0  0  0  0
  4 19  1  0  0  0  0
  5  9  1  0  0  0  0
  5 20  1  0  0  0  0
  5 21  1  0  0  0  0
  6 10  1  0  0  0  0
  6 22  1  0  0  0  0
  6 23  1  0  0  0  0
  7 11  1  0  0  0  0
  7 24  1  0  0  0  0
  7 25  1  0  0  0  0
  8 12  1  0  0  0  0
  8 26  1  0  0  0  0
  8 27  1  0  0  0  0
  9 12  1  0  0  0  0
  9 28  1  0  0  0  0
  9 29  1  0  0  0  0
 10 13  1  0  0  0  0
 10 30  1  0  0  0  0
 10 31  1  0  0  0  0
 11 13  1  0  0  0  0
 11 32  1  0  0  0  0
 11 33  1  0  0  0  0
 12 34  1  0  0  0  0
 12 35  1  0  0  0  0
 13 36  1  0  0  0  0
 13 37  1  0  0  0  0
M  END
> <PUBCHEM_COMPOUND_CID>
76644

> <PUBCHEM_CONFORMER_RMSD>
0.6

> <PUBCHEM_CONFORMER_DIVERSEORDER>
1
6
2
5
7
8
4
3

> <PUBCHEM_MMFF94_PARTIAL_CHARGES>
0

> <PUBCHEM_EFFECTIVE_ROTOR_COUNT>
4.4

> <PUBCHEM_PHARMACOPHORE_FEATURES>
2
6 1 4 5 8 9 12 rings
6 2 6 7 10 11 13 rings

> <PUBCHEM_HEAVY_ATOM_COUNT>
13

> <PUBCHEM_ATOM_DEF_STEREO_COUNT>
0

> <PUBCHEM_ATOM_UDEF_STEREO_COUNT>
0

> <PUBCHEM_BOND_DEF_STEREO_COUNT>
0

> <PUBCHEM_BOND_UDEF_STEREO_COUNT>
0

> <PUBCHEM_ISOTOPIC_ATOM_COUNT>
0

> <PUBCHEM_COMPONENT_COUNT>
1

> <PUBCHEM_CACTVS_TAUTO_COUNT>
1

> <PUBCHEM_CONFORMER_ID>
00012B6400000001

> <PUBCHEM_MMFF94_ENERGY>
9.9478

> <PUBCHEM_FEATURE_SELFOVERLAP>
10.149

> <PUBCHEM_SHAPE_FINGERPRINT>
10219947 1 17846497045550147940
10465860 71 17603879887611840564
10608611 8 18410849962570536105
10751810 167 16877948239057700043
11615757 297 16988842791333314176
12032990 46 18410577287981366725
12500047 106 18113892728443111591
13296908 3 18411138034616532718
14115302 16 17167867499450630011
14144814 61 15697999638891198757
14251717 144 17846494833452119198
14252887 29 17346320358869470966
14386348 63 18410858758668508270
15219456 202 18413386548875292512
15309172 13 17275105024343848975
15375358 24 18411131437546746571
15653759 3 18335139795204871665
15775835 57 13118007716212344946
17834072 14 18410852161593317441
17834074 16 18410856559639997442
18175812 5 18411134757783430356
18186145 218 18261106336123162517
19049666 15 18267584598224667853
19107657 162 18409168830787316347
19141452 34 18341057427859973579
1986462 14 17967812743358808847
200 152 17489582359912587245
20201158 50 18412265021181912154
20279233 1 18410855460128304719
20281407 28 18409174311239309122
204376 136 17630877399706090488
20528008 55 18202280320552930231
20645476 183 15936415562984249115
20645477 56 18186800232543714853
20645477 70 17917142797685353830
21119208 17 15719391732842091558
21249577 43 18410575089021655051
21730867 7 18201721773325901298
22169311 21 18410853261115702606
22485316 2 18410291414979425866
23048698 100 16415478259494538968
23402539 116 18040422291917467021
23557571 272 18040712550276767764
23559900 14 18261671472573471238
26918003 58 18059856164291475235
474 4 15839835625847467488
57812782 119 18410853261104906243
581208 293 18060414737957889390
69090 78 18343014519427689223
7364860 26 18117567442264046676
74978 22 15719685353975694341
77492 1 15697997444157674724
81228 2 18263652757508225873
9709674 26 18409731785115008043

> <PUBCHEM_SHAPE_MULTIPOLES>
267.53
7.9
1.39
1.02
0.02
0.06
0
1.22
0.03
0.02
0
-0.03
0.09
1.15

> <PUBCHEM_SHAPE_SELFOVERLAP>
528.542

> <PUBCHEM_SHAPE_VOLUME>
154.9

> <PUBCHEM_COORDINATE_TYPE>
2
5
10

$$$$
