138461
  -OEChem-11012400433D

 18 19  0     0  0  0  0  0  0999 V2000
   -0.8179    2.3237    0.0003 O   0  0  0  0  0  0  0  0  0  0  0  0
   -0.8181   -2.3237    0.0003 O   0  0  0  0  0  0  0  0  0  0  0  0
   -3.1092    1.1178    0.0012 O   0  5  0  0  0  0  0  0  0  0  0  0
   -3.1096   -1.1175    0.0011 O   0  0  0  0  0  0  0  0  0  0  0  0
   -1.2069    0.0000   -0.0012 N   0  0  0  0  0  0  0  0  0  0  0  0
   -2.5895    0.0001    0.0001 N   0  3  0  0  0  0  0  0  0  0  0  0
    0.9198    0.6968   -0.0009 C   0  0  0  0  0  0  0  0  0  0  0  0
    0.9197   -0.6969   -0.0009 C   0  0  0  0  0  0  0  0  0  0  0  0
   -0.4734    1.1578   -0.0012 C   0  0  0  0  0  0  0  0  0  0  0  0
   -0.4733   -1.1580   -0.0010 C   0  0  0  0  0  0  0  0  0  0  0  0
    2.0906    1.4258    0.0001 C   0  0  0  0  0  0  0  0  0  0  0  0
    2.0907   -1.4259    0.0000 C   0  0  0  0  0  0  0  0  0  0  0  0
    3.2886    0.7054    0.0010 C   0  0  0  0  0  0  0  0  0  0  0  0
    3.2885   -0.7052    0.0011 C   0  0  0  0  0  0  0  0  0  0  0  0
    2.0922    2.5094    0.0003 H   0  0  0  0  0  0  0  0  0  0  0  0
    2.0924   -2.5095    0.0002 H   0  0  0  0  0  0  0  0  0  0  0  0
    4.2361    1.2381    0.0019 H   0  0  0  0  0  0  0  0  0  0  0  0
    4.2361   -1.2379    0.0020 H   0  0  0  0  0  0  0  0  0  0  0  0
  1  9  2  0  0  0  0
  2 10  2  0  0  0  0
  3  6  1  0  0  0  0
  4  6  2  0  0  0  0
  5  6  1  0  0  0  0
  5  9  1  0  0  0  0
  5 10  1  0  0  0  0
  7  8  1  0  0  0  0
  7  9  1  0  0  0  0
  7 11  2  0  0  0  0
  8 10  1  0  0  0  0
  8 12  2  0  0  0  0
 11 13  1  0  0  0  0
 11 15  1  0  0  0  0
 12 14  1  0  0  0  0
 12 16  1  0  0  0  0
 13 14  2  0  0  0  0
 13 17  1  0  0  0  0
 14 18  1  0  0  0  0
M  CHG  2   3  -1   6   1
M  END
> <PUBCHEM_COMPOUND_CID>
138461

> <PUBCHEM_CONFORMER_RMSD>
0.4

> <PUBCHEM_CONFORMER_DIVERSEORDER>
1
2

> <PUBCHEM_MMFF94_PARTIAL_CHARGES>
18
1 -0.57
10 0.54
11 -0.15
12 -0.15
13 -0.15
14 -0.15
15 0.15
16 0.15
17 0.15
18 0.15
2 -0.57
3 -0.52
4 -0.52
5 -0.1
6 1.02
7 0.09
8 0.09
9 0.54

> <PUBCHEM_EFFECTIVE_ROTOR_COUNT>
1.2

> <PUBCHEM_PHARMACOPHORE_FEATURES>
6
1 1 acceptor
1 2 acceptor
1 3 acceptor
1 4 acceptor
5 5 7 8 9 10 rings
6 7 8 11 12 13 14 rings

> <PUBCHEM_HEAVY_ATOM_COUNT>
14

> <PUBCHEM_ATOM_DEF_STEREO_COUNT>
0

> <PUBCHEM_ATOM_UDEF_STEREO_COUNT>
0

> <PUBCHEM_BOND_DEF_STEREO_COUNT>
0

> <PUBCHEM_BOND_UDEF_STEREO_COUNT>
0

> <PUBCHEM_ISOTOPIC_ATOM_COUNT>
0

> <PUBCHEM_COMPONENT_COUNT>
1

> <PUBCHEM_CACTVS_TAUTO_COUNT>
1

> <PUBCHEM_CONFORMER_ID>
00021CDD00000001

> <PUBCHEM_MMFF94_ENERGY>
43.1697

> <PUBCHEM_FEATURE_SELFOVERLAP>
30.635

> <PUBCHEM_SHAPE_FINGERPRINT>
10608611 8 18411415141785920976
10967382 1 18338517417663480454
11132069 177 18342733001158069960
11206711 2 18265054639307345388
11471102 20 18410286991173517789
12032990 46 18410018766208052747
12382932 28 18340203106696827218
12423570 1 11685764203136782491
12524768 44 18412832403763161606
13380535 76 18411697707916433382
14144814 61 18410855460333903282
14325111 11 18410573989457084865
16945 1 18410573985552332294
17844478 74 18040159521729058421
18186145 218 18340208496569670644
193761 8 17546165203619978926
20510252 161 18272651212504613928
20588541 1 18341052999109790154
21267235 1 18410302435923770038
21501502 16 18339082588384071160
2334 1 18410855507531194019
23402539 116 18342726425505156654
23402655 69 18268413660980279973
23463225 33 18408603664862631956
23552423 10 18189054368629237094
23559900 14 18343307003154717788
2748010 2 18410575106195963791
5084963 1 18130504120113992954
528886 8 18411412903944078803
53812653 166 18127969917806067464
7364860 26 18343864416478101702
8809292 202 18333456425849874490

> <PUBCHEM_SHAPE_MULTIPOLES>
254.67
4.83
2.05
0.58
0.38
0
0
0
0
0.32
0
-0.09
0
0

> <PUBCHEM_SHAPE_SELFOVERLAP>
568.722

> <PUBCHEM_SHAPE_VOLUME>
136.4

> <PUBCHEM_COORDINATE_TYPE>
2
5
10

$$$$
