271369
  -OEChem-11012400303D

 27 30  0     1  0  0  0  0  0999 V2000
    0.0000   -0.0001   -2.1115 O   0  0  0  0  0  0  0  0  0  0  0  0
    0.5686   -1.7001   -0.5048 O   0  0  0  0  0  0  0  0  0  0  0  0
   -0.5686    1.7001   -0.5049 O   0  0  0  0  0  0  0  0  0  0  0  0
   -0.4674   -1.0616   -1.2726 C   0  0  1  0  0  0  0  0  0  0  0  0
    0.4674    1.0613   -1.2729 C   0  0  1  0  0  0  0  0  0  0  0  0
   -1.5490   -0.5218   -0.3739 C   0  0  0  0  0  0  0  0  0  0  0  0
    1.5491    0.5217   -0.3740 C   0  0  0  0  0  0  0  0  0  0  0  0
    1.5337   -0.8395   -0.0391 C   0  0  0  0  0  0  0  0  0  0  0  0
   -1.5338    0.8395   -0.0392 C   0  0  0  0  0  0  0  0  0  0  0  0
   -2.5445   -1.3497    0.1527 C   0  0  0  0  0  0  0  0  0  0  0  0
    2.5446    1.3497    0.1525 C   0  0  0  0  0  0  0  0  0  0  0  0
    2.5154   -1.3730    0.7950 C   0  0  0  0  0  0  0  0  0  0  0  0
   -2.5155    1.3732    0.7949 C   0  0  0  0  0  0  0  0  0  0  0  0
   -3.5246   -0.8158    0.9903 C   0  0  0  0  0  0  0  0  0  0  0  0
    3.5247    0.8159    0.9902 C   0  0  0  0  0  0  0  0  0  0  0  0
    3.5113   -0.5427    1.3086 C   0  0  0  0  0  0  0  0  0  0  0  0
   -3.5114    0.5429    1.3085 C   0  0  0  0  0  0  0  0  0  0  0  0
   -0.8906   -1.8210   -1.9390 H   0  0  0  0  0  0  0  0  0  0  0  0
    0.8906    1.8208   -1.9394 H   0  0  0  0  0  0  0  0  0  0  0  0
   -2.5637   -2.4094   -0.0868 H   0  0  0  0  0  0  0  0  0  0  0  0
    2.5637    2.4094   -0.0871 H   0  0  0  0  0  0  0  0  0  0  0  0
    2.5086   -2.4284    1.0527 H   0  0  0  0  0  0  0  0  0  0  0  0
   -2.5086    2.4286    1.0524 H   0  0  0  0  0  0  0  0  0  0  0  0
   -4.2997   -1.4595    1.3960 H   0  0  0  0  0  0  0  0  0  0  0  0
    4.2998    1.4598    1.3958 H   0  0  0  0  0  0  0  0  0  0  0  0
    4.2766   -0.9536    1.9608 H   0  0  0  0  0  0  0  0  0  0  0  0
   -4.2767    0.9540    1.9607 H   0  0  0  0  0  0  0  0  0  0  0  0
  1  4  1  0  0  0  0
  1  5  1  0  0  0  0
  2  4  1  0  0  0  0
  2  8  1  0  0  0  0
  3  5  1  0  0  0  0
  3  9  1  0  0  0  0
  4  6  1  0  0  0  0
  4 18  1  0  0  0  0
  5  7  1  0  0  0  0
  5 19  1  0  0  0  0
  6  9  1  0  0  0  0
  6 10  2  0  0  0  0
  7  8  1  0  0  0  0
  7 11  2  0  0  0  0
  8 12  2  0  0  0  0
  9 13  2  0  0  0  0
 10 14  1  0  0  0  0
 10 20  1  0  0  0  0
 11 15  1  0  0  0  0
 11 21  1  0  0  0  0
 12 16  1  0  0  0  0
 12 22  1  0  0  0  0
 13 17  1  0  0  0  0
 13 23  1  0  0  0  0
 14 17  2  0  0  0  0
 14 24  1  0  0  0  0
 15 16  2  0  0  0  0
 15 25  1  0  0  0  0
 16 26  1  0  0  0  0
 17 27  1  0  0  0  0
M  END
> <PUBCHEM_COMPOUND_CID>
271369

> <PUBCHEM_CONFORMER_RMSD>
0.6

> <PUBCHEM_CONFORMER_DIVERSEORDER>
1
2

> <PUBCHEM_MMFF94_PARTIAL_CHARGES>
25
1 -0.56
10 -0.15
11 -0.15
12 -0.15
13 -0.15
14 -0.15
15 -0.15
16 -0.15
17 -0.15
2 -0.36
20 0.15
21 0.15
22 0.15
23 0.15
24 0.15
25 0.15
26 0.15
27 0.15
3 -0.36
4 0.7
5 0.7
6 -0.14
7 -0.14
8 0.08
9 0.08

> <PUBCHEM_EFFECTIVE_ROTOR_COUNT>
0.6

> <PUBCHEM_PHARMACOPHORE_FEATURES>
7
1 1 acceptor
1 2 acceptor
1 3 acceptor
6 1 2 4 5 7 8 rings
6 1 3 4 5 6 9 rings
6 6 9 10 13 14 17 rings
6 7 8 11 12 15 16 rings

> <PUBCHEM_HEAVY_ATOM_COUNT>
17

> <PUBCHEM_ATOM_DEF_STEREO_COUNT>
0

> <PUBCHEM_ATOM_UDEF_STEREO_COUNT>
2

> <PUBCHEM_BOND_DEF_STEREO_COUNT>
0

> <PUBCHEM_BOND_UDEF_STEREO_COUNT>
0

> <PUBCHEM_ISOTOPIC_ATOM_COUNT>
0

> <PUBCHEM_COMPONENT_COUNT>
1

> <PUBCHEM_CACTVS_TAUTO_COUNT>
1

> <PUBCHEM_CONFORMER_ID>
0004240900000001

> <PUBCHEM_MMFF94_ENERGY>
54.4374

> <PUBCHEM_FEATURE_SELFOVERLAP>
37.113

> <PUBCHEM_SHAPE_FINGERPRINT>
10465860 71 11602537632618837755
10498660 4 13254516397406804683
10871710 139 8950030766215648223
11086676 242 18259988149971977608
11132069 177 18272652354923261539
11471102 22 18113898269093263906
12202030 40 15865178101757529290
12251169 10 18410855447248534905
12382932 28 18412830161795475497
12400797 245 18187364324488619962
12633257 1 18266459789213041433
12696612 119 18408603656346634908
12892183 10 18410856581114626681
13296908 3 16081363068245008558
13299463 15 8862358977506903150
13571099 52 16343705391792155849
13693222 15 18186799183954041849
13764800 53 16917073278032109667
14787075 74 17114381996587591869
15209294 21 17988064704166207200
15309172 13 18411688898954281562
15375462 478 18411698820217725203
15775835 57 17846779632648958586
16945 1 18266458715471216895
17804303 29 18195540185547184790
17834072 14 18261384547309447447
17844478 74 17749377153561996542
18186145 218 12679467499273722576
18981168 100 14547592833678725306
20361792 2 15791737394742260431
20645476 183 10591771948018957801
20653085 51 12535341337450923770
20671657 53 12612752402313091194
21069387 34 16660930014528775563
21731228 192 18131911559237809482
21731516 1 15647061429850312464
22112679 90 17054705930318802687
22445834 79 18335136513902683186
22802520 49 8790298037895147493
231179 274 14620519982157542579
23382010 3 10879983653567473509
23388829 49 18196647617279037255
25 1 13254529681387131502
2748010 2 17978509732691837477
296302 2 16081370786301291620
427121 178 17345496871557039683
5262128 65 11675163601375727002
549884 4 9655574076323912339
6442390 28 15195289789184325599
7097593 13 18338511941781002322
81228 2 15792837928456274077
90316 7 18334018259386397585

> <PUBCHEM_SHAPE_MULTIPOLES>
332.24
5.9
1.69
1.45
0
0
0.32
0
-3.82
0
0.01
0
0
-0.33

> <PUBCHEM_SHAPE_SELFOVERLAP>
756.311

> <PUBCHEM_SHAPE_VOLUME>
169.9

> <PUBCHEM_COORDINATE_TYPE>
2
5
10

$$$$
