140427
  -OEChem-11012401013D

 16 15  0     0  0  0  0  0  0999 V2000
   -1.5878    0.8701    0.5769 S   0  0  0  0  0  0  0  0  0  0  0  0
    1.3503    0.8468    0.7339 S   0  0  0  0  0  0  0  0  0  0  0  0
   -0.0398   -1.2941   -0.0034 N   0  0  0  0  0  0  0  0  0  0  0  0
   -0.1136   -0.0628    0.3609 C   0  0  0  0  0  0  0  0  0  0  0  0
   -2.6312    0.0431   -0.6463 C   0  0  0  0  0  0  0  0  0  0  0  0
    1.7697    1.5425   -0.8789 C   0  0  0  0  0  0  0  0  0  0  0  0
    1.2524   -1.9457   -0.1431 C   0  0  0  0  0  0  0  0  0  0  0  0
   -2.1649    0.0790   -1.6347 H   0  0  0  0  0  0  0  0  0  0  0  0
   -3.5967    0.5532   -0.6991 H   0  0  0  0  0  0  0  0  0  0  0  0
   -2.8058   -0.9983   -0.3629 H   0  0  0  0  0  0  0  0  0  0  0  0
    1.9145    0.7525   -1.6194 H   0  0  0  0  0  0  0  0  0  0  0  0
    2.6958    2.1173   -0.7958 H   0  0  0  0  0  0  0  0  0  0  0  0
    0.9748    2.2102   -1.2215 H   0  0  0  0  0  0  0  0  0  0  0  0
    1.8547   -1.5095   -0.9454 H   0  0  0  0  0  0  0  0  0  0  0  0
    1.0807   -2.9915   -0.4204 H   0  0  0  0  0  0  0  0  0  0  0  0
    1.8138   -1.9658    0.7968 H   0  0  0  0  0  0  0  0  0  0  0  0
  1  4  1  0  0  0  0
  1  5  1  0  0  0  0
  2  4  1  0  0  0  0
  2  6  1  0  0  0  0
  3  4  2  0  0  0  0
  3  7  1  0  0  0  0
  5  8  1  0  0  0  0
  5  9  1  0  0  0  0
  5 10  1  0  0  0  0
  6 11  1  0  0  0  0
  6 12  1  0  0  0  0
  6 13  1  0  0  0  0
  7 14  1  0  0  0  0
  7 15  1  0  0  0  0
  7 16  1  0  0  0  0
M  END
> <PUBCHEM_COMPOUND_CID>
140427

> <PUBCHEM_CONFORMER_RMSD>
0.4

> <PUBCHEM_CONFORMER_DIVERSEORDER>
1
15
7
4
11
17
14
9
16
2
6
5
13
8
3
12
10

> <PUBCHEM_MMFF94_PARTIAL_CHARGES>
7
1 -0.37
2 -0.37
3 -0.7
4 0.73
5 0.23
6 0.23
7 0.25

> <PUBCHEM_EFFECTIVE_ROTOR_COUNT>
2

> <PUBCHEM_PHARMACOPHORE_FEATURES>
3
1 3 acceptor
1 5 hydrophobe
1 6 hydrophobe

> <PUBCHEM_HEAVY_ATOM_COUNT>
7

> <PUBCHEM_ATOM_DEF_STEREO_COUNT>
0

> <PUBCHEM_ATOM_UDEF_STEREO_COUNT>
0

> <PUBCHEM_BOND_DEF_STEREO_COUNT>
0

> <PUBCHEM_BOND_UDEF_STEREO_COUNT>
0

> <PUBCHEM_ISOTOPIC_ATOM_COUNT>
0

> <PUBCHEM_COMPONENT_COUNT>
1

> <PUBCHEM_CACTVS_TAUTO_COUNT>
1

> <PUBCHEM_CONFORMER_ID>
0002248B00000001

> <PUBCHEM_MMFF94_ENERGY>
16.6773

> <PUBCHEM_FEATURE_SELFOVERLAP>
15.223

> <PUBCHEM_SHAPE_FINGERPRINT>
14128692 85 17987514805974917079
16714656 1 17689734363929364616
18185500 45 17838622149856095691
21040471 1 18268143343489548024
23552423 10 18339640032289678235
24536 1 18260271806850350337
29004967 10 17903932058087722155
5084963 1 18188196684776567769
5943 1 11069393828940456336

> <PUBCHEM_SHAPE_MULTIPOLES>
146.77
2.99
1.91
0.96
1.75
0.77
-0.04
-0.69
-0.66
-1.21
-0.21
-0.09
-0.3
-0.3

> <PUBCHEM_SHAPE_SELFOVERLAP>
236.694

> <PUBCHEM_SHAPE_VOLUME>
105.1

> <PUBCHEM_COORDINATE_TYPE>
2
5
10

$$$$
