85646
  -OEChem-11012401113D

 36 36  0     0  0  0  0  0  0999 V2000
    3.2958   -0.6104   -0.8490 O   0  0  0  0  0  0  0  0  0  0  0  0
   -3.2956    0.6104   -0.8490 O   0  0  0  0  0  0  0  0  0  0  0  0
    1.2653    3.2965   -0.2071 O   0  0  0  0  0  0  0  0  0  0  0  0
   -1.2655   -3.2963   -0.2074 O   0  0  0  0  0  0  0  0  0  0  0  0
    3.4901   -0.6473    1.4445 O   0  0  0  0  0  0  0  0  0  0  0  0
   -3.4900    0.6474    1.4444 O   0  0  0  0  0  0  0  0  0  0  0  0
    2.9230    2.2319    0.9264 O   0  0  0  0  0  0  0  0  0  0  0  0
   -2.9231   -2.2319    0.9266 O   0  0  0  0  0  0  0  0  0  0  0  0
    1.3749   -0.2355    0.4240 C   0  0  0  0  0  0  0  0  0  0  0  0
   -1.3748    0.2355    0.4241 C   0  0  0  0  0  0  0  0  0  0  0  0
    0.8912    1.0729    0.4239 C   0  0  0  0  0  0  0  0  0  0  0  0
   -0.8913   -1.0730    0.4241 C   0  0  0  0  0  0  0  0  0  0  0  0
    0.4836   -1.3085    0.4241 C   0  0  0  0  0  0  0  0  0  0  0  0
   -0.4836    1.3084    0.4240 C   0  0  0  0  0  0  0  0  0  0  0  0
    2.8054   -0.5138    0.4236 C   0  0  0  0  0  0  0  0  0  0  0  0
   -2.8053    0.5139    0.4236 C   0  0  0  0  0  0  0  0  0  0  0  0
    1.7967    2.2148    0.4232 C   0  0  0  0  0  0  0  0  0  0  0  0
   -1.7969   -2.2147    0.4233 C   0  0  0  0  0  0  0  0  0  0  0  0
    4.6947   -0.8840   -0.9814 C   0  0  0  0  0  0  0  0  0  0  0  0
   -4.6946    0.8840   -0.9815 C   0  0  0  0  0  0  0  0  0  0  0  0
    5.0465   -0.9536   -2.4521 C   0  0  0  0  0  0  0  0  0  0  0  0
   -5.0464    0.9535   -2.4522 C   0  0  0  0  0  0  0  0  0  0  0  0
    0.8808   -2.3212    0.4378 H   0  0  0  0  0  0  0  0  0  0  0  0
   -0.8809    2.3211    0.4376 H   0  0  0  0  0  0  0  0  0  0  0  0
    4.9256   -1.8399   -0.4983 H   0  0  0  0  0  0  0  0  0  0  0  0
    5.2685   -0.0848   -0.4994 H   0  0  0  0  0  0  0  0  0  0  0  0
   -4.9256    1.8398   -0.4984 H   0  0  0  0  0  0  0  0  0  0  0  0
   -5.2683    0.0848   -0.4995 H   0  0  0  0  0  0  0  0  0  0  0  0
    6.1111   -1.1616   -2.5903 H   0  0  0  0  0  0  0  0  0  0  0  0
    4.4654   -1.7364   -2.9506 H   0  0  0  0  0  0  0  0  0  0  0  0
    4.8027   -0.0101   -2.9515 H   0  0  0  0  0  0  0  0  0  0  0  0
   -6.1110    1.1616   -2.5904 H   0  0  0  0  0  0  0  0  0  0  0  0
   -4.4653    1.7363   -2.9507 H   0  0  0  0  0  0  0  0  0  0  0  0
   -4.8025    0.0100   -2.9515 H   0  0  0  0  0  0  0  0  0  0  0  0
    1.8809    4.0602   -0.2035 H   0  0  0  0  0  0  0  0  0  0  0  0
   -1.8811   -4.0601   -0.2039 H   0  0  0  0  0  0  0  0  0  0  0  0
  1 15  1  0  0  0  0
  1 19  1  0  0  0  0
  2 16  1  0  0  0  0
  2 20  1  0  0  0  0
  3 17  1  0  0  0  0
  3 35  1  0  0  0  0
  4 18  1  0  0  0  0
  4 36  1  0  0  0  0
  5 15  2  0  0  0  0
  6 16  2  0  0  0  0
  7 17  2  0  0  0  0
  8 18  2  0  0  0  0
  9 11  2  0  0  0  0
  9 13  1  0  0  0  0
  9 15  1  0  0  0  0
 10 12  1  0  0  0  0
 10 14  2  0  0  0  0
 10 16  1  0  0  0  0
 11 14  1  0  0  0  0
 11 17  1  0  0  0  0
 12 13  2  0  0  0  0
 12 18  1  0  0  0  0
 13 23  1  0  0  0  0
 14 24  1  0  0  0  0
 19 21  1  0  0  0  0
 19 25  1  0  0  0  0
 19 26  1  0  0  0  0
 20 22  1  0  0  0  0
 20 27  1  0  0  0  0
 20 28  1  0  0  0  0
 21 29  1  0  0  0  0
 21 30  1  0  0  0  0
 21 31  1  0  0  0  0
 22 32  1  0  0  0  0
 22 33  1  0  0  0  0
 22 34  1  0  0  0  0
M  END
> <PUBCHEM_COMPOUND_CID>
85646

> <PUBCHEM_CONFORMER_RMSD>
0.8

> <PUBCHEM_CONFORMER_DIVERSEORDER>
1
5
12
2
14
4
13
10
11
7
8
3
6
9

> <PUBCHEM_MMFF94_PARTIAL_CHARGES>
24
1 -0.43
10 0.09
11 0.09
12 0.09
13 -0.15
14 -0.15
15 0.63
16 0.63
17 0.63
18 0.63
19 0.28
2 -0.43
20 0.28
23 0.15
24 0.15
3 -0.65
35 0.5
36 0.5
4 -0.65
5 -0.57
6 -0.57
7 -0.57
8 -0.57
9 0.09

> <PUBCHEM_EFFECTIVE_ROTOR_COUNT>
8

> <PUBCHEM_PHARMACOPHORE_FEATURES>
9
1 3 acceptor
1 4 acceptor
1 5 acceptor
1 6 acceptor
1 7 acceptor
1 8 acceptor
3 3 7 17 anion
3 4 8 18 anion
6 9 10 11 12 13 14 rings

> <PUBCHEM_HEAVY_ATOM_COUNT>
22

> <PUBCHEM_ATOM_DEF_STEREO_COUNT>
0

> <PUBCHEM_ATOM_UDEF_STEREO_COUNT>
0

> <PUBCHEM_BOND_DEF_STEREO_COUNT>
0

> <PUBCHEM_BOND_UDEF_STEREO_COUNT>
0

> <PUBCHEM_ISOTOPIC_ATOM_COUNT>
0

> <PUBCHEM_COMPONENT_COUNT>
1

> <PUBCHEM_CACTVS_TAUTO_COUNT>
1

> <PUBCHEM_CONFORMER_ID>
00014E8E00000001

> <PUBCHEM_MMFF94_ENERGY>
69.2979

> <PUBCHEM_FEATURE_SELFOVERLAP>
45.792

> <PUBCHEM_SHAPE_FINGERPRINT>
10693767 8 17914597381413432655
10756046 5 18266742565596542700
11578080 2 17823120367777145036
11680986 33 18270964656267486760
11796584 16 15051725357692020165
12403259 415 18259982678669270293
12553582 1 18339368465691633074
12596602 18 13479420418748064877
12730499 353 18042672928892423285
13140716 1 18410574032396092153
13540713 4 18267022941029925243
13583140 156 17603861217689919441
14790565 3 18123213228578243616
14911166 2 18410855425768423494
15475509 8 17842581559778700452
15848700 24 18201432533132942884
16752209 62 18264765450611679336
16945 1 18410856520985084362
18186145 218 18410855469071758385
19784866 240 15841835525248980109
20645477 70 18201997771828978124
20871999 31 18268159669040184772
21069387 34 17346881143389144316
21307412 95 18059309655642175502
21501502 16 18266740379426488795
21521239 73 18058993061213146775
22182313 1 18266458887269908706
2334 1 18194118753108662169
23402539 116 18129386994867508020
23559900 14 18342748412408167214
23566358 2 18195809789128391476
23569914 2 15432257690031692229
2748010 2 18266740362246619481
3060560 45 18265592335116693191
34934 24 18261940899982261818
350125 39 18264221351612501219
3759504 43 17458634401736150931
633830 44 18272645728284927237
7364860 26 17984433090279420520
74978 22 18410855503077835088
9709674 26 18268989976017162675

> <PUBCHEM_SHAPE_MULTIPOLES>
405.8
9.23
2.77
1.65
0
0
-1.24
0
-6.56
0
0.41
0
0
1.78

> <PUBCHEM_SHAPE_SELFOVERLAP>
853.257

> <PUBCHEM_SHAPE_VOLUME>
228.1

> <PUBCHEM_COORDINATE_TYPE>
2
5
10

$$$$
