11369
  -OEChem-11012400503D

 26 26  0     0  0  0  0  0  0999 V2000
   -0.0003    1.9880    0.0001 N   0  0  0  0  0  0  0  0  0  0  0  0
   -1.1733   -0.1240   -0.2876 C   0  0  0  0  0  0  0  0  0  0  0  0
    1.1732   -0.1237    0.2869 C   0  0  0  0  0  0  0  0  0  0  0  0
   -0.0001    0.5736   -0.0006 C   0  0  0  0  0  0  0  0  0  0  0  0
   -2.4455    0.5956   -0.5982 C   0  0  0  0  0  0  0  0  0  0  0  0
    2.4453    0.5960    0.5981 C   0  0  0  0  0  0  0  0  0  0  0  0
   -1.1734   -1.5189   -0.2870 C   0  0  0  0  0  0  0  0  0  0  0  0
    1.1733   -1.5186    0.2873 C   0  0  0  0  0  0  0  0  0  0  0  0
    0.0000   -2.2161    0.0003 C   0  0  0  0  0  0  0  0  0  0  0  0
   -3.2721    0.8744    0.6532 C   0  0  0  0  0  0  0  0  0  0  0  0
    3.2729    0.8738   -0.6527 C   0  0  0  0  0  0  0  0  0  0  0  0
   -2.2695    1.5201   -1.1585 H   0  0  0  0  0  0  0  0  0  0  0  0
   -3.0489   -0.0190   -1.2801 H   0  0  0  0  0  0  0  0  0  0  0  0
    2.2688    1.5209    1.1577 H   0  0  0  0  0  0  0  0  0  0  0  0
    3.0479   -0.0183    1.2810 H   0  0  0  0  0  0  0  0  0  0  0  0
   -2.0802   -2.0765   -0.5062 H   0  0  0  0  0  0  0  0  0  0  0  0
    2.0801   -2.0761    0.5071 H   0  0  0  0  0  0  0  0  0  0  0  0
    0.0000   -3.3022    0.0007 H   0  0  0  0  0  0  0  0  0  0  0  0
   -3.5283   -0.0538    1.1753 H   0  0  0  0  0  0  0  0  0  0  0  0
   -4.2048    1.3801    0.3841 H   0  0  0  0  0  0  0  0  0  0  0  0
   -2.7287    1.5157    1.3549 H   0  0  0  0  0  0  0  0  0  0  0  0
    3.5295   -0.0547   -1.1739 H   0  0  0  0  0  0  0  0  0  0  0  0
    4.2055    1.3796   -0.3831 H   0  0  0  0  0  0  0  0  0  0  0  0
    2.7302    1.5148   -1.3553 H   0  0  0  0  0  0  0  0  0  0  0  0
    0.8595    2.5095    0.0905 H   0  0  0  0  0  0  0  0  0  0  0  0
   -0.8599    2.5094   -0.0934 H   0  0  0  0  0  0  0  0  0  0  0  0
  1  4  1  0  0  0  0
  1 25  1  0  0  0  0
  1 26  1  0  0  0  0
  2  4  2  0  0  0  0
  2  5  1  0  0  0  0
  2  7  1  0  0  0  0
  3  4  1  0  0  0  0
  3  6  1  0  0  0  0
  3  8  2  0  0  0  0
  5 10  1  0  0  0  0
  5 12  1  0  0  0  0
  5 13  1  0  0  0  0
  6 11  1  0  0  0  0
  6 14  1  0  0  0  0
  6 15  1  0  0  0  0
  7  9  2  0  0  0  0
  7 16  1  0  0  0  0
  8  9  1  0  0  0  0
  8 17  1  0  0  0  0
  9 18  1  0  0  0  0
 10 19  1  0  0  0  0
 10 20  1  0  0  0  0
 10 21  1  0  0  0  0
 11 22  1  0  0  0  0
 11 23  1  0  0  0  0
 11 24  1  0  0  0  0
M  END
> <PUBCHEM_COMPOUND_CID>
11369

> <PUBCHEM_CONFORMER_RMSD>
0.4

> <PUBCHEM_CONFORMER_DIVERSEORDER>
3
1
6
2
4
5

> <PUBCHEM_MMFF94_PARTIAL_CHARGES>
14
1 -0.9
16 0.15
17 0.15
18 0.15
2 -0.14
25 0.4
26 0.4
3 -0.14
4 0.1
5 0.14
6 0.14
7 -0.15
8 -0.15
9 -0.15

> <PUBCHEM_EFFECTIVE_ROTOR_COUNT>
2

> <PUBCHEM_PHARMACOPHORE_FEATURES>
5
1 1 cation
1 1 donor
1 10 hydrophobe
1 11 hydrophobe
6 2 3 4 7 8 9 rings

> <PUBCHEM_HEAVY_ATOM_COUNT>
11

> <PUBCHEM_ATOM_DEF_STEREO_COUNT>
0

> <PUBCHEM_ATOM_UDEF_STEREO_COUNT>
0

> <PUBCHEM_BOND_DEF_STEREO_COUNT>
0

> <PUBCHEM_BOND_UDEF_STEREO_COUNT>
0

> <PUBCHEM_ISOTOPIC_ATOM_COUNT>
0

> <PUBCHEM_COMPONENT_COUNT>
1

> <PUBCHEM_CACTVS_TAUTO_COUNT>
1

> <PUBCHEM_CONFORMER_ID>
00002C6900000003

> <PUBCHEM_MMFF94_ENERGY>
35.5052

> <PUBCHEM_FEATURE_SELFOVERLAP>
25.371

> <PUBCHEM_SHAPE_FINGERPRINT>
10219947 1 18335422331397401969
11206711 2 18193543695758796399
12423570 1 17484813949539359438
12716758 59 18340769368217765494
13380535 21 18410864260516593030
14993402 34 18410008866477162797
15775835 57 18410856563934886785
161256 15 18052543174963293039
16945 1 18410564093841930852
21040471 1 18339069471358906770
22802520 49 18201454587832167190
23235685 24 18410570690911691012
23552423 10 18049155575432896551
241688 4 16826146642563905787
2748010 2 18411136939416151342
276578 36 18341905051780533761
369184 2 15357962495595165340
5084963 1 17842825638485467619
528862 383 18261387785103112251
528886 8 18411414020677799784
53812653 166 18342734147798397504
53812653 8 18339366270852970984
63268167 104 18270674269228212617
81228 2 17905315582965295450

> <PUBCHEM_SHAPE_MULTIPOLES>
221.39
4.22
2.01
0.79
0
0.79
0
-2.13
0
0
0
0
-0.08
-0.29

> <PUBCHEM_SHAPE_SELFOVERLAP>
449.708

> <PUBCHEM_SHAPE_VOLUME>
130.5

> <PUBCHEM_COORDINATE_TYPE>
2
5
10

$$$$
