13407993
  -OEChem-11012401043D

 25 25  0     1  0  0  0  0  0999 V2000
   -0.0116   -2.5146    0.0012 O   0  0  0  0  0  0  0  0  0  0  0  0
    1.5147    0.6970    0.3542 O   0  0  0  0  0  0  0  0  0  0  0  0
   -1.5117    0.7036   -0.3574 O   0  0  0  0  0  0  0  0  0  0  0  0
    3.3494   -0.0147   -0.8560 O   0  0  0  0  0  0  0  0  0  0  0  0
   -3.3401   -0.0123    0.8596 O   0  0  0  0  0  0  0  0  0  0  0  0
    0.7078   -0.2775   -0.2760 C   0  0  2  0  0  0  0  0  0  0  0  0
   -0.6994   -0.2670    0.2723 C   0  0  2  0  0  0  0  0  0  0  0  0
    1.1570   -1.6846    0.0563 C   0  0  0  0  0  0  0  0  0  0  0  0
   -1.1684   -1.6682   -0.0559 C   0  0  0  0  0  0  0  0  0  0  0  0
    2.8264    0.7210   -0.0299 C   0  0  0  0  0  0  0  0  0  0  0  0
   -2.8222    0.7237    0.0307 C   0  0  0  0  0  0  0  0  0  0  0  0
    3.5553    1.7974    0.7158 C   0  0  0  0  0  0  0  0  0  0  0  0
   -3.5571    1.7963   -0.7149 C   0  0  0  0  0  0  0  0  0  0  0  0
    0.6899   -0.0990   -1.3594 H   0  0  0  0  0  0  0  0  0  0  0  0
   -0.6797   -0.0861    1.3554 H   0  0  0  0  0  0  0  0  0  0  0  0
    1.8916   -2.0749   -0.6537 H   0  0  0  0  0  0  0  0  0  0  0  0
    1.5856   -1.7601    1.0621 H   0  0  0  0  0  0  0  0  0  0  0  0
   -1.9064   -2.0490    0.6556 H   0  0  0  0  0  0  0  0  0  0  0  0
   -1.5984   -1.7420   -1.0614 H   0  0  0  0  0  0  0  0  0  0  0  0
    3.5142    1.5971    1.7893 H   0  0  0  0  0  0  0  0  0  0  0  0
    3.1130    2.7704    0.4880 H   0  0  0  0  0  0  0  0  0  0  0  0
    4.6035    1.8091    0.4035 H   0  0  0  0  0  0  0  0  0  0  0  0
   -3.5186    1.5939   -1.7881 H   0  0  0  0  0  0  0  0  0  0  0  0
   -3.1174    2.7712   -0.4903 H   0  0  0  0  0  0  0  0  0  0  0  0
   -4.6043    1.8051   -0.3992 H   0  0  0  0  0  0  0  0  0  0  0  0
  1  8  1  0  0  0  0
  1  9  1  0  0  0  0
  2  6  1  0  0  0  0
  2 10  1  0  0  0  0
  3  7  1  0  0  0  0
  3 11  1  0  0  0  0
  4 10  2  0  0  0  0
  5 11  2  0  0  0  0
  6  7  1  0  0  0  0
  6  8  1  0  0  0  0
  6 14  1  0  0  0  0
  7  9  1  0  0  0  0
  7 15  1  0  0  0  0
  8 16  1  0  0  0  0
  8 17  1  0  0  0  0
  9 18  1  0  0  0  0
  9 19  1  0  0  0  0
 10 12  1  0  0  0  0
 11 13  1  0  0  0  0
 12 20  1  0  0  0  0
 12 21  1  0  0  0  0
 12 22  1  0  0  0  0
 13 23  1  0  0  0  0
 13 24  1  0  0  0  0
 13 25  1  0  0  0  0
M  END
> <PUBCHEM_COMPOUND_CID>
13407993

> <PUBCHEM_CONFORMER_RMSD>
0.6

> <PUBCHEM_CONFORMER_DIVERSEORDER>
1
18
12
9
5
4
19
13
8
11
16
3
7
10
2
15
6
14
17
20

> <PUBCHEM_MMFF94_PARTIAL_CHARGES>
13
1 -0.56
10 0.66
11 0.66
12 0.06
13 0.06
2 -0.43
3 -0.43
4 -0.57
5 -0.57
6 0.28
7 0.28
8 0.28
9 0.28

> <PUBCHEM_EFFECTIVE_ROTOR_COUNT>
5

> <PUBCHEM_PHARMACOPHORE_FEATURES>
4
1 1 acceptor
1 4 acceptor
1 5 acceptor
5 1 6 7 8 9 rings

> <PUBCHEM_HEAVY_ATOM_COUNT>
13

> <PUBCHEM_ATOM_DEF_STEREO_COUNT>
2

> <PUBCHEM_ATOM_UDEF_STEREO_COUNT>
0

> <PUBCHEM_BOND_DEF_STEREO_COUNT>
0

> <PUBCHEM_BOND_UDEF_STEREO_COUNT>
0

> <PUBCHEM_ISOTOPIC_ATOM_COUNT>
0

> <PUBCHEM_COMPONENT_COUNT>
1

> <PUBCHEM_CACTVS_TAUTO_COUNT>
1

> <PUBCHEM_CONFORMER_ID>
00CC96F900000001

> <PUBCHEM_MMFF94_ENERGY>
26.0433

> <PUBCHEM_FEATURE_SELFOVERLAP>
20.297

> <PUBCHEM_SHAPE_FINGERPRINT>
1 1 18338797801819075742
10608611 8 18410856563940304448
11543360 7 15769766996229993517
13380535 21 18410867559051554311
13380535 76 18410571790423643591
14123255 52 18410567388082100228
14325111 11 18410573993746699457
14648413 74 17903917756205185889
14897335 6 18411972564005467662
15219456 202 18188778228075715627
15775835 57 18410575088958085188
18186145 218 18202290194856862560
20510252 161 18198626737913583083
20645477 56 18268715085610523200
20671657 1 18267862796226091466
21028194 46 18408047307451985904
21499 59 18411689976943418501
21524375 3 18410569591400141194
23402539 116 18272076211025882084
23500284 214 18271528705569025144
25 1 18272939297340696312
2748010 2 18337966635347530367
305870 269 18261667095379440906
6333449 129 18269271429445014870
633830 44 18059581252062040805
7364860 26 18124032334316956086
81228 2 17906166609260206843

> <PUBCHEM_SHAPE_MULTIPOLES>
238.19
6.13
2.18
0.78
0.02
0.79
0
-4.57
0
0
0
0
-0.14
0.72

> <PUBCHEM_SHAPE_SELFOVERLAP>
477.618

> <PUBCHEM_SHAPE_VOLUME>
140.8

> <PUBCHEM_COORDINATE_TYPE>
2
5
10

$$$$
