153116282
  -OEChem-11012401203D

 18 19  0     1  0  0  0  0  0999 V2000
   -0.3899    1.1890   -0.3429 C   0  0  2  0  0  0  0  0  0  0  0  0
   -0.4979    0.0336   -1.3478 C   0  0  0  0  0  0  0  0  0  0  0  0
   -0.3723   -1.1666   -0.3935 C   0  0  2  0  0  0  0  0  0  0  0  0
    1.0790    1.2862    0.1429 C   0  0  0  0  0  0  0  0  0  0  0  0
   -1.2916    0.6468    0.7434 C   0  0  0  0  0  0  0  0  0  0  0  0
   -1.2958   -0.6954    0.7031 C   0  0  0  0  0  0  0  0  0  0  0  0
    1.0493   -1.2188    0.1266 C   0  0  0  0  0  0  0  0  0  0  0  0
    1.7190   -0.0748    0.3682 C   0  0  0  0  0  0  0  0  0  0  0  0
   -0.7573    2.1332   -0.7537 H   0  0  0  0  0  0  0  0  0  0  0  0
    0.2793    0.0622   -2.1206 H   0  0  0  0  0  0  0  0  0  0  0  0
   -1.4734    0.0370   -1.8541 H   0  0  0  0  0  0  0  0  0  0  0  0
   -0.6878   -2.0976   -0.8696 H   0  0  0  0  0  0  0  0  0  0  0  0
    1.1350    1.8709    1.0685 H   0  0  0  0  0  0  0  0  0  0  0  0
    1.6707    1.8128   -0.6156 H   0  0  0  0  0  0  0  0  0  0  0  0
   -1.8167    1.2510    1.4675 H   0  0  0  0  0  0  0  0  0  0  0  0
   -1.8195   -1.3390    1.3937 H   0  0  0  0  0  0  0  0  0  0  0  0
    1.5113   -2.1818    0.3151 H   0  0  0  0  0  0  0  0  0  0  0  0
    2.7367   -0.1085    0.7432 H   0  0  0  0  0  0  0  0  0  0  0  0
  1  2  1  0  0  0  0
  1  4  1  0  0  0  0
  1  5  1  0  0  0  0
  1  9  1  0  0  0  0
  2  3  1  0  0  0  0
  2 10  1  0  0  0  0
  2 11  1  0  0  0  0
  3  6  1  0  0  0  0
  3  7  1  0  0  0  0
  3 12  1  0  0  0  0
  4  8  1  0  0  0  0
  4 13  1  0  0  0  0
  4 14  1  0  0  0  0
  5  6  2  0  0  0  0
  5 15  1  0  0  0  0
  6 16  1  0  0  0  0
  7  8  2  0  0  0  0
  7 17  1  0  0  0  0
  8 18  1  0  0  0  0
M  END
> <PUBCHEM_COMPOUND_CID>
153116282

> <PUBCHEM_CONFORMER_RMSD>
0.4

> <PUBCHEM_CONFORMER_DIVERSEORDER>
1

> <PUBCHEM_MMFF94_PARTIAL_CHARGES>
11
1 0.14
15 0.15
16 0.15
17 0.15
18 0.15
3 0.28
4 0.14
5 -0.29
6 -0.29
7 -0.29
8 -0.29

> <PUBCHEM_EFFECTIVE_ROTOR_COUNT>
0.4

> <PUBCHEM_PHARMACOPHORE_FEATURES>
1
8 1 2 3 4 5 6 7 8 rings

> <PUBCHEM_HEAVY_ATOM_COUNT>
8

> <PUBCHEM_ATOM_DEF_STEREO_COUNT>
2

> <PUBCHEM_ATOM_UDEF_STEREO_COUNT>
0

> <PUBCHEM_BOND_DEF_STEREO_COUNT>
0

> <PUBCHEM_BOND_UDEF_STEREO_COUNT>
0

> <PUBCHEM_ISOTOPIC_ATOM_COUNT>
0

> <PUBCHEM_COMPONENT_COUNT>
1

> <PUBCHEM_CACTVS_TAUTO_COUNT>
-1

> <PUBCHEM_CONFORMER_ID>
09205E7A00000001

> <PUBCHEM_MMFF94_ENERGY>
19.4085

> <PUBCHEM_FEATURE_SELFOVERLAP>
5.074

> <PUBCHEM_SHAPE_FINGERPRINT>
12423570 1 17619011366480319237
13024252 1 15647321984368398058
137420 1 18058468610745108199
16945 1 18410018723279160611
18185500 45 17908984657614456914
20096714 4 18273500048191656472
20645464 45 17917981764366088962
21040471 1 18341902852583295705
23552423 10 18042978571080564870
29004967 10 17097768238563764819
5084963 1 17560815311296863851
68250623 7 17336794378424453310

> <PUBCHEM_SHAPE_MULTIPOLES>
164.64
1.75
1.47
1.03
0.37
0.04
-0.22
-0.02
0.42
0.14
0.01
-0.26
0
0

> <PUBCHEM_SHAPE_SELFOVERLAP>
352.755

> <PUBCHEM_SHAPE_VOLUME>
87.7

> <PUBCHEM_COORDINATE_TYPE>
2
5
10

$$$$
