143695
  -OEChem-11012400373D

 35 34  0     0  0  0  0  0  0999 V2000
    0.7750   -0.5065   -0.2061 C   0  0  0  0  0  0  0  0  0  0  0  0
   -0.3241    0.4832    0.3144 C   0  0  0  0  0  0  0  0  0  0  0  0
   -1.8615    0.2359    0.1683 C   0  0  0  0  0  0  0  0  0  0  0  0
    2.2213    0.1285   -0.0218 C   0  0  0  0  0  0  0  0  0  0  0  0
    0.7425   -1.8656    0.5161 C   0  0  0  0  0  0  0  0  0  0  0  0
    0.5796   -0.7835   -1.7184 C   0  0  0  0  0  0  0  0  0  0  0  0
   -2.6768    0.9831    1.2398 C   0  0  0  0  0  0  0  0  0  0  0  0
   -2.2552   -1.2453    0.1698 C   0  0  0  0  0  0  0  0  0  0  0  0
   -2.2797    0.8258   -1.2035 C   0  0  0  0  0  0  0  0  0  0  0  0
    2.3939    1.4975   -0.6982 C   0  0  0  0  0  0  0  0  0  0  0  0
    2.6850    0.2469    1.4396 C   0  0  0  0  0  0  0  0  0  0  0  0
   -0.1423    0.5834    1.3939 H   0  0  0  0  0  0  0  0  0  0  0  0
   -0.1267    1.4836   -0.0867 H   0  0  0  0  0  0  0  0  0  0  0  0
    2.9359   -0.5492   -0.5112 H   0  0  0  0  0  0  0  0  0  0  0  0
    0.5832   -1.7445    1.5928 H   0  0  0  0  0  0  0  0  0  0  0  0
   -0.0255   -2.5417    0.1353 H   0  0  0  0  0  0  0  0  0  0  0  0
    1.6900   -2.4015    0.3812 H   0  0  0  0  0  0  0  0  0  0  0  0
   -0.2857   -1.4136   -1.9304 H   0  0  0  0  0  0  0  0  0  0  0  0
    0.4611    0.1417   -2.2902 H   0  0  0  0  0  0  0  0  0  0  0  0
    1.4471   -1.3131   -2.1304 H   0  0  0  0  0  0  0  0  0  0  0  0
   -2.4482    0.5967    2.2393 H   0  0  0  0  0  0  0  0  0  0  0  0
   -2.4439    2.0538    1.2356 H   0  0  0  0  0  0  0  0  0  0  0  0
   -3.7551    0.8735    1.0787 H   0  0  0  0  0  0  0  0  0  0  0  0
   -1.8867   -1.8005   -0.6924 H   0  0  0  0  0  0  0  0  0  0  0  0
   -1.9327   -1.7377    1.0925 H   0  0  0  0  0  0  0  0  0  0  0  0
   -3.3478   -1.3461    0.1358 H   0  0  0  0  0  0  0  0  0  0  0  0
   -3.3660    0.7563   -1.3392 H   0  0  0  0  0  0  0  0  0  0  0  0
   -1.8272    0.2989   -2.0461 H   0  0  0  0  0  0  0  0  0  0  0  0
   -2.0134    1.8859   -1.2838 H   0  0  0  0  0  0  0  0  0  0  0  0
    3.4510    1.7889   -0.6826 H   0  0  0  0  0  0  0  0  0  0  0  0
    2.0882    1.4862   -1.7470 H   0  0  0  0  0  0  0  0  0  0  0  0
    1.8433    2.2881   -0.1801 H   0  0  0  0  0  0  0  0  0  0  0  0
    2.7044   -0.7260    1.9388 H   0  0  0  0  0  0  0  0  0  0  0  0
    3.7030    0.6498    1.4871 H   0  0  0  0  0  0  0  0  0  0  0  0
    2.0384    0.9164    2.0149 H   0  0  0  0  0  0  0  0  0  0  0  0
  1  2  1  0  0  0  0
  1  4  1  0  0  0  0
  1  5  1  0  0  0  0
  1  6  1  0  0  0  0
  2  3  1  0  0  0  0
  2 12  1  0  0  0  0
  2 13  1  0  0  0  0
  3  7  1  0  0  0  0
  3  8  1  0  0  0  0
  3  9  1  0  0  0  0
  4 10  1  0  0  0  0
  4 11  1  0  0  0  0
  4 14  1  0  0  0  0
  5 15  1  0  0  0  0
  5 16  1  0  0  0  0
  5 17  1  0  0  0  0
  6 18  1  0  0  0  0
  6 19  1  0  0  0  0
  6 20  1  0  0  0  0
  7 21  1  0  0  0  0
  7 22  1  0  0  0  0
  7 23  1  0  0  0  0
  8 24  1  0  0  0  0
  8 25  1  0  0  0  0
  8 26  1  0  0  0  0
  9 27  1  0  0  0  0
  9 28  1  0  0  0  0
  9 29  1  0  0  0  0
 10 30  1  0  0  0  0
 10 31  1  0  0  0  0
 10 32  1  0  0  0  0
 11 33  1  0  0  0  0
 11 34  1  0  0  0  0
 11 35  1  0  0  0  0
M  END
> <PUBCHEM_COMPOUND_CID>
143695

> <PUBCHEM_CONFORMER_RMSD>
0.6

> <PUBCHEM_CONFORMER_DIVERSEORDER>
1
4
5
2
3

> <PUBCHEM_MMFF94_PARTIAL_CHARGES>
0

> <PUBCHEM_EFFECTIVE_ROTOR_COUNT>
3

> <PUBCHEM_PHARMACOPHORE_FEATURES>
4
3 1 5 6 hydrophobe
3 4 10 11 hydrophobe
4 1 2 3 4 hydrophobe
4 3 7 8 9 hydrophobe

> <PUBCHEM_HEAVY_ATOM_COUNT>
11

> <PUBCHEM_ATOM_DEF_STEREO_COUNT>
0

> <PUBCHEM_ATOM_UDEF_STEREO_COUNT>
0

> <PUBCHEM_BOND_DEF_STEREO_COUNT>
0

> <PUBCHEM_BOND_UDEF_STEREO_COUNT>
0

> <PUBCHEM_ISOTOPIC_ATOM_COUNT>
0

> <PUBCHEM_COMPONENT_COUNT>
1

> <PUBCHEM_CACTVS_TAUTO_COUNT>
1

> <PUBCHEM_CONFORMER_ID>
0002314F00000001

> <PUBCHEM_MMFF94_ENERGY>
44.9432

> <PUBCHEM_FEATURE_SELFOVERLAP>
22.026

> <PUBCHEM_SHAPE_FINGERPRINT>
10857977 72 18272089465067811915
11031198 65 17274838912728834761
12423570 1 16105776431529418438
124424 183 16806710807632312560
12897270 3 16773798086558877369
12932764 1 17676493847328731748
13839132 238 18199208276543431543
14390081 3 17489868219803130457
15775835 57 18113908203089109124
16945 1 18261388893209754372
19837323 101 17203613708996068371
20653085 51 16773526567527284208
21028194 46 17989210373411730986
21040471 1 17989207083524856478
230 275 18340491062520841416
23235685 24 18272100408518076264
23235687 12 18261398844759904873
305870 269 17489583425075123498
3248919 1 18343582936499652477
369184 2 17458061581942205513
5084963 1 18413389856174034334
8030462 33 17775002358368275341

> <PUBCHEM_SHAPE_MULTIPOLES>
226.37
4.29
1.54
1.43
0.35
0.37
-0.19
-1.39
0.91
-0.08
-0.01
-0.1
-0.1
-0.19

> <PUBCHEM_SHAPE_SELFOVERLAP>
415.719

> <PUBCHEM_SHAPE_VOLUME>
149.4

> <PUBCHEM_COORDINATE_TYPE>
2
5
10

$$$$
