141931
  -OEChem-11012400403D

 28 27  0     0  0  0  0  0  0999 V2000
    2.1109   -1.2254   -1.7962 O   0  5  0  0  0  0  0  0  0  0  0  0
    3.5259    0.0728    2.3422 O   0  5  0  0  0  0  0  0  0  0  0  0
    2.0984    2.3067   -0.3068 O   0  5  0  0  0  0  0  0  0  0  0  0
   -2.0987   -2.3073   -0.3041 O   0  5  0  0  0  0  0  0  0  0  0  0
   -2.1146    1.2221   -1.7998 O   0  5  0  0  0  0  0  0  0  0  0  0
   -3.5202   -0.0685    2.3442 O   0  5  0  0  0  0  0  0  0  0  0  0
    3.0875   -2.2549   -0.1229 O   0  0  0  0  0  0  0  0  0  0  0  0
    4.8524    0.0666    0.5949 O   0  0  0  0  0  0  0  0  0  0  0  0
    3.2636    1.1471   -1.7576 O   0  0  0  0  0  0  0  0  0  0  0  0
   -3.2672   -1.1503   -1.7543 O   0  0  0  0  0  0  0  0  0  0  0  0
   -3.0874    2.2547   -0.1261 O   0  0  0  0  0  0  0  0  0  0  0  0
   -4.8507   -0.0656    0.5999 O   0  0  0  0  0  0  0  0  0  0  0  0
   -0.0040    0.0002    0.1663 N   0  0  0  0  0  0  0  0  0  0  0  0
    2.5948   -1.2497   -0.6559 N   0  3  0  0  0  0  0  0  0  0  0  0
    3.7301    0.0673    1.1187 N   0  3  0  0  0  0  0  0  0  0  0  0
    2.6454    1.2618   -0.6907 N   0  3  0  0  0  0  0  0  0  0  0  0
   -2.6466   -1.2631   -0.6885 N   0  3  0  0  0  0  0  0  0  0  0  0
   -2.5959    1.2484   -0.6583 N   0  3  0  0  0  0  0  0  0  0  0  0
   -3.7271   -0.0653    1.1212 N   0  3  0  0  0  0  0  0  0  0  0  0
    1.2014   -0.0108    0.9981 C   0  0  0  0  0  0  0  0  0  0  0  0
   -1.1987    0.0126    0.9947 C   0  0  0  0  0  0  0  0  0  0  0  0
    2.5126    0.0214    0.1906 C   0  0  0  0  0  0  0  0  0  0  0  0
   -2.5119   -0.0210    0.1903 C   0  0  0  0  0  0  0  0  0  0  0  0
    1.1846   -0.9129    1.6255 H   0  0  0  0  0  0  0  0  0  0  0  0
    1.1669    0.8502    1.6801 H   0  0  0  0  0  0  0  0  0  0  0  0
   -1.1840    0.9107    1.6285 H   0  0  0  0  0  0  0  0  0  0  0  0
   -1.1652   -0.8509    1.6733 H   0  0  0  0  0  0  0  0  0  0  0  0
    0.0062    0.8177   -0.4417 H   0  0  0  0  0  0  0  0  0  0  0  0
  1 14  1  0  0  0  0
  2 15  1  0  0  0  0
  3 16  1  0  0  0  0
  4 17  1  0  0  0  0
  5 18  1  0  0  0  0
  6 19  1  0  0  0  0
  7 14  2  0  0  0  0
  8 15  2  0  0  0  0
  9 16  2  0  0  0  0
 10 17  2  0  0  0  0
 11 18  2  0  0  0  0
 12 19  2  0  0  0  0
 13 20  1  0  0  0  0
 13 21  1  0  0  0  0
 13 28  1  0  0  0  0
 14 22  1  0  0  0  0
 15 22  1  0  0  0  0
 16 22  1  0  0  0  0
 17 23  1  0  0  0  0
 18 23  1  0  0  0  0
 19 23  1  0  0  0  0
 20 22  1  0  0  0  0
 20 24  1  0  0  0  0
 20 25  1  0  0  0  0
 21 23  1  0  0  0  0
 21 26  1  0  0  0  0
 21 27  1  0  0  0  0
M  CHG  8   1  -1   2  -1   3  -1   4  -1   5  -1   6  -1  14   1  15   1
M  CHG  4  16   1  17   1  18   1  19   1
M  END
> <PUBCHEM_COMPOUND_CID>
141931

> <PUBCHEM_CONFORMER_RMSD>
1

> <PUBCHEM_CONFORMER_DIVERSEORDER>
1
2

> <PUBCHEM_MMFF94_PARTIAL_CHARGES>
24
1 -0.52
10 -0.52
11 -0.52
12 -0.52
13 -0.9
14 0.8
15 0.8
16 0.8
17 0.8
18 0.8
19 0.8
2 -0.52
20 0.27
21 0.27
22 0.72
23 0.72
28 0.36
3 -0.52
4 -0.52
5 -0.52
6 -0.52
7 -0.52
8 -0.52
9 -0.52

> <PUBCHEM_EFFECTIVE_ROTOR_COUNT>
10

> <PUBCHEM_PHARMACOPHORE_FEATURES>
20
1 1 acceptor
1 1 anion
1 10 acceptor
1 11 acceptor
1 12 acceptor
1 13 cation
1 13 donor
1 2 acceptor
1 2 anion
1 3 acceptor
1 3 anion
1 4 acceptor
1 4 anion
1 5 acceptor
1 5 anion
1 6 acceptor
1 6 anion
1 7 acceptor
1 8 acceptor
1 9 acceptor

> <PUBCHEM_HEAVY_ATOM_COUNT>
23

> <PUBCHEM_ATOM_DEF_STEREO_COUNT>
0

> <PUBCHEM_ATOM_UDEF_STEREO_COUNT>
0

> <PUBCHEM_BOND_DEF_STEREO_COUNT>
0

> <PUBCHEM_BOND_UDEF_STEREO_COUNT>
0

> <PUBCHEM_ISOTOPIC_ATOM_COUNT>
0

> <PUBCHEM_COMPONENT_COUNT>
1

> <PUBCHEM_CACTVS_TAUTO_COUNT>
1

> <PUBCHEM_CONFORMER_ID>
00022A6B00000001

> <PUBCHEM_MMFF94_ENERGY>
68.2604

> <PUBCHEM_FEATURE_SELFOVERLAP>
102.036

> <PUBCHEM_SHAPE_FINGERPRINT>
10922523 26 18338235946928970116
12173636 292 17418100893009225867
12403814 3 18408042922939210193
12553582 1 18340773735888659069
12633257 1 18410574028101124206
13224815 77 18410855507372802082
13296908 3 18337112258940860475
14178342 30 17846215591758351034
14289901 80 18410856559639789594
15375358 24 15769776857458723843
18186145 218 17775570823080673730
19078846 21 17604707755633352928
200 152 15791728616288056579
20645477 56 18342730793845917529
23557571 272 18272365365113824704
312423 11 17603313643307882352
3286 77 16732700553952546080

> <PUBCHEM_SHAPE_MULTIPOLES>
368.03
8.93
1.85
1.81
0.01
0
-0.23
0
-1.64
0
0.79
0
0
-0.13

> <PUBCHEM_SHAPE_SELFOVERLAP>
736.273

> <PUBCHEM_SHAPE_VOLUME>
204.6

> <PUBCHEM_COORDINATE_TYPE>
2
5
10

$$$$
