138204
  -OEChem-11012401223D

 25 25  0     0  0  0  0  0  0999 V2000
   -2.6865    1.7650    0.0004 O   0  0  0  0  0  0  0  0  0  0  0  0
    1.9684    0.3112   -0.0001 C   0  0  0  0  0  0  0  0  0  0  0  0
    0.5107   -0.0135   -0.0002 C   0  0  0  0  0  0  0  0  0  0  0  0
    0.0710   -1.3373   -0.0003 C   0  0  0  0  0  0  0  0  0  0  0  0
    2.4035    1.0804    1.2619 C   0  0  0  0  0  0  0  0  0  0  0  0
    2.4037    1.0813   -1.2617 C   0  0  0  0  0  0  0  0  0  0  0  0
   -0.4159    1.0293    0.0000 C   0  0  0  0  0  0  0  0  0  0  0  0
   -1.2951   -1.6185   -0.0002 C   0  0  0  0  0  0  0  0  0  0  0  0
    1.0442   -2.4700    0.0003 C   0  0  0  0  0  0  0  0  0  0  0  0
   -1.7822    0.7480    0.0000 C   0  0  0  0  0  0  0  0  0  0  0  0
   -2.2217   -0.5759   -0.0002 C   0  0  0  0  0  0  0  0  0  0  0  0
    2.5759   -0.5985   -0.0004 H   0  0  0  0  0  0  0  0  0  0  0  0
    1.9398    2.0711    1.3187 H   0  0  0  0  0  0  0  0  0  0  0  0
    3.4898    1.2216    1.2708 H   0  0  0  0  0  0  0  0  0  0  0  0
    2.1290    0.5280    2.1675 H   0  0  0  0  0  0  0  0  0  0  0  0
    2.1292    0.5294   -2.1676 H   0  0  0  0  0  0  0  0  0  0  0  0
    3.4901    1.2224   -1.2702 H   0  0  0  0  0  0  0  0  0  0  0  0
    1.9400    2.0719   -1.3178 H   0  0  0  0  0  0  0  0  0  0  0  0
   -0.0916    2.0667    0.0002 H   0  0  0  0  0  0  0  0  0  0  0  0
   -1.6551   -2.6440   -0.0002 H   0  0  0  0  0  0  0  0  0  0  0  0
    1.6703   -2.4465    0.8983 H   0  0  0  0  0  0  0  0  0  0  0  0
    0.5309   -3.4385    0.0004 H   0  0  0  0  0  0  0  0  0  0  0  0
    1.6708   -2.4470   -0.8974 H   0  0  0  0  0  0  0  0  0  0  0  0
   -3.2833   -0.8081   -0.0001 H   0  0  0  0  0  0  0  0  0  0  0  0
   -3.5836    1.3890    0.0004 H   0  0  0  0  0  0  0  0  0  0  0  0
  1 10  1  0  0  0  0
  1 25  1  0  0  0  0
  2  3  1  0  0  0  0
  2  5  1  0  0  0  0
  2  6  1  0  0  0  0
  2 12  1  0  0  0  0
  3  4  2  0  0  0  0
  3  7  1  0  0  0  0
  4  8  1  0  0  0  0
  4  9  1  0  0  0  0
  5 13  1  0  0  0  0
  5 14  1  0  0  0  0
  5 15  1  0  0  0  0
  6 16  1  0  0  0  0
  6 17  1  0  0  0  0
  6 18  1  0  0  0  0
  7 10  2  0  0  0  0
  7 19  1  0  0  0  0
  8 11  2  0  0  0  0
  8 20  1  0  0  0  0
  9 21  1  0  0  0  0
  9 22  1  0  0  0  0
  9 23  1  0  0  0  0
 10 11  1  0  0  0  0
 11 24  1  0  0  0  0
M  END
> <PUBCHEM_COMPOUND_CID>
138204

> <PUBCHEM_CONFORMER_RMSD>
0.4

> <PUBCHEM_CONFORMER_DIVERSEORDER>
1
2

> <PUBCHEM_MMFF94_PARTIAL_CHARGES>
13
1 -0.53
10 0.08
11 -0.15
19 0.15
2 0.14
20 0.15
24 0.15
25 0.45
3 -0.14
4 -0.14
7 -0.15
8 -0.15
9 0.14

> <PUBCHEM_EFFECTIVE_ROTOR_COUNT>
1

> <PUBCHEM_PHARMACOPHORE_FEATURES>
3
1 1 donor
3 2 5 6 hydrophobe
6 3 4 7 8 10 11 rings

> <PUBCHEM_HEAVY_ATOM_COUNT>
11

> <PUBCHEM_ATOM_DEF_STEREO_COUNT>
0

> <PUBCHEM_ATOM_UDEF_STEREO_COUNT>
0

> <PUBCHEM_BOND_DEF_STEREO_COUNT>
0

> <PUBCHEM_BOND_UDEF_STEREO_COUNT>
0

> <PUBCHEM_ISOTOPIC_ATOM_COUNT>
0

> <PUBCHEM_COMPONENT_COUNT>
1

> <PUBCHEM_CACTVS_TAUTO_COUNT>
9

> <PUBCHEM_CONFORMER_ID>
00021BDC00000001

> <PUBCHEM_MMFF94_ENERGY>
28.2896

> <PUBCHEM_FEATURE_SELFOVERLAP>
15.223

> <PUBCHEM_SHAPE_FINGERPRINT>
12423570 1 8672221252033195546
12716758 59 18269562791816138654
13380535 21 18339097990221190699
13380535 76 18337100190388908675
16945 1 18266458887438888935
193761 8 18338516339927824231
20511035 2 18267862787662394287
20645464 45 17845088657112315856
20871998 184 17839463637097402862
21040471 1 18410856563966437856
21501502 16 18338517435181219603
23211744 41 17773587407246691064
23552423 10 18334580092310419487
23559900 14 18201449052341846948
241688 4 16466994438037180995
2748010 2 18337394829530026479
369184 2 18059005223922166490
5084963 1 18129114470486578076
53812653 8 18117567442347786308
7364860 26 18128250086827980614
81228 2 17693659629099596530

> <PUBCHEM_SHAPE_MULTIPOLES>
220.51
3.59
2.19
0.91
0.27
1.06
0
-1.66
0
-0.43
0
0.74
-0.25
0

> <PUBCHEM_SHAPE_SELFOVERLAP>
451.241

> <PUBCHEM_SHAPE_VOLUME>
129.4

> <PUBCHEM_COORDINATE_TYPE>
2
5
10

$$$$
