68185
  -OEChem-11012400383D

 23 22  0     0  0  0  0  0  0999 V2000
   -2.4216    0.1479   -0.2673 O   0  0  0  0  0  0  0  0  0  0  0  0
    2.4086   -0.1484   -0.2431 O   0  0  0  0  0  0  0  0  0  0  0  0
   -1.2983    0.0696    1.6945 O   0  0  0  0  0  0  0  0  0  0  0  0
    1.2660   -0.0647    1.7074 O   0  0  0  0  0  0  0  0  0  0  0  0
   -0.0059    0.0001   -0.3897 C   0  0  0  0  0  0  0  0  0  0  0  0
   -0.0902   -1.2906   -1.2538 C   0  0  0  0  0  0  0  0  0  0  0  0
    0.0872    1.2892   -1.2553 C   0  0  0  0  0  0  0  0  0  0  0  0
   -1.2824    0.0677    0.4694 C   0  0  0  0  0  0  0  0  0  0  0  0
    1.2622   -0.0656    0.4822 C   0  0  0  0  0  0  0  0  0  0  0  0
   -0.1223   -2.5996   -0.4709 C   0  0  0  0  0  0  0  0  0  0  0  0
    0.1968    2.5944   -0.4734 C   0  0  0  0  0  0  0  0  0  0  0  0
   -0.9807   -1.2512   -1.8940 H   0  0  0  0  0  0  0  0  0  0  0  0
    0.7678   -1.3273   -1.9373 H   0  0  0  0  0  0  0  0  0  0  0  0
   -0.7926    1.3562   -1.9081 H   0  0  0  0  0  0  0  0  0  0  0  0
    0.9529    1.2206   -1.9266 H   0  0  0  0  0  0  0  0  0  0  0  0
   -0.1858   -3.4455   -1.1633 H   0  0  0  0  0  0  0  0  0  0  0  0
   -0.9899   -2.6485    0.1936 H   0  0  0  0  0  0  0  0  0  0  0  0
    0.7822   -2.7310    0.1303 H   0  0  0  0  0  0  0  0  0  0  0  0
    1.1030    2.6230    0.1387 H   0  0  0  0  0  0  0  0  0  0  0  0
    0.2390    3.4409   -1.1667 H   0  0  0  0  0  0  0  0  0  0  0  0
   -0.6676    2.7433    0.1806 H   0  0  0  0  0  0  0  0  0  0  0  0
   -3.2202    0.1991    0.2998 H   0  0  0  0  0  0  0  0  0  0  0  0
    3.2016   -0.1987    0.3319 H   0  0  0  0  0  0  0  0  0  0  0  0
  1  8  1  0  0  0  0
  1 22  1  0  0  0  0
  2  9  1  0  0  0  0
  2 23  1  0  0  0  0
  3  8  2  0  0  0  0
  4  9  2  0  0  0  0
  5  6  1  0  0  0  0
  5  7  1  0  0  0  0
  5  8  1  0  0  0  0
  5  9  1  0  0  0  0
  6 10  1  0  0  0  0
  6 12  1  0  0  0  0
  6 13  1  0  0  0  0
  7 11  1  0  0  0  0
  7 14  1  0  0  0  0
  7 15  1  0  0  0  0
 10 16  1  0  0  0  0
 10 17  1  0  0  0  0
 10 18  1  0  0  0  0
 11 19  1  0  0  0  0
 11 20  1  0  0  0  0
 11 21  1  0  0  0  0
M  END
> <PUBCHEM_COMPOUND_CID>
68185

> <PUBCHEM_CONFORMER_RMSD>
0.6

> <PUBCHEM_CONFORMER_DIVERSEORDER>
1
6
9
11
5
4
12
13
2
3
8
7
10

> <PUBCHEM_MMFF94_PARTIAL_CHARGES>
9
1 -0.65
2 -0.65
22 0.5
23 0.5
3 -0.57
4 -0.57
5 0.12
8 0.66
9 0.66

> <PUBCHEM_EFFECTIVE_ROTOR_COUNT>
4

> <PUBCHEM_PHARMACOPHORE_FEATURES>
8
1 1 acceptor
1 10 hydrophobe
1 11 hydrophobe
1 2 acceptor
1 3 acceptor
1 4 acceptor
3 1 3 8 anion
3 2 4 9 anion

> <PUBCHEM_HEAVY_ATOM_COUNT>
11

> <PUBCHEM_ATOM_DEF_STEREO_COUNT>
0

> <PUBCHEM_ATOM_UDEF_STEREO_COUNT>
0

> <PUBCHEM_BOND_DEF_STEREO_COUNT>
0

> <PUBCHEM_BOND_UDEF_STEREO_COUNT>
0

> <PUBCHEM_ISOTOPIC_ATOM_COUNT>
0

> <PUBCHEM_COMPONENT_COUNT>
1

> <PUBCHEM_CACTVS_TAUTO_COUNT>
1

> <PUBCHEM_CONFORMER_ID>
00010A5900000001

> <PUBCHEM_MMFF94_ENERGY>
17.4517

> <PUBCHEM_FEATURE_SELFOVERLAP>
40.732

> <PUBCHEM_SHAPE_FINGERPRINT>
10219947 1 18410299090396966877
12423570 1 11556376243281490607
13024252 1 16372666489460530058
137420 1 12588100204793396727
14993402 34 18410855507378077292
16945 1 18337680809536884568
3250762 1 17546164104050309598
5084963 1 17989487415744860789
68250623 7 17472452178967955358

> <PUBCHEM_SHAPE_MULTIPOLES>
202.9
2.29
2
1.43
0
0.04
0.43
-0.05
-0.96
0
0.43
0
0
-0.04

> <PUBCHEM_SHAPE_SELFOVERLAP>
392.573

> <PUBCHEM_SHAPE_VOLUME>
122.6

> <PUBCHEM_COORDINATE_TYPE>
2
5
10

$$$$
