140540
  -OEChem-11012401233D

 23 23  0     1  0  0  0  0  0999 V2000
    0.8383    0.6102    1.4047 O   0  0  0  0  0  0  0  0  0  0  0  0
    1.4426   -1.7677    0.0154 O   0  0  0  0  0  0  0  0  0  0  0  0
    0.6861    0.5399   -0.0174 C   0  0  1  0  0  0  0  0  0  0  0  0
    0.3893   -0.9157   -0.4284 C   0  0  2  0  0  0  0  0  0  0  0  0
   -0.4904    1.4511   -0.4049 C   0  0  0  0  0  0  0  0  0  0  0  0
   -0.9359   -1.4163    0.1509 C   0  0  0  0  0  0  0  0  0  0  0  0
   -1.8225    0.9482    0.1574 C   0  0  0  0  0  0  0  0  0  0  0  0
   -2.0933   -0.5016   -0.2332 C   0  0  0  0  0  0  0  0  0  0  0  0
    1.9858    1.0518   -0.6445 C   0  0  0  0  0  0  0  0  0  0  0  0
    0.3533   -0.9841   -1.5231 H   0  0  0  0  0  0  0  0  0  0  0  0
   -0.5662    1.5196   -1.4975 H   0  0  0  0  0  0  0  0  0  0  0  0
   -0.3215    2.4666   -0.0252 H   0  0  0  0  0  0  0  0  0  0  0  0
   -0.8633   -1.4946    1.2432 H   0  0  0  0  0  0  0  0  0  0  0  0
   -1.1336   -2.4352   -0.2039 H   0  0  0  0  0  0  0  0  0  0  0  0
   -2.6367    1.5847   -0.2072 H   0  0  0  0  0  0  0  0  0  0  0  0
   -1.8187    1.0365    1.2508 H   0  0  0  0  0  0  0  0  0  0  0  0
   -3.0139   -0.8480    0.2497 H   0  0  0  0  0  0  0  0  0  0  0  0
   -2.2596   -0.5609   -1.3160 H   0  0  0  0  0  0  0  0  0  0  0  0
    2.8469    0.4595   -0.3159 H   0  0  0  0  0  0  0  0  0  0  0  0
    1.9426    1.0242   -1.7380 H   0  0  0  0  0  0  0  0  0  0  0  0
    2.1868    2.0830   -0.3319 H   0  0  0  0  0  0  0  0  0  0  0  0
    1.5470   -0.0062    1.6570 H   0  0  0  0  0  0  0  0  0  0  0  0
    1.2325   -2.6709   -0.2773 H   0  0  0  0  0  0  0  0  0  0  0  0
  1  3  1  0  0  0  0
  1 22  1  0  0  0  0
  2  4  1  0  0  0  0
  2 23  1  0  0  0  0
  3  4  1  0  0  0  0
  3  5  1  0  0  0  0
  3  9  1  0  0  0  0
  4  6  1  0  0  0  0
  4 10  1  0  0  0  0
  5  7  1  0  0  0  0
  5 11  1  0  0  0  0
  5 12  1  0  0  0  0
  6  8  1  0  0  0  0
  6 13  1  0  0  0  0
  6 14  1  0  0  0  0
  7  8  1  0  0  0  0
  7 15  1  0  0  0  0
  7 16  1  0  0  0  0
  8 17  1  0  0  0  0
  8 18  1  0  0  0  0
  9 19  1  0  0  0  0
  9 20  1  0  0  0  0
  9 21  1  0  0  0  0
M  END
> <PUBCHEM_COMPOUND_CID>
140540

> <PUBCHEM_CONFORMER_RMSD>
0.4

> <PUBCHEM_CONFORMER_DIVERSEORDER>
5
2
6
7
4
8
1
3

> <PUBCHEM_MMFF94_PARTIAL_CHARGES>
6
1 -0.68
2 -0.68
22 0.4
23 0.4
3 0.28
4 0.28

> <PUBCHEM_EFFECTIVE_ROTOR_COUNT>
1.2

> <PUBCHEM_PHARMACOPHORE_FEATURES>
5
1 1 acceptor
1 1 donor
1 2 acceptor
1 2 donor
6 3 4 5 6 7 8 rings

> <PUBCHEM_HEAVY_ATOM_COUNT>
9

> <PUBCHEM_ATOM_DEF_STEREO_COUNT>
0

> <PUBCHEM_ATOM_UDEF_STEREO_COUNT>
2

> <PUBCHEM_BOND_DEF_STEREO_COUNT>
0

> <PUBCHEM_BOND_UDEF_STEREO_COUNT>
0

> <PUBCHEM_ISOTOPIC_ATOM_COUNT>
0

> <PUBCHEM_COMPONENT_COUNT>
1

> <PUBCHEM_CACTVS_TAUTO_COUNT>
1

> <PUBCHEM_CONFORMER_ID>
000224FC00000005

> <PUBCHEM_MMFF94_ENERGY>
15.3401

> <PUBCHEM_FEATURE_SELFOVERLAP>
25.378

> <PUBCHEM_SHAPE_FINGERPRINT>
12423570 1 12733982655773366077
14128692 85 18269281153467407046
16714656 1 18121789592631223364
16945 1 18410861000651882437
18185500 45 18266739262993545335
21040471 1 18411696612504321269
23235685 24 18337109093919312933
23552423 10 18333735684507266350
241688 4 18265048033779382697
24536 1 18262224573765839277
2748010 2 18337392647612585815
29004967 10 18187942719154922265
5084963 1 18268138773855244045

> <PUBCHEM_SHAPE_MULTIPOLES>
173.48
2.42
1.77
0.86
0.2
0.42
0.2
-0.26
-0.24
-0.1
-0.09
-0.2
-0.12
-0.07

> <PUBCHEM_SHAPE_SELFOVERLAP>
339.558

> <PUBCHEM_SHAPE_VOLUME>
104.2

> <PUBCHEM_COORDINATE_TYPE>
2
5
10

$$$$
