5463389
  -OEChem-11012401243D

 30 32  0     0  0  0  0  0  0999 V2000
   -2.7646    1.1127   -2.3588 Cl  0  0  0  0  0  0  0  0  0  0  0  0
    1.9026   -1.0250   -0.1531 N   0  0  0  0  0  0  0  0  0  0  0  0
    1.7757    1.1401    0.3330 N   0  0  0  0  0  0  0  0  0  0  0  0
   -1.2060   -2.5943   -0.4114 N   0  0  0  0  0  0  0  0  0  0  0  0
    3.2006   -0.5865   -0.0935 C   0  0  0  0  0  0  0  0  0  0  0  0
    3.0946    0.7678    0.2113 C   0  0  0  0  0  0  0  0  0  0  0  0
    1.0892    0.0422    0.1087 C   0  0  0  0  0  0  0  0  0  0  0  0
   -0.2973   -0.1860    0.0981 C   0  0  0  0  0  0  0  0  0  0  0  0
    4.4209   -1.2383   -0.2743 C   0  0  0  0  0  0  0  0  0  0  0  0
    4.2655    1.5327    0.3472 C   0  0  0  0  0  0  0  0  0  0  0  0
   -2.7176    0.4965    0.3066 C   0  0  0  0  0  0  0  0  0  0  0  0
   -1.2738    0.7722    0.3327 C   0  0  0  0  0  0  0  0  0  0  0  0
    5.5760   -0.4618   -0.1351 C   0  0  0  0  0  0  0  0  0  0  0  0
    5.5019    0.8992    0.1700 C   0  0  0  0  0  0  0  0  0  0  0  0
   -3.4664    0.6233   -0.8560 C   0  0  0  0  0  0  0  0  0  0  0  0
   -3.3135    0.0998    1.4975 C   0  0  0  0  0  0  0  0  0  0  0  0
   -4.8339    0.3492   -0.8280 C   0  0  0  0  0  0  0  0  0  0  0  0
   -4.6809   -0.1743    1.5255 C   0  0  0  0  0  0  0  0  0  0  0  0
   -5.4410   -0.0497    0.3627 C   0  0  0  0  0  0  0  0  0  0  0  0
   -0.8317   -1.5198   -0.1831 C   0  0  0  0  0  0  0  0  0  0  0  0
    1.6250   -1.9763   -0.3570 H   0  0  0  0  0  0  0  0  0  0  0  0
    4.4759   -2.2948   -0.5112 H   0  0  0  0  0  0  0  0  0  0  0  0
    4.2185    2.5908    0.5843 H   0  0  0  0  0  0  0  0  0  0  0  0
   -0.9930    1.7998    0.5496 H   0  0  0  0  0  0  0  0  0  0  0  0
    6.5496   -0.9273   -0.2672 H   0  0  0  0  0  0  0  0  0  0  0  0
    6.4172    1.4765    0.2718 H   0  0  0  0  0  0  0  0  0  0  0  0
   -2.7359   -0.0013    2.4130 H   0  0  0  0  0  0  0  0  0  0  0  0
   -5.4411    0.4410   -1.7251 H   0  0  0  0  0  0  0  0  0  0  0  0
   -5.1538   -0.4848    2.4526 H   0  0  0  0  0  0  0  0  0  0  0  0
   -6.5056   -0.2633    0.3846 H   0  0  0  0  0  0  0  0  0  0  0  0
  1 15  1  0  0  0  0
  2  5  1  0  0  0  0
  2  7  1  0  0  0  0
  2 21  1  0  0  0  0
  3  6  1  0  0  0  0
  3  7  2  0  0  0  0
  4 20  3  0  0  0  0
  5  6  1  0  0  0  0
  5  9  2  0  0  0  0
  6 10  2  0  0  0  0
  7  8  1  0  0  0  0
  8 12  2  0  0  0  0
  8 20  1  0  0  0  0
  9 13  1  0  0  0  0
  9 22  1  0  0  0  0
 10 14  1  0  0  0  0
 10 23  1  0  0  0  0
 11 12  1  0  0  0  0
 11 15  1  0  0  0  0
 11 16  2  0  0  0  0
 12 24  1  0  0  0  0
 13 14  2  0  0  0  0
 13 25  1  0  0  0  0
 14 26  1  0  0  0  0
 15 17  2  0  0  0  0
 16 18  1  0  0  0  0
 16 27  1  0  0  0  0
 17 19  1  0  0  0  0
 17 28  1  0  0  0  0
 18 19  2  0  0  0  0
 18 29  1  0  0  0  0
 19 30  1  0  0  0  0
M  END
> <PUBCHEM_COMPOUND_CID>
5463389

> <PUBCHEM_CONFORMER_RMSD>
0.6

> <PUBCHEM_CONFORMER_DIVERSEORDER>
1
3
4
5
2

> <PUBCHEM_MMFF94_PARTIAL_CHARGES>
30
1 -0.18
10 -0.15
11 0.03
12 -0.18
13 -0.15
14 -0.15
15 0.18
16 -0.15
17 -0.15
18 -0.15
19 -0.15
2 0.03
20 0.49
21 0.27
22 0.15
23 0.15
24 0.15
25 0.15
26 0.15
27 0.15
28 0.15
29 0.15
3 -0.57
30 0.15
4 -0.56
5 -0.15
6 0.23
7 0.14
8 0.11
9 -0.15

> <PUBCHEM_EFFECTIVE_ROTOR_COUNT>
2

> <PUBCHEM_PHARMACOPHORE_FEATURES>
6
1 2 donor
1 4 acceptor
3 2 3 7 cation
5 2 3 5 6 7 rings
6 11 15 16 17 18 19 rings
6 5 6 9 10 13 14 rings

> <PUBCHEM_HEAVY_ATOM_COUNT>
20

> <PUBCHEM_ATOM_DEF_STEREO_COUNT>
0

> <PUBCHEM_ATOM_UDEF_STEREO_COUNT>
0

> <PUBCHEM_BOND_DEF_STEREO_COUNT>
1

> <PUBCHEM_BOND_UDEF_STEREO_COUNT>
0

> <PUBCHEM_ISOTOPIC_ATOM_COUNT>
0

> <PUBCHEM_COMPONENT_COUNT>
1

> <PUBCHEM_CACTVS_TAUTO_COUNT>
1

> <PUBCHEM_CONFORMER_ID>
00535D5D00000001

> <PUBCHEM_MMFF94_ENERGY>
50.8609

> <PUBCHEM_FEATURE_SELFOVERLAP>
30.553

> <PUBCHEM_SHAPE_FINGERPRINT>
10 15 18040991899962195344
10366900 7 16587745343325323681
10912923 1 17275385399930107984
11089746 13 17203608207786475952
12107183 9 16696418667274736554
12236239 1 17275105020106929545
12403259 415 18333726901336225285
12616971 3 17704349961860745004
13167823 11 16415477138571398020
13533116 47 17561086861348315498
13583140 156 17748821925511432809
13675066 3 17967534584170671250
13760787 5 18131350804060006296
14573314 32 17167861924440687530
15788980 27 18187081758848542432
15961568 22 16371297743814116180
16988056 13 12915823715812252423
17349148 13 17917710180414165706
17844677 252 18335988596833915516
19433438 28 17821445759664320028
19489759 90 16515684433699029145
200 152 17988922254052217161
204376 136 18412829096696489291
20645477 56 18334571382396045292
20645477 70 18341050718904604006
21033648 144 18058435659988777780
21033648 29 18335122198745712489
21033650 10 15576128537908713700
21236236 1 18271806891002168207
21267235 1 18342748377847981634
22224240 67 18410863170612921067
2297311 6 17095813148313457709
23402539 116 17775566416339006073
23536379 177 15626510471248586776
23557571 272 17458912526790890389
23559900 14 18131064987667808328
34797466 226 16950581968535578646
3545911 37 18412265056232532616
5104073 3 18269832168229050226
542803 24 17060340721083698032
59755656 520 18131072636567004719
633830 44 18059300842352880911
69090 78 18342738524386078010

> <PUBCHEM_SHAPE_MULTIPOLES>
398.52
13.12
1.53
1.27
5.47
0.52
0.3
-1.49
-1.15
0.47
0.4
-1.84
-0.31
1.18

> <PUBCHEM_SHAPE_SELFOVERLAP>
874.126

> <PUBCHEM_SHAPE_VOLUME>
214

> <PUBCHEM_COORDINATE_TYPE>
2
5
10

$$$$
