71467060
  -OEChem-11012401183D

 31 33  0     0  0  0  0  0  0999 V2000
    2.7829   -0.2700    0.5655 O   0  0  0  0  0  0  0  0  0  0  0  0
   -0.8062    3.8377   -0.2556 O   0  0  0  0  0  0  0  0  0  0  0  0
    0.7920   -1.9143    0.4639 O   0  0  0  0  0  0  0  0  0  0  0  0
   -2.6844    2.0644   -0.3345 O   0  0  0  0  0  0  0  0  0  0  0  0
    0.4815    0.4152    0.2149 C   0  0  0  0  0  0  0  0  0  0  0  0
   -0.4271    1.4549    0.0069 C   0  0  0  0  0  0  0  0  0  0  0  0
   -1.4256   -1.2692    0.1267 C   0  0  0  0  0  0  0  0  0  0  0  0
   -2.3343   -0.2294   -0.0814 C   0  0  0  0  0  0  0  0  0  0  0  0
    0.0155   -0.9849    0.2824 C   0  0  0  0  0  0  0  0  0  0  0  0
   -1.8681    1.1705   -0.1496 C   0  0  0  0  0  0  0  0  0  0  0  0
    1.8449    0.6981    0.3605 C   0  0  0  0  0  0  0  0  0  0  0  0
    0.0276    2.7778   -0.0547 C   0  0  0  0  0  0  0  0  0  0  0  0
   -1.8803   -2.5919    0.1887 C   0  0  0  0  0  0  0  0  0  0  0  0
   -3.6977   -0.5123   -0.2272 C   0  0  0  0  0  0  0  0  0  0  0  0
    2.2938    2.0177    0.2984 C   0  0  0  0  0  0  0  0  0  0  0  0
    1.3870    3.0552    0.0912 C   0  0  0  0  0  0  0  0  0  0  0  0
   -3.2397   -2.8694    0.0425 C   0  0  0  0  0  0  0  0  0  0  0  0
   -4.1464   -1.8319   -0.1649 C   0  0  0  0  0  0  0  0  0  0  0  0
    3.8189   -0.3831   -0.4076 C   0  0  0  0  0  0  0  0  0  0  0  0
    4.3248   -1.7551   -0.4605 C   0  0  0  0  0  0  0  0  0  0  0  0
    4.7410   -2.8801   -0.5056 C   0  0  0  0  0  0  0  0  0  0  0  0
   -1.1950   -3.4198    0.3495 H   0  0  0  0  0  0  0  0  0  0  0  0
   -4.4261    0.2775   -0.3899 H   0  0  0  0  0  0  0  0  0  0  0  0
    3.3463    2.2584    0.4215 H   0  0  0  0  0  0  0  0  0  0  0  0
    1.7469    4.0798    0.0469 H   0  0  0  0  0  0  0  0  0  0  0  0
   -3.5918   -3.8958    0.0906 H   0  0  0  0  0  0  0  0  0  0  0  0
   -5.2043   -2.0507   -0.2783 H   0  0  0  0  0  0  0  0  0  0  0  0
   -1.7245    3.5409   -0.3418 H   0  0  0  0  0  0  0  0  0  0  0  0
    3.4494   -0.0981   -1.4010 H   0  0  0  0  0  0  0  0  0  0  0  0
    4.6336    0.2976   -0.1359 H   0  0  0  0  0  0  0  0  0  0  0  0
    5.1099   -3.8783   -0.5455 H   0  0  0  0  0  0  0  0  0  0  0  0
  1 11  1  0  0  0  0
  1 19  1  0  0  0  0
  2 12  1  0  0  0  0
  2 28  1  0  0  0  0
  3  9  2  0  0  0  0
  4 10  2  0  0  0  0
  5  6  1  0  0  0  0
  5  9  1  0  0  0  0
  5 11  2  0  0  0  0
  6 10  1  0  0  0  0
  6 12  2  0  0  0  0
  7  8  1  0  0  0  0
  7  9  1  0  0  0  0
  7 13  2  0  0  0  0
  8 10  1  0  0  0  0
  8 14  2  0  0  0  0
 11 15  1  0  0  0  0
 12 16  1  0  0  0  0
 13 17  1  0  0  0  0
 13 22  1  0  0  0  0
 14 18  1  0  0  0  0
 14 23  1  0  0  0  0
 15 16  2  0  0  0  0
 15 24  1  0  0  0  0
 16 25  1  0  0  0  0
 17 18  2  0  0  0  0
 17 26  1  0  0  0  0
 18 27  1  0  0  0  0
 19 20  1  0  0  0  0
 19 29  1  0  0  0  0
 19 30  1  0  0  0  0
 20 21  3  0  0  0  0
 21 31  1  0  0  0  0
M  END
> <PUBCHEM_COMPOUND_CID>
71467060

> <PUBCHEM_CONFORMER_RMSD>
0.6

> <PUBCHEM_CONFORMER_DIVERSEORDER>
1
2
3
6
7
4
5

> <PUBCHEM_MMFF94_PARTIAL_CHARGES>
29
1 -0.36
10 0.4
11 0.08
12 0.08
13 -0.15
14 -0.15
15 -0.15
16 -0.15
17 -0.15
18 -0.15
19 0.48
2 -0.53
20 -0.2
21 -0.18
22 0.15
23 0.15
24 0.15
25 0.15
26 0.15
27 0.15
28 0.45
3 -0.57
31 0.18
4 -0.57
5 0.09
6 0.09
7 0.09
8 0.09
9 0.4

> <PUBCHEM_EFFECTIVE_ROTOR_COUNT>
2

> <PUBCHEM_PHARMACOPHORE_FEATURES>
8
1 1 acceptor
1 2 donor
1 21 hydrophobe
1 3 acceptor
1 4 acceptor
6 5 6 11 12 15 16 rings
6 5 6 7 8 9 10 rings
6 7 8 13 14 17 18 rings

> <PUBCHEM_HEAVY_ATOM_COUNT>
21

> <PUBCHEM_ATOM_DEF_STEREO_COUNT>
0

> <PUBCHEM_ATOM_UDEF_STEREO_COUNT>
0

> <PUBCHEM_BOND_DEF_STEREO_COUNT>
0

> <PUBCHEM_BOND_UDEF_STEREO_COUNT>
0

> <PUBCHEM_ISOTOPIC_ATOM_COUNT>
0

> <PUBCHEM_COMPONENT_COUNT>
1

> <PUBCHEM_CACTVS_TAUTO_COUNT>
4

> <PUBCHEM_CONFORMER_ID>
0442803400000001

> <PUBCHEM_MMFF94_ENERGY>
70.1702

> <PUBCHEM_FEATURE_SELFOVERLAP>
40.65

> <PUBCHEM_SHAPE_FINGERPRINT>
10319926 262 18051946175665093858
10411042 1 18410575093274755650
10693767 8 17768782327065027127
10967382 1 17976817919599726353
1100329 8 18340492145021957409
11578080 2 17025960135018660740
116883 192 18411417327923982332
12403259 226 18410571825025702319
12553582 1 18336257955712970787
12839892 36 17693357250859616696
13140716 1 18411128147644509528
138480 1 14951810145894243116
14790565 3 17619920452381333336
14863182 85 17470735875576443814
14866123 147 18125445198458402987
15042514 8 18266464213029459603
15352361 1 18411982460064077702
15442244 35 18340208599970639129
15536298 74 18124877012823855089
15927050 60 17333650471455369477
16945 1 18336816494750673225
17492 89 18124032596574296335
19591789 44 18409732846151115931
20645477 70 18048867791487260447
21267235 1 17903923597308038955
21279426 13 18336254687901812983
21478907 32 18410857620502012450
221490 88 18192153912945340067
22182313 1 18266158677683198244
2334 1 18265046019160548745
23557571 272 17985552152651315854
23559900 14 18339918346138973048
23566358 2 18336256963622959244
2748010 2 18337939199064840360
335352 9 18410855439302126717
3421961 26 18341613788800351666
54173680 148 18338798905825825360
7364860 26 18051413173500118520
9709674 26 17975694201515632427

> <PUBCHEM_SHAPE_MULTIPOLES>
408.69
7.37
4.33
0.68
3
1.72
0
-7.43
-1.14
1
-0.32
0.13
-0.06
0.72

> <PUBCHEM_SHAPE_SELFOVERLAP>
912.925

> <PUBCHEM_SHAPE_VOLUME>
214.1

> <PUBCHEM_COORDINATE_TYPE>
2
5
10

$$$$
