70317
  -OEChem-11012401003D

 24 24  0     0  0  0  0  0  0999 V2000
    1.5904   -1.1895    0.9568 O   0  0  0  0  0  0  0  0  0  0  0  0
    0.6615    0.7356   -0.0189 N   0  0  0  0  0  0  0  0  0  0  0  0
    2.9216    0.1369   -0.3604 N   0  0  0  0  0  0  0  0  0  0  0  0
   -0.7129    0.2698   -0.0398 C   0  0  0  0  0  0  0  0  0  0  0  0
   -0.9467   -1.0224   -0.4219 C   0  0  0  0  0  0  0  0  0  0  0  0
   -1.6938    1.1504    0.3248 C   0  0  0  0  0  0  0  0  0  0  0  0
    0.9492    2.1556   -0.2751 C   0  0  0  0  0  0  0  0  0  0  0  0
    1.7080   -0.1860    0.2485 C   0  0  0  0  0  0  0  0  0  0  0  0
   -2.2676   -1.4702   -0.4410 C   0  0  0  0  0  0  0  0  0  0  0  0
   -3.0147    0.7026    0.3059 C   0  0  0  0  0  0  0  0  0  0  0  0
   -3.3015   -0.6077   -0.0770 C   0  0  0  0  0  0  0  0  0  0  0  0
    4.1066   -0.6751   -0.2019 C   0  0  0  0  0  0  0  0  0  0  0  0
   -0.1690   -1.7058   -0.7449 H   0  0  0  0  0  0  0  0  0  0  0  0
   -1.5098    2.1695    0.6417 H   0  0  0  0  0  0  0  0  0  0  0  0
    0.5388    2.4333   -1.2505 H   0  0  0  0  0  0  0  0  0  0  0  0
    2.0170    2.3819   -0.2571 H   0  0  0  0  0  0  0  0  0  0  0  0
    0.5037    2.7684    0.5134 H   0  0  0  0  0  0  0  0  0  0  0  0
   -2.4922   -2.4879   -0.7470 H   0  0  0  0  0  0  0  0  0  0  0  0
   -3.8202    1.3728    0.5920 H   0  0  0  0  0  0  0  0  0  0  0  0
   -4.3301   -0.9559   -0.0930 H   0  0  0  0  0  0  0  0  0  0  0  0
    2.9443    0.8479   -1.0828 H   0  0  0  0  0  0  0  0  0  0  0  0
    4.9778   -0.0786   -0.4818 H   0  0  0  0  0  0  0  0  0  0  0  0
    4.0226   -1.5441   -0.8593 H   0  0  0  0  0  0  0  0  0  0  0  0
    4.1971   -1.0091    0.8350 H   0  0  0  0  0  0  0  0  0  0  0  0
  1  8  2  0  0  0  0
  2  4  1  0  0  0  0
  2  7  1  0  0  0  0
  2  8  1  0  0  0  0
  3  8  1  0  0  0  0
  3 12  1  0  0  0  0
  3 21  1  0  0  0  0
  4  5  2  0  0  0  0
  4  6  1  0  0  0  0
  5  9  1  0  0  0  0
  5 13  1  0  0  0  0
  6 10  2  0  0  0  0
  6 14  1  0  0  0  0
  7 15  1  0  0  0  0
  7 16  1  0  0  0  0
  7 17  1  0  0  0  0
  9 11  2  0  0  0  0
  9 18  1  0  0  0  0
 10 11  1  0  0  0  0
 10 19  1  0  0  0  0
 11 20  1  0  0  0  0
 12 22  1  0  0  0  0
 12 23  1  0  0  0  0
 12 24  1  0  0  0  0
M  END
> <PUBCHEM_COMPOUND_CID>
70317

> <PUBCHEM_CONFORMER_RMSD>
0.6

> <PUBCHEM_CONFORMER_DIVERSEORDER>
1
3
4
2
5
6

> <PUBCHEM_MMFF94_PARTIAL_CHARGES>
18
1 -0.57
10 -0.15
11 -0.15
12 0.3
13 0.15
14 0.15
18 0.15
19 0.15
2 -0.48
20 0.15
21 0.37
3 -0.73
4 0.12
5 -0.15
6 -0.15
7 0.3
8 0.69
9 -0.15

> <PUBCHEM_EFFECTIVE_ROTOR_COUNT>
3

> <PUBCHEM_PHARMACOPHORE_FEATURES>
3
1 1 acceptor
1 3 donor
6 4 5 6 9 10 11 rings

> <PUBCHEM_HEAVY_ATOM_COUNT>
12

> <PUBCHEM_ATOM_DEF_STEREO_COUNT>
0

> <PUBCHEM_ATOM_UDEF_STEREO_COUNT>
0

> <PUBCHEM_BOND_DEF_STEREO_COUNT>
0

> <PUBCHEM_BOND_UDEF_STEREO_COUNT>
0

> <PUBCHEM_ISOTOPIC_ATOM_COUNT>
0

> <PUBCHEM_COMPONENT_COUNT>
1

> <PUBCHEM_CACTVS_TAUTO_COUNT>
2

> <PUBCHEM_CONFORMER_ID>
000112AD00000001

> <PUBCHEM_MMFF94_ENERGY>
45.3272

> <PUBCHEM_FEATURE_SELFOVERLAP>
15.223

> <PUBCHEM_SHAPE_FINGERPRINT>
10465860 71 18270139975370528148
12032990 46 18411707573303169118
12932764 1 17968085430579347717
13024252 1 16153428333658938573
13690532 89 18412824690149513135
14128692 85 18340769341994449941
14144814 61 18410853248362526723
14325111 11 18413390946826845057
14577589 140 17561080297836213598
14993402 34 18410852136092539213
15375462 189 18260268520973301386
15536298 74 18271807986113002144
15775835 57 18261395507644058457
16945 1 18409157814554670849
19422 9 18409455794974772510
207724 885 18410297990669165217
20871998 184 17917432072644609071
22445834 79 18407758127615364707
23402539 116 18201993292273053540
23463225 33 18338517435081064382
23552423 10 18191582158662045437
23559900 14 18059853931667870064
2748010 2 18048874388324470207
369184 2 14908177564728672495
5084963 1 18201720678098697969
7364860 26 18128535066556202584
75552 356 18272370858345133257

> <PUBCHEM_SHAPE_MULTIPOLES>
231.12
5.81
1.67
0.73
3.11
0.52
0.04
-1.53
-0.17
-0.15
-0.12
0.05
-0.07
-0.42

> <PUBCHEM_SHAPE_SELFOVERLAP>
472.097

> <PUBCHEM_SHAPE_VOLUME>
134.3

> <PUBCHEM_COORDINATE_TYPE>
2
5
10

$$$$
