95204
  -OEChem-11012401233D

 20 21  0     0  0  0  0  0  0999 V2000
    0.8693   -0.2478   -0.0479 N   0  0  0  0  0  0  0  0  0  0  0  0
    1.4945   -1.4132   -0.2841 N   0  0  0  0  0  0  0  0  0  0  0  0
    2.9944    0.2014    0.0527 N   0  0  0  0  0  0  0  0  0  0  0  0
    2.7904   -1.1320   -0.2216 N   0  0  0  0  0  0  0  0  0  0  0  0
   -0.5098   -0.1470   -0.0317 C   0  0  0  0  0  0  0  0  0  0  0  0
    1.7964    0.7293    0.1557 C   0  0  0  0  0  0  0  0  0  0  0  0
   -1.1261    1.0473   -0.4050 C   0  0  0  0  0  0  0  0  0  0  0  0
   -1.2845   -1.2397    0.3571 C   0  0  0  0  0  0  0  0  0  0  0  0
    1.4600    2.1347    0.4428 C   0  0  0  0  0  0  0  0  0  0  0  0
   -2.5172    1.1490   -0.3895 C   0  0  0  0  0  0  0  0  0  0  0  0
   -2.6756   -1.1382    0.3724 C   0  0  0  0  0  0  0  0  0  0  0  0
   -3.2919    0.0562   -0.0009 C   0  0  0  0  0  0  0  0  0  0  0  0
   -0.5962    1.8989   -0.8093 H   0  0  0  0  0  0  0  0  0  0  0  0
   -0.8327   -2.1805    0.6617 H   0  0  0  0  0  0  0  0  0  0  0  0
    2.3224    2.6101    0.9267 H   0  0  0  0  0  0  0  0  0  0  0  0
    1.2825    2.7043   -0.4735 H   0  0  0  0  0  0  0  0  0  0  0  0
    0.6309    2.2488    1.1463 H   0  0  0  0  0  0  0  0  0  0  0  0
   -2.9990    2.0713   -0.7011 H   0  0  0  0  0  0  0  0  0  0  0  0
   -3.2792   -1.9886    0.6759 H   0  0  0  0  0  0  0  0  0  0  0  0
   -4.3751    0.1336    0.0066 H   0  0  0  0  0  0  0  0  0  0  0  0
  1  2  1  0  0  0  0
  1  5  1  0  0  0  0
  1  6  1  0  0  0  0
  2  4  2  0  0  0  0
  3  4  1  0  0  0  0
  3  6  2  0  0  0  0
  5  7  2  0  0  0  0
  5  8  1  0  0  0  0
  6  9  1  0  0  0  0
  7 10  1  0  0  0  0
  7 13  1  0  0  0  0
  8 11  2  0  0  0  0
  8 14  1  0  0  0  0
  9 15  1  0  0  0  0
  9 16  1  0  0  0  0
  9 17  1  0  0  0  0
 10 12  2  0  0  0  0
 10 18  1  0  0  0  0
 11 12  1  0  0  0  0
 11 19  1  0  0  0  0
 12 20  1  0  0  0  0
M  END
> <PUBCHEM_COMPOUND_CID>
95204

> <PUBCHEM_CONFORMER_RMSD>
0.4

> <PUBCHEM_CONFORMER_DIVERSEORDER>
3
1
2

> <PUBCHEM_MMFF94_PARTIAL_CHARGES>
16
1 0.59
10 -0.15
11 -0.15
12 -0.15
13 0.15
14 0.15
18 0.15
19 0.15
2 -0.42
20 0.15
3 -0.34
5 -0.02
6 0.01
7 -0.15
8 -0.15
9 0.18

> <PUBCHEM_EFFECTIVE_ROTOR_COUNT>
1

> <PUBCHEM_PHARMACOPHORE_FEATURES>
3
3 1 3 6 cation
5 1 2 3 4 6 rings
6 5 7 8 10 11 12 rings

> <PUBCHEM_HEAVY_ATOM_COUNT>
12

> <PUBCHEM_ATOM_DEF_STEREO_COUNT>
0

> <PUBCHEM_ATOM_UDEF_STEREO_COUNT>
0

> <PUBCHEM_BOND_DEF_STEREO_COUNT>
0

> <PUBCHEM_BOND_UDEF_STEREO_COUNT>
0

> <PUBCHEM_ISOTOPIC_ATOM_COUNT>
0

> <PUBCHEM_COMPONENT_COUNT>
1

> <PUBCHEM_CACTVS_TAUTO_COUNT>
1

> <PUBCHEM_CONFORMER_ID>
000173E400000003

> <PUBCHEM_MMFF94_ENERGY>
34.9221

> <PUBCHEM_FEATURE_SELFOVERLAP>
15.223

> <PUBCHEM_SHAPE_FINGERPRINT>
10130415 120 18336824170025770034
10608611 8 18409725179518668805
10857977 72 18041276685835899433
12032990 46 18341619166141721190
12524768 44 18335416923996490621
12897270 3 18409728486643019039
12932764 1 18201161056533953919
14144814 61 18411138013220811219
14325111 11 18409166597583534037
14648413 74 18410009974415422168
15219456 202 18410853304123352481
16945 1 18411417315044277197
17844478 74 18187938291360144777
17990270 104 18410854386549874664
19973954 147 18410575106328157297
20201158 50 18411980252028543499
20871998 184 18341057431775093847
21501502 16 18338236071641387653
23402655 69 18342446007676210245
23552423 10 18113901597561094727
23559900 14 18194397798126120878
2748010 2 18336545035684961725
369184 2 18413107268974945267
5084963 1 17967535661954378485
6333449 129 18408037425207010999
7364860 26 18342459296020167460
8809292 202 18261117378183478378

> <PUBCHEM_SHAPE_MULTIPOLES>
227.03
4.9
1.75
0.67
0.24
0.37
-0.02
-0.32
-0.02
-0.4
-0.09
0.08
0.05
0.54

> <PUBCHEM_SHAPE_SELFOVERLAP>
487.244

> <PUBCHEM_SHAPE_VOLUME>
126.9

> <PUBCHEM_COORDINATE_TYPE>
2
5
10

$$$$
