142381
  -OEChem-11012400453D

 22 21  0     0  0  0  0  0  0999 V2000
   -1.5238    0.2367    0.4621 O   0  0  0  0  0  0  0  0  0  0  0  0
    2.2525   -0.0201    0.3454 C   0  0  0  0  0  0  0  0  0  0  0  0
    0.8287    0.1463    0.9007 C   0  0  0  0  0  0  0  0  0  0  0  0
    2.3833   -1.3765   -0.3515 C   0  0  0  0  0  0  0  0  0  0  0  0
    2.6336    1.0982   -0.6254 C   0  0  0  0  0  0  0  0  0  0  0  0
   -0.2595    0.0491   -0.1617 C   0  0  0  0  0  0  0  0  0  0  0  0
   -2.5418    0.1475   -0.4279 C   0  0  0  0  0  0  0  0  0  0  0  0
   -3.7729   -0.2812   -0.1417 C   0  0  0  0  0  0  0  0  0  0  0  0
    2.9487    0.0061    1.1929 H   0  0  0  0  0  0  0  0  0  0  0  0
    0.7445    1.1111    1.4174 H   0  0  0  0  0  0  0  0  0  0  0  0
    0.6423   -0.6117    1.6728 H   0  0  0  0  0  0  0  0  0  0  0  0
    3.4344   -1.5750   -0.5897 H   0  0  0  0  0  0  0  0  0  0  0  0
    1.8285   -1.4190   -1.2941 H   0  0  0  0  0  0  0  0  0  0  0  0
    2.0345   -2.1885    0.2952 H   0  0  0  0  0  0  0  0  0  0  0  0
    2.0475    1.0643   -1.5491 H   0  0  0  0  0  0  0  0  0  0  0  0
    3.6895    1.0148   -0.9050 H   0  0  0  0  0  0  0  0  0  0  0  0
    2.4887    2.0800   -0.1629 H   0  0  0  0  0  0  0  0  0  0  0  0
   -0.1123    0.8241   -0.9228 H   0  0  0  0  0  0  0  0  0  0  0  0
   -0.2466   -0.9355   -0.6427 H   0  0  0  0  0  0  0  0  0  0  0  0
   -2.2908    0.4747   -1.4285 H   0  0  0  0  0  0  0  0  0  0  0  0
   -4.5378   -0.3161   -0.9093 H   0  0  0  0  0  0  0  0  0  0  0  0
   -4.0340   -0.6030    0.8603 H   0  0  0  0  0  0  0  0  0  0  0  0
  1  6  1  0  0  0  0
  1  7  1  0  0  0  0
  2  3  1  0  0  0  0
  2  4  1  0  0  0  0
  2  5  1  0  0  0  0
  2  9  1  0  0  0  0
  3  6  1  0  0  0  0
  3 10  1  0  0  0  0
  3 11  1  0  0  0  0
  4 12  1  0  0  0  0
  4 13  1  0  0  0  0
  4 14  1  0  0  0  0
  5 15  1  0  0  0  0
  5 16  1  0  0  0  0
  5 17  1  0  0  0  0
  6 18  1  0  0  0  0
  6 19  1  0  0  0  0
  7  8  2  0  0  0  0
  7 20  1  0  0  0  0
  8 21  1  0  0  0  0
  8 22  1  0  0  0  0
M  END
> <PUBCHEM_COMPOUND_CID>
142381

> <PUBCHEM_CONFORMER_RMSD>
0.6

> <PUBCHEM_CONFORMER_DIVERSEORDER>
1
9
10
4
5
3
6
7
8
2

> <PUBCHEM_MMFF94_PARTIAL_CHARGES>
7
1 -0.36
20 0.15
21 0.15
22 0.15
6 0.28
7 -0.07
8 -0.3

> <PUBCHEM_EFFECTIVE_ROTOR_COUNT>
4

> <PUBCHEM_PHARMACOPHORE_FEATURES>
2
1 1 acceptor
3 2 4 5 hydrophobe

> <PUBCHEM_HEAVY_ATOM_COUNT>
8

> <PUBCHEM_ATOM_DEF_STEREO_COUNT>
0

> <PUBCHEM_ATOM_UDEF_STEREO_COUNT>
0

> <PUBCHEM_BOND_DEF_STEREO_COUNT>
0

> <PUBCHEM_BOND_UDEF_STEREO_COUNT>
0

> <PUBCHEM_ISOTOPIC_ATOM_COUNT>
0

> <PUBCHEM_COMPONENT_COUNT>
1

> <PUBCHEM_CACTVS_TAUTO_COUNT>
1

> <PUBCHEM_CONFORMER_ID>
00022C2D00000001

> <PUBCHEM_MMFF94_ENERGY>
13.6463

> <PUBCHEM_FEATURE_SELFOVERLAP>
10.148

> <PUBCHEM_SHAPE_FINGERPRINT>
11062470 55 16660358190940610357
12897270 3 17676487224536569147
12932741 1 17386020471751233594
12932764 1 17418085529626494793
14325111 11 18411135835957261039
14390081 3 16588019113162093845
15310529 11 18272086089102269365
170605 34 17895193358987751356
21293036 1 17967533497385709253
23552423 10 18268997483530292786
3248919 1 18409165506624826865
5460574 1 8935002585593912209

> <PUBCHEM_SHAPE_MULTIPOLES>
158.77
5.89
1.03
0.84
4.6
0.16
0.06
0.29
-0.93
-0.94
-0.19
-0.21
-0.05
-0.07

> <PUBCHEM_SHAPE_SELFOVERLAP>
282.638

> <PUBCHEM_SHAPE_VOLUME>
104.2

> <PUBCHEM_COORDINATE_TYPE>
2
5
10

$$$$
