137449
  -OEChem-11012401053D

 25 26  0     1  0  0  0  0  0999 V2000
    0.0508    0.5985    0.8050 C   0  0  1  0  0  0  0  0  0  0  0  0
    1.6566   -0.6246   -0.1359 C   0  0  1  0  0  0  0  0  0  0  0  0
   -0.7134   -0.6516    0.3081 C   0  0  2  0  0  0  0  0  0  0  0  0
    1.3762   -0.0316    1.2449 C   0  0  0  0  0  0  0  0  0  0  0  0
    0.3933   -1.4686   -0.3903 C   0  0  0  0  0  0  0  0  0  0  0  0
    0.5189    1.4822   -0.3637 C   0  0  0  0  0  0  0  0  0  0  0  0
    1.6029    0.6247   -1.0324 C   0  0  0  0  0  0  0  0  0  0  0  0
   -1.9192   -0.3813   -0.5772 C   0  0  0  0  0  0  0  0  0  0  0  0
   -2.9661    0.4523    0.1415 C   0  0  0  0  0  0  0  0  0  0  0  0
   -0.4696    1.1508    1.5905 H   0  0  0  0  0  0  0  0  0  0  0  0
    2.5858   -1.1899   -0.2291 H   0  0  0  0  0  0  0  0  0  0  0  0
   -1.0521   -1.2216    1.1852 H   0  0  0  0  0  0  0  0  0  0  0  0
    1.2591   -0.7901    2.0259 H   0  0  0  0  0  0  0  0  0  0  0  0
    2.1232    0.7053    1.5588 H   0  0  0  0  0  0  0  0  0  0  0  0
    0.2094   -1.6269   -1.4579 H   0  0  0  0  0  0  0  0  0  0  0  0
    0.4875   -2.4511    0.0869 H   0  0  0  0  0  0  0  0  0  0  0  0
    0.9647    2.4092    0.0167 H   0  0  0  0  0  0  0  0  0  0  0  0
   -0.2772    1.7656   -1.0558 H   0  0  0  0  0  0  0  0  0  0  0  0
    1.3554    0.3853   -2.0714 H   0  0  0  0  0  0  0  0  0  0  0  0
    2.5618    1.1548   -1.0226 H   0  0  0  0  0  0  0  0  0  0  0  0
   -2.3713   -1.3401   -0.8607 H   0  0  0  0  0  0  0  0  0  0  0  0
   -1.6360    0.1070   -1.5154 H   0  0  0  0  0  0  0  0  0  0  0  0
   -3.2698   -0.0184    1.0821 H   0  0  0  0  0  0  0  0  0  0  0  0
   -2.5981    1.4590    0.3612 H   0  0  0  0  0  0  0  0  0  0  0  0
   -3.8577    0.5559   -0.4855 H   0  0  0  0  0  0  0  0  0  0  0  0
  1  3  1  0  0  0  0
  1  4  1  0  0  0  0
  1  6  1  0  0  0  0
  1 10  1  0  0  0  0
  2  4  1  0  0  0  0
  2  5  1  0  0  0  0
  2  7  1  0  0  0  0
  2 11  1  0  0  0  0
  3  5  1  0  0  0  0
  3  8  1  0  0  0  0
  3 12  1  0  0  0  0
  4 13  1  0  0  0  0
  4 14  1  0  0  0  0
  5 15  1  0  0  0  0
  5 16  1  0  0  0  0
  6  7  1  0  0  0  0
  6 17  1  0  0  0  0
  6 18  1  0  0  0  0
  7 19  1  0  0  0  0
  7 20  1  0  0  0  0
  8  9  1  0  0  0  0
  8 21  1  0  0  0  0
  8 22  1  0  0  0  0
  9 23  1  0  0  0  0
  9 24  1  0  0  0  0
  9 25  1  0  0  0  0
M  END
> <PUBCHEM_COMPOUND_CID>
137449

> <PUBCHEM_CONFORMER_RMSD>
0.4

> <PUBCHEM_CONFORMER_DIVERSEORDER>
1
10
6
9
8
2
3
5
4
7

> <PUBCHEM_MMFF94_PARTIAL_CHARGES>
0

> <PUBCHEM_EFFECTIVE_ROTOR_COUNT>
2

> <PUBCHEM_PHARMACOPHORE_FEATURES>
2
1 9 hydrophobe
7 1 2 3 4 5 6 7 rings

> <PUBCHEM_HEAVY_ATOM_COUNT>
9

> <PUBCHEM_ATOM_DEF_STEREO_COUNT>
0

> <PUBCHEM_ATOM_UDEF_STEREO_COUNT>
3

> <PUBCHEM_BOND_DEF_STEREO_COUNT>
0

> <PUBCHEM_BOND_UDEF_STEREO_COUNT>
0

> <PUBCHEM_ISOTOPIC_ATOM_COUNT>
0

> <PUBCHEM_COMPONENT_COUNT>
1

> <PUBCHEM_CACTVS_TAUTO_COUNT>
1

> <PUBCHEM_CONFORMER_ID>
000218E900000001

> <PUBCHEM_MMFF94_ENERGY>
25.5056

> <PUBCHEM_FEATURE_SELFOVERLAP>
10.148

> <PUBCHEM_SHAPE_FINGERPRINT>
12423570 1 12040581892867697680
13024252 1 15366709394215251452
137420 1 11001122699661530336
16945 1 17385714803371463350
20653085 51 17681299941819563508
20653091 64 17822845489326407363
21040471 1 18270676601042097747
29004967 10 18334013860996404091
5084963 1 18042105700328544623
528886 8 18409738364962311364
68250623 7 17533226498930097186

> <PUBCHEM_SHAPE_MULTIPOLES>
185.22
2.91
1.31
1.06
2.45
0.01
-0.12
0.25
0.17
-0.23
0.19
-0.36
0.09
-0.16

> <PUBCHEM_SHAPE_SELFOVERLAP>
382.956

> <PUBCHEM_SHAPE_VOLUME>
106.1

> <PUBCHEM_COORDINATE_TYPE>
2
5
10

$$$$
