12600339
  -OEChem-11012401083D

 18 20  0     1  0  0  0  0  0999 V2000
    1.0843    0.7612    0.3409 C   0  0  1  0  0  0  0  0  0  0  0  0
    1.0844   -0.7618    0.3393 C   0  0  2  0  0  0  0  0  0  0  0  0
    1.8089    0.0009   -0.7396 C   0  0  0  0  0  0  0  0  0  0  0  0
   -0.4085    1.1178    0.3381 C   0  0  2  0  0  0  0  0  0  0  0  0
   -0.4082   -1.1186    0.3356 C   0  0  1  0  0  0  0  0  0  0  0  0
   -0.9493   -0.0015    1.2546 C   0  0  0  0  0  0  0  0  0  0  0  0
   -1.1058    0.6735   -0.9337 C   0  0  0  0  0  0  0  0  0  0  0  0
   -1.1056   -0.6714   -0.9352 C   0  0  0  0  0  0  0  0  0  0  0  0
    1.6506    1.2595    1.1163 H   0  0  0  0  0  0  0  0  0  0  0  0
    1.6508   -1.2616    1.1137 H   0  0  0  0  0  0  0  0  0  0  0  0
    1.4237    0.0020   -1.7504 H   0  0  0  0  0  0  0  0  0  0  0  0
    2.8934    0.0010   -0.7046 H   0  0  0  0  0  0  0  0  0  0  0  0
   -0.6524    2.1254    0.6776 H   0  0  0  0  0  0  0  0  0  0  0  0
   -0.6521   -2.1270    0.6728 H   0  0  0  0  0  0  0  0  0  0  0  0
   -0.4841   -0.0025    2.2479 H   0  0  0  0  0  0  0  0  0  0  0  0
   -2.0414   -0.0018    1.3662 H   0  0  0  0  0  0  0  0  0  0  0  0
   -1.4890    1.3172   -1.7089 H   0  0  0  0  0  0  0  0  0  0  0  0
   -1.4886   -1.3135   -1.7119 H   0  0  0  0  0  0  0  0  0  0  0  0
  1  2  1  0  0  0  0
  1  3  1  0  0  0  0
  1  4  1  0  0  0  0
  1  9  1  0  0  0  0
  2  3  1  0  0  0  0
  2  5  1  0  0  0  0
  2 10  1  0  0  0  0
  3 11  1  0  0  0  0
  3 12  1  0  0  0  0
  4  6  1  0  0  0  0
  4  7  1  0  0  0  0
  4 13  1  0  0  0  0
  5  6  1  0  0  0  0
  5  8  1  0  0  0  0
  5 14  1  0  0  0  0
  6 15  1  0  0  0  0
  6 16  1  0  0  0  0
  7  8  2  0  0  0  0
  7 17  1  0  0  0  0
  8 18  1  0  0  0  0
M  END
> <PUBCHEM_COMPOUND_CID>
12600339

> <PUBCHEM_CONFORMER_RMSD>
0.4

> <PUBCHEM_CONFORMER_DIVERSEORDER>
1

> <PUBCHEM_MMFF94_PARTIAL_CHARGES>
13
1 -0.19
10 0.1
11 0.1
12 0.1
17 0.15
18 0.15
2 -0.19
3 -0.2
4 0.23
5 0.23
7 -0.29
8 -0.29
9 0.1

> <PUBCHEM_EFFECTIVE_ROTOR_COUNT>
0.4

> <PUBCHEM_PHARMACOPHORE_FEATURES>
1
8 1 2 3 4 5 6 7 8 rings

> <PUBCHEM_HEAVY_ATOM_COUNT>
8

> <PUBCHEM_ATOM_DEF_STEREO_COUNT>
4

> <PUBCHEM_ATOM_UDEF_STEREO_COUNT>
0

> <PUBCHEM_BOND_DEF_STEREO_COUNT>
0

> <PUBCHEM_BOND_UDEF_STEREO_COUNT>
0

> <PUBCHEM_ISOTOPIC_ATOM_COUNT>
0

> <PUBCHEM_COMPONENT_COUNT>
1

> <PUBCHEM_CACTVS_TAUTO_COUNT>
1

> <PUBCHEM_CONFORMER_ID>
00C0441300000001

> <PUBCHEM_MMFF94_ENERGY>
51.3252

> <PUBCHEM_FEATURE_SELFOVERLAP>
5.074

> <PUBCHEM_SHAPE_FINGERPRINT>
12423570 1 15668149375744854137
13024252 1 17969526907729909308
137420 1 16114362929878276859
16945 1 18410851062282091309
21040471 1 18042669646418940613
24536 1 17167858664671123692
29004967 10 16055449855532243639
369184 2 18412260640789803170
5084963 1 16734086977880049861
5943 1 11432375052762015299

> <PUBCHEM_SHAPE_MULTIPOLES>
164.64
1.78
1.19
1.16
0.6
0
-0.01
0
0.33
-0.1
-0.05
-0.28
0
0

> <PUBCHEM_SHAPE_SELFOVERLAP>
367.819

> <PUBCHEM_SHAPE_VOLUME>
91.1

> <PUBCHEM_COORDINATE_TYPE>
2
5
10

$$$$
