9603354
  -OEChem-11012401033D

 19 18  0     0  0  0  0  0  0999 V2000
    2.8504    0.5847   -0.3730 O   0  0  0  0  0  0  0  0  0  0  0  0
   -2.8500    0.5852   -0.3734 O   0  0  0  0  0  0  0  0  0  0  0  0
    1.7010   -1.6283   -0.5822 O   0  5  0  0  0  0  0  0  0  0  0  0
   -1.7012   -1.6285   -0.5820 O   0  5  0  0  0  0  0  0  0  0  0  0
    1.2271   -0.7385    0.2010 N   0  3  0  0  0  0  0  0  0  0  0  0
   -1.2275   -0.7387    0.2012 N   0  3  0  0  0  0  0  0  0  0  0  0
    1.6967    0.4250    0.4106 N   0  0  0  0  0  0  0  0  0  0  0  0
   -1.6970    0.4247    0.4109 N   0  0  0  0  0  0  0  0  0  0  0  0
    0.0000   -1.0549    0.9545 C   0  0  0  0  0  0  0  0  0  0  0  0
    3.3681    1.8845   -0.1338 C   0  0  0  0  0  0  0  0  0  0  0  0
   -3.3676    1.8849   -0.1338 C   0  0  0  0  0  0  0  0  0  0  0  0
    0.0000   -0.5088    1.9045 H   0  0  0  0  0  0  0  0  0  0  0  0
    0.0000   -2.1277    1.1761 H   0  0  0  0  0  0  0  0  0  0  0  0
    3.6369    1.9990    0.9209 H   0  0  0  0  0  0  0  0  0  0  0  0
    2.6352    2.6449   -0.4208 H   0  0  0  0  0  0  0  0  0  0  0  0
    4.2672    2.0166   -0.7414 H   0  0  0  0  0  0  0  0  0  0  0  0
   -3.6370    1.9988    0.9209 H   0  0  0  0  0  0  0  0  0  0  0  0
   -4.2662    2.0177   -0.7420 H   0  0  0  0  0  0  0  0  0  0  0  0
   -2.6341    2.6453   -0.4198 H   0  0  0  0  0  0  0  0  0  0  0  0
  1  7  1  0  0  0  0
  1 10  1  0  0  0  0
  2  8  1  0  0  0  0
  2 11  1  0  0  0  0
  3  5  1  0  0  0  0
  4  6  1  0  0  0  0
  5  7  2  0  0  0  0
  5  9  1  0  0  0  0
  6  8  2  0  0  0  0
  6  9  1  0  0  0  0
  9 12  1  0  0  0  0
  9 13  1  0  0  0  0
 10 14  1  0  0  0  0
 10 15  1  0  0  0  0
 10 16  1  0  0  0  0
 11 17  1  0  0  0  0
 11 18  1  0  0  0  0
 11 19  1  0  0  0  0
M  CHG  4   3  -1   4  -1   5   1   6   1
M  END
> <PUBCHEM_COMPOUND_CID>
9603354

> <PUBCHEM_CONFORMER_RMSD>
0.6

> <PUBCHEM_CONFORMER_DIVERSEORDER>
1
24
36
10
3
9
25
27
2
28
4
13
20
7
5
37
18
6
30
35
17
32
33
22
34
11
12
26
29
8
16
23
14
31
15
19
21

> <PUBCHEM_MMFF94_PARTIAL_CHARGES>
11
1 -0.22
10 0.28
11 0.28
2 -0.22
3 -0.63
4 -0.63
5 0.74
6 0.74
7 -0.27
8 -0.27
9 0.2

> <PUBCHEM_EFFECTIVE_ROTOR_COUNT>
4

> <PUBCHEM_PHARMACOPHORE_FEATURES>
2
1 3 anion
1 4 anion

> <PUBCHEM_HEAVY_ATOM_COUNT>
11

> <PUBCHEM_ATOM_DEF_STEREO_COUNT>
0

> <PUBCHEM_ATOM_UDEF_STEREO_COUNT>
0

> <PUBCHEM_BOND_DEF_STEREO_COUNT>
2

> <PUBCHEM_BOND_UDEF_STEREO_COUNT>
0

> <PUBCHEM_ISOTOPIC_ATOM_COUNT>
0

> <PUBCHEM_COMPONENT_COUNT>
1

> <PUBCHEM_CACTVS_TAUTO_COUNT>
1

> <PUBCHEM_CONFORMER_ID>
0092891A00000001

> <PUBCHEM_MMFF94_ENERGY>
13.9789

> <PUBCHEM_FEATURE_SELFOVERLAP>
10.149

> <PUBCHEM_SHAPE_FINGERPRINT>
10149128 111 18113902692725293700
10149128 76 18409729551642167956
12897270 3 18059574753739215338
13618510 140 18335984190171070053
14390081 3 18408323306324340641
15775835 57 18408041788609252421
170605 34 18333449828695328481
18342897 96 18409447028740676071
20281407 28 10663832874892945960
20653085 51 18338242561447728939

> <PUBCHEM_SHAPE_MULTIPOLES>
182.97
5.61
2.07
0.76
0
0.4
0.06
4.47
-0.81
0
-0.22
0
-0.17
0

> <PUBCHEM_SHAPE_SELFOVERLAP>
335.552

> <PUBCHEM_SHAPE_VOLUME>
116.2

> <PUBCHEM_COORDINATE_TYPE>
2
5
10

$$$$
