123550
  -OEChem-11012400463D

 20 19  0     0  0  0  0  0  0999 V2000
    4.4049   -0.7828   -0.0376 Cl  0  0  0  0  0  0  0  0  0  0  0  0
   -0.6538   -0.4180    0.0368 O   0  0  0  0  0  0  0  0  0  0  0  0
    0.4562    1.6038    0.0054 O   0  0  0  0  0  0  0  0  0  0  0  0
   -3.0315   -0.7571    0.0044 C   0  0  0  0  0  0  0  0  0  0  0  0
   -1.9088    0.2690   -0.0020 C   0  0  0  0  0  0  0  0  0  0  0  0
    1.6896   -0.4937    0.0504 C   0  0  0  0  0  0  0  0  0  0  0  0
   -4.3985   -0.0990   -0.0507 C   0  0  0  0  0  0  0  0  0  0  0  0
    0.4544    0.3809    0.0359 C   0  0  0  0  0  0  0  0  0  0  0  0
    2.9875    0.2969   -0.0427 C   0  0  0  0  0  0  0  0  0  0  0  0
   -2.9119   -1.4384   -0.8466 H   0  0  0  0  0  0  0  0  0  0  0  0
   -2.9540   -1.3813    0.9028 H   0  0  0  0  0  0  0  0  0  0  0  0
   -1.9591    0.8772   -0.9128 H   0  0  0  0  0  0  0  0  0  0  0  0
   -1.9906    0.9229    0.8742 H   0  0  0  0  0  0  0  0  0  0  0  0
    1.6762   -1.0757    0.9792 H   0  0  0  0  0  0  0  0  0  0  0  0
    1.6213   -1.1839   -0.7989 H   0  0  0  0  0  0  0  0  0  0  0  0
   -4.5101    0.4980   -0.9614 H   0  0  0  0  0  0  0  0  0  0  0  0
   -5.1860   -0.8591   -0.0444 H   0  0  0  0  0  0  0  0  0  0  0  0
   -4.5530    0.5571    0.8118 H   0  0  0  0  0  0  0  0  0  0  0  0
    3.0897    0.9844    0.8028 H   0  0  0  0  0  0  0  0  0  0  0  0
    3.0222    0.8873   -0.9638 H   0  0  0  0  0  0  0  0  0  0  0  0
  1  9  1  0  0  0  0
  2  5  1  0  0  0  0
  2  8  1  0  0  0  0
  3  8  2  0  0  0  0
  4  5  1  0  0  0  0
  4  7  1  0  0  0  0
  4 10  1  0  0  0  0
  4 11  1  0  0  0  0
  5 12  1  0  0  0  0
  5 13  1  0  0  0  0
  6  8  1  0  0  0  0
  6  9  1  0  0  0  0
  6 14  1  0  0  0  0
  6 15  1  0  0  0  0
  7 16  1  0  0  0  0
  7 17  1  0  0  0  0
  7 18  1  0  0  0  0
  9 19  1  0  0  0  0
  9 20  1  0  0  0  0
M  END
> <PUBCHEM_COMPOUND_CID>
123550

> <PUBCHEM_CONFORMER_RMSD>
0.6

> <PUBCHEM_CONFORMER_DIVERSEORDER>
1
38
62
107
113
8
108
55
106
17
6
115
44
11
43
93
120
20
94
112
110
28
99
83
54
65
22
104
111
56
48
7
12
103
116
89
26
118
4
114
97
53
30
29
70
119
46
86
9
45
80
64
52
69
39
88
58
85
77
102
24
109
35
91
71
75
121
25
98
90
73
15
36
34
82
101
92
68
100
33
2
50
18
47
13
40
117
31
87
96
67
37
74
79
59
51
5
27
32
3
23
19
63
84
105
10
57
78
42
81
21
14
76
72
95
49
16
41
60
66
61

> <PUBCHEM_MMFF94_PARTIAL_CHARGES>
7
1 -0.29
2 -0.43
3 -0.57
5 0.28
6 0.06
8 0.66
9 0.29

> <PUBCHEM_EFFECTIVE_ROTOR_COUNT>
5

> <PUBCHEM_PHARMACOPHORE_FEATURES>
2
1 3 acceptor
1 7 hydrophobe

> <PUBCHEM_HEAVY_ATOM_COUNT>
9

> <PUBCHEM_ATOM_DEF_STEREO_COUNT>
0

> <PUBCHEM_ATOM_UDEF_STEREO_COUNT>
0

> <PUBCHEM_BOND_DEF_STEREO_COUNT>
0

> <PUBCHEM_BOND_UDEF_STEREO_COUNT>
0

> <PUBCHEM_ISOTOPIC_ATOM_COUNT>
0

> <PUBCHEM_COMPONENT_COUNT>
1

> <PUBCHEM_CACTVS_TAUTO_COUNT>
1

> <PUBCHEM_CONFORMER_ID>
0001E29E00000001

> <PUBCHEM_MMFF94_ENERGY>
3.1636

> <PUBCHEM_FEATURE_SELFOVERLAP>
10.148

> <PUBCHEM_SHAPE_FINGERPRINT>
10219947 1 18131635599030378694
11062470 55 18410856572529979211
12032990 46 18410578383461875242
12932764 1 16661189464791632195
14325111 11 18338516447317350187
20211469 26 18202565059810138114
20719005 15 18410855455859730658
21119208 17 16153428346101021198
21293036 1 17967534579675334822
22485316 2 18411978070290782102
23402539 116 14476955671625876121

> <PUBCHEM_SHAPE_MULTIPOLES>
175.35
8.32
1.04
0.6
0.54
0.25
0
-2.35
0.21
-0.24
0
-0.02
-0.02
0.01

> <PUBCHEM_SHAPE_SELFOVERLAP>
308.865

> <PUBCHEM_SHAPE_VOLUME>
115.6

> <PUBCHEM_COORDINATE_TYPE>
2
5
10

$$$$
