12487
  -OEChem-11012400483D

 14 14  0     0  0  0  0  0  0999 V2000
   -2.7783   -1.4517    0.0002 Cl  0  0  0  0  0  0  0  0  0  0  0  0
    2.7220    1.5060    0.0006 Cl  0  0  0  0  0  0  0  0  0  0  0  0
    2.5677   -1.7249   -0.0006 Cl  0  0  0  0  0  0  0  0  0  0  0  0
   -2.3684    1.5627    0.0000 N   0  0  0  0  0  0  0  0  0  0  0  0
   -1.1972    0.7722   -0.0003 C   0  0  0  0  0  0  0  0  0  0  0  0
   -1.2637   -0.6212    0.0000 C   0  0  0  0  0  0  0  0  0  0  0  0
    0.0425    1.4113   -0.0004 C   0  0  0  0  0  0  0  0  0  0  0  0
    1.2159    0.6572   -0.0001 C   0  0  0  0  0  0  0  0  0  0  0  0
   -0.0903   -1.3754    0.0003 C   0  0  0  0  0  0  0  0  0  0  0  0
    1.1496   -0.7362    0.0003 C   0  0  0  0  0  0  0  0  0  0  0  0
    0.0909    2.4985   -0.0004 H   0  0  0  0  0  0  0  0  0  0  0  0
   -0.1433   -2.4624    0.0005 H   0  0  0  0  0  0  0  0  0  0  0  0
   -2.3013    2.5718   -0.0013 H   0  0  0  0  0  0  0  0  0  0  0  0
   -3.2754    1.1152   -0.0010 H   0  0  0  0  0  0  0  0  0  0  0  0
  1  6  1  0  0  0  0
  2  8  1  0  0  0  0
  3 10  1  0  0  0  0
  4  5  1  0  0  0  0
  4 13  1  0  0  0  0
  4 14  1  0  0  0  0
  5  6  1  0  0  0  0
  5  7  2  0  0  0  0
  6  9  2  0  0  0  0
  7  8  1  0  0  0  0
  7 11  1  0  0  0  0
  8 10  2  0  0  0  0
  9 10  1  0  0  0  0
  9 12  1  0  0  0  0
M  END
> <PUBCHEM_COMPOUND_CID>
12487

> <PUBCHEM_CONFORMER_RMSD>
0.4

> <PUBCHEM_CONFORMER_DIVERSEORDER>
1

> <PUBCHEM_MMFF94_PARTIAL_CHARGES>
14
1 -0.18
10 0.18
11 0.15
12 0.15
13 0.4
14 0.4
2 -0.18
3 -0.18
4 -0.9
5 0.1
6 0.18
7 -0.15
8 0.18
9 -0.15

> <PUBCHEM_EFFECTIVE_ROTOR_COUNT>
0

> <PUBCHEM_PHARMACOPHORE_FEATURES>
3
1 4 cation
1 4 donor
6 5 6 7 8 9 10 rings

> <PUBCHEM_HEAVY_ATOM_COUNT>
10

> <PUBCHEM_ATOM_DEF_STEREO_COUNT>
0

> <PUBCHEM_ATOM_UDEF_STEREO_COUNT>
0

> <PUBCHEM_BOND_DEF_STEREO_COUNT>
0

> <PUBCHEM_BOND_UDEF_STEREO_COUNT>
0

> <PUBCHEM_ISOTOPIC_ATOM_COUNT>
0

> <PUBCHEM_COMPONENT_COUNT>
1

> <PUBCHEM_CACTVS_TAUTO_COUNT>
1

> <PUBCHEM_CONFORMER_ID>
000030C700000001

> <PUBCHEM_MMFF94_ENERGY>
31.2432

> <PUBCHEM_FEATURE_SELFOVERLAP>
15.223

> <PUBCHEM_SHAPE_FINGERPRINT>
12897270 3 18266740370847116373
13380535 21 18339092526637902104
14128692 85 18338804420558714670
14325111 11 18410855473076659520
161256 15 18340215179734000950
16945 1 18194402418523961604
193761 8 18410575067504334724
19973954 147 18411136917940834024
21040471 1 18410573989531100288
21501502 16 18411419501008557554
23235685 24 18120366820305653556
2334 1 18410575106143196646
23402655 69 18340751729393762455
23552423 10 18334014982146489406
241688 4 18335983069089121280
2748010 2 18410572877060444950
5084963 1 18272932708676449514
68250623 7 18411142419788866818

> <PUBCHEM_SHAPE_MULTIPOLES>
206.42
3.99
2.17
0.62
0.15
0.08
0
0.37
0
-0.38
0
-0.03
0.02
0

> <PUBCHEM_SHAPE_SELFOVERLAP>
403.841

> <PUBCHEM_SHAPE_VOLUME>
125.4

> <PUBCHEM_COORDINATE_TYPE>
2
5
10

$$$$
