5324610
  -OEChem-11012400383D

 28 29  0     0  0  0  0  0  0999 V2000
    0.6384    0.2925    0.0002 N   0  0  0  0  0  0  0  0  0  0  0  0
   -0.6250   -0.2881    0.0002 N   0  0  0  0  0  0  0  0  0  0  0  0
    2.9914   -0.2834   -0.0002 C   0  0  0  0  0  0  0  0  0  0  0  0
   -2.9781    0.2868    0.0000 C   0  0  0  0  0  0  0  0  0  0  0  0
    3.9271   -1.3056    0.0005 C   0  0  0  0  0  0  0  0  0  0  0  0
   -3.9321    1.3044    0.0006 C   0  0  0  0  0  0  0  0  0  0  0  0
    3.3785    1.0472   -0.0009 C   0  0  0  0  0  0  0  0  0  0  0  0
   -3.3824   -1.0481   -0.0006 C   0  0  0  0  0  0  0  0  0  0  0  0
    5.2856   -0.9889    0.0008 C   0  0  0  0  0  0  0  0  0  0  0  0
   -5.2905    0.9870    0.0005 C   0  0  0  0  0  0  0  0  0  0  0  0
    4.7369    1.3639   -0.0007 C   0  0  0  0  0  0  0  0  0  0  0  0
   -4.7407   -1.3655   -0.0007 C   0  0  0  0  0  0  0  0  0  0  0  0
    5.6904    0.3458    0.0002 C   0  0  0  0  0  0  0  0  0  0  0  0
   -5.6947   -0.3479   -0.0001 C   0  0  0  0  0  0  0  0  0  0  0  0
    1.5573   -0.6175   -0.0002 C   0  0  0  0  0  0  0  0  0  0  0  0
   -1.5620    0.6175    0.0004 C   0  0  0  0  0  0  0  0  0  0  0  0
    3.6241   -2.3489    0.0010 H   0  0  0  0  0  0  0  0  0  0  0  0
   -3.6327    2.3493    0.0011 H   0  0  0  0  0  0  0  0  0  0  0  0
    2.6572    1.8593   -0.0015 H   0  0  0  0  0  0  0  0  0  0  0  0
   -2.6619   -1.8616   -0.0010 H   0  0  0  0  0  0  0  0  0  0  0  0
    6.0281   -1.7815    0.0014 H   0  0  0  0  0  0  0  0  0  0  0  0
   -6.0335    1.7793    0.0011 H   0  0  0  0  0  0  0  0  0  0  0  0
    5.0527    2.4031   -0.0012 H   0  0  0  0  0  0  0  0  0  0  0  0
   -5.0559   -2.4049   -0.0012 H   0  0  0  0  0  0  0  0  0  0  0  0
    6.7481    0.5924    0.0004 H   0  0  0  0  0  0  0  0  0  0  0  0
   -6.7523   -0.5950   -0.0002 H   0  0  0  0  0  0  0  0  0  0  0  0
    1.2980   -1.6930   -0.0002 H   0  0  0  0  0  0  0  0  0  0  0  0
   -1.2984    1.6918    0.0007 H   0  0  0  0  0  0  0  0  0  0  0  0
  1  2  1  0  0  0  0
  1 15  2  0  0  0  0
  2 16  2  0  0  0  0
  3  5  2  0  0  0  0
  3  7  1  0  0  0  0
  3 15  1  0  0  0  0
  4  6  2  0  0  0  0
  4  8  1  0  0  0  0
  4 16  1  0  0  0  0
  5  9  1  0  0  0  0
  5 17  1  0  0  0  0
  6 10  1  0  0  0  0
  6 18  1  0  0  0  0
  7 11  2  0  0  0  0
  7 19  1  0  0  0  0
  8 12  2  0  0  0  0
  8 20  1  0  0  0  0
  9 13  2  0  0  0  0
  9 21  1  0  0  0  0
 10 14  2  0  0  0  0
 10 22  1  0  0  0  0
 11 13  1  0  0  0  0
 11 23  1  0  0  0  0
 12 14  1  0  0  0  0
 12 24  1  0  0  0  0
 13 25  1  0  0  0  0
 14 26  1  0  0  0  0
 15 27  1  0  0  0  0
 16 28  1  0  0  0  0
M  END
> <PUBCHEM_COMPOUND_CID>
5324610

> <PUBCHEM_CONFORMER_RMSD>
0.6

> <PUBCHEM_CONFORMER_DIVERSEORDER>
1
2

> <PUBCHEM_MMFF94_PARTIAL_CHARGES>
28
1 -0.45
10 -0.15
11 -0.15
12 -0.15
13 -0.15
14 -0.15
15 0.3
16 0.3
17 0.15
18 0.15
19 0.15
2 -0.45
20 0.15
21 0.15
22 0.15
23 0.15
24 0.15
25 0.15
26 0.15
27 0.06
28 0.06
3 0.09
4 0.09
5 -0.15
6 -0.15
7 -0.15
8 -0.15
9 -0.15

> <PUBCHEM_EFFECTIVE_ROTOR_COUNT>
3

> <PUBCHEM_PHARMACOPHORE_FEATURES>
4
1 1 acceptor
1 2 acceptor
6 3 5 7 9 11 13 rings
6 4 6 8 10 12 14 rings

> <PUBCHEM_HEAVY_ATOM_COUNT>
16

> <PUBCHEM_ATOM_DEF_STEREO_COUNT>
0

> <PUBCHEM_ATOM_UDEF_STEREO_COUNT>
0

> <PUBCHEM_BOND_DEF_STEREO_COUNT>
2

> <PUBCHEM_BOND_UDEF_STEREO_COUNT>
0

> <PUBCHEM_ISOTOPIC_ATOM_COUNT>
0

> <PUBCHEM_COMPONENT_COUNT>
1

> <PUBCHEM_CACTVS_TAUTO_COUNT>
1

> <PUBCHEM_CONFORMER_ID>
00513F4200000001

> <PUBCHEM_MMFF94_ENERGY>
40.1653

> <PUBCHEM_FEATURE_SELFOVERLAP>
21.765

> <PUBCHEM_SHAPE_FINGERPRINT>
10595046 47 18410855477318632496
10968037 39 18408885153262392743
11287383 113 18411138047717699538
11315181 36 18273498979103639033
12091667 2 17313105237437945893
12107183 9 17618221706667629656
12236239 1 18410855460128161821
13167372 99 18271811159656140304
13167823 11 18410290302593621130
13288520 33 18411699907593472391
13533116 47 16877932799140882192
14123238 8 18410856568229724196
1420 363 18113905969906452003
14251718 22 18410292527449581323
14251732 16 18338799025731403801
14341114 176 18411142432668500461
14528608 73 18409451414245209244
14933364 13 18411141333162218892
15196674 1 18410855464423129091
17834072 33 18412825802282181638
17834076 25 16298386859526536683
17844677 252 18411989048042782264
19489759 90 17240199924398853013
200 152 18273214196769852299
20281389 69 18334858282238697745
20645477 70 18341333293340259950
21267235 1 18410864256226595190
220451 1 18041002816850891010
23402539 116 18335135393153537341
23536379 177 18410856542459920657
23557571 272 17895194355077253885
23559900 14 18339916117351756905
239999 70 18271812289960513430
29717793 49 17632302246548135420
300161 21 18113611275115278147
3004659 81 18409168784281167354
34797466 226 17703237307459171436
351380 180 18335139799700422520
3545911 37 18410576179890314900
4073 2 18041285456122578322
4214541 1 18410856538550302309
42788 4 18410575084673634916
5104073 3 18410855455833195416
542803 24 18410573985151464133
57483677 66 18409728456446651986
67856867 119 18189620608222269597
7062679 117 18337110159234998903
7495541 125 17917988421048381240
77779 3 18411419505298243584
9971528 1 17748829618209472644

> <PUBCHEM_SHAPE_MULTIPOLES>
319.31
16.25
1.42
0.61
0.06
0
0
0.01
0
0
0
0
0
0

> <PUBCHEM_SHAPE_SELFOVERLAP>
679.94

> <PUBCHEM_SHAPE_VOLUME>
177.2

> <PUBCHEM_COORDINATE_TYPE>
2
5
10

$$$$
