15714
  -OEChem-11012401033D

 54 54  0     0  0  0  0  0  0999 V2000
    5.0539    0.2743    0.3052 C   0  0  0  0  0  0  0  0  0  0  0  0
    5.2068   -1.0921   -0.3767 C   0  0  0  0  0  0  0  0  0  0  0  0
    6.2563    1.1766   -0.0034 C   0  0  0  0  0  0  0  0  0  0  0  0
    3.7508    0.9474   -0.1219 C   0  0  0  0  0  0  0  0  0  0  0  0
    6.5283   -1.7619   -0.0068 C   0  0  0  0  0  0  0  0  0  0  0  0
    7.5761    0.5029    0.3658 C   0  0  0  0  0  0  0  0  0  0  0  0
    7.7205   -0.8587   -0.3068 C   0  0  0  0  0  0  0  0  0  0  0  0
    2.5328    0.1184    0.2849 C   0  0  0  0  0  0  0  0  0  0  0  0
    1.2318    0.7791   -0.1741 C   0  0  0  0  0  0  0  0  0  0  0  0
    0.0105   -0.0336    0.2622 C   0  0  0  0  0  0  0  0  0  0  0  0
   -1.2875    0.6097   -0.2309 C   0  0  0  0  0  0  0  0  0  0  0  0
   -2.5448   -0.1574    0.1886 C   0  0  0  0  0  0  0  0  0  0  0  0
   -3.8446    0.4995   -0.2837 C   0  0  0  0  0  0  0  0  0  0  0  0
   -5.0655   -0.3029    0.1748 C   0  0  0  0  0  0  0  0  0  0  0  0
   -6.3984    0.3208   -0.2516 C   0  0  0  0  0  0  0  0  0  0  0  0
   -7.6165   -0.4971    0.1858 C   0  0  0  0  0  0  0  0  0  0  0  0
   -8.9468    0.1215   -0.2518 C   0  0  0  0  0  0  0  0  0  0  0  0
  -10.1636   -0.6466    0.2403 C   0  0  0  0  0  0  0  0  0  0  0  0
    5.0229    0.1150    1.3921 H   0  0  0  0  0  0  0  0  0  0  0  0
    4.4088   -1.7793   -0.0807 H   0  0  0  0  0  0  0  0  0  0  0  0
    5.1496   -0.9784   -1.4667 H   0  0  0  0  0  0  0  0  0  0  0  0
    6.2680    1.4310   -1.0710 H   0  0  0  0  0  0  0  0  0  0  0  0
    6.1672    2.1208    0.5471 H   0  0  0  0  0  0  0  0  0  0  0  0
    3.6810    1.9393    0.3419 H   0  0  0  0  0  0  0  0  0  0  0  0
    3.7459    1.1044   -1.2080 H   0  0  0  0  0  0  0  0  0  0  0  0
    6.5228   -2.0162    1.0604 H   0  0  0  0  0  0  0  0  0  0  0  0
    6.6319   -2.7030   -0.5585 H   0  0  0  0  0  0  0  0  0  0  0  0
    8.4128    1.1480    0.0751 H   0  0  0  0  0  0  0  0  0  0  0  0
    7.6307    0.3801    1.4545 H   0  0  0  0  0  0  0  0  0  0  0  0
    7.8106   -0.7219   -1.3915 H   0  0  0  0  0  0  0  0  0  0  0  0
    8.6439   -1.3417    0.0321 H   0  0  0  0  0  0  0  0  0  0  0  0
    2.5199   -0.0102    1.3739 H   0  0  0  0  0  0  0  0  0  0  0  0
    2.5642   -0.8791   -0.1625 H   0  0  0  0  0  0  0  0  0  0  0  0
    1.2370    0.8790   -1.2664 H   0  0  0  0  0  0  0  0  0  0  0  0
    1.1654    1.7913    0.2430 H   0  0  0  0  0  0  0  0  0  0  0  0
    0.0838   -1.0539   -0.1330 H   0  0  0  0  0  0  0  0  0  0  0  0
   -0.0099   -0.1104    1.3560 H   0  0  0  0  0  0  0  0  0  0  0  0
   -1.3505    1.6352    0.1541 H   0  0  0  0  0  0  0  0  0  0  0  0
   -1.2627    0.6838   -1.3252 H   0  0  0  0  0  0  0  0  0  0  0  0
   -2.5609   -0.2439    1.2822 H   0  0  0  0  0  0  0  0  0  0  0  0
   -2.4896   -1.1785   -0.2087 H   0  0  0  0  0  0  0  0  0  0  0  0
   -3.9057    1.5199    0.1129 H   0  0  0  0  0  0  0  0  0  0  0  0
   -3.8430    0.5757   -1.3775 H   0  0  0  0  0  0  0  0  0  0  0  0
   -5.0007   -1.3205   -0.2301 H   0  0  0  0  0  0  0  0  0  0  0  0
   -5.0493   -0.3954    1.2678 H   0  0  0  0  0  0  0  0  0  0  0  0
   -6.4114    0.4281   -1.3433 H   0  0  0  0  0  0  0  0  0  0  0  0
   -6.4726    1.3319    0.1671 H   0  0  0  0  0  0  0  0  0  0  0  0
   -7.6071   -0.5959    1.2784 H   0  0  0  0  0  0  0  0  0  0  0  0
   -7.5396   -1.5114   -0.2247 H   0  0  0  0  0  0  0  0  0  0  0  0
   -8.9788    0.1767   -1.3465 H   0  0  0  0  0  0  0  0  0  0  0  0
   -9.0080    1.1513    0.1201 H   0  0  0  0  0  0  0  0  0  0  0  0
  -10.1847   -0.6852    1.3340 H   0  0  0  0  0  0  0  0  0  0  0  0
  -11.0834   -0.1624   -0.1019 H   0  0  0  0  0  0  0  0  0  0  0  0
  -10.1563   -1.6731   -0.1396 H   0  0  0  0  0  0  0  0  0  0  0  0
  1  2  1  0  0  0  0
  1  3  1  0  0  0  0
  1  4  1  0  0  0  0
  1 19  1  0  0  0  0
  2  5  1  0  0  0  0
  2 20  1  0  0  0  0
  2 21  1  0  0  0  0
  3  6  1  0  0  0  0
  3 22  1  0  0  0  0
  3 23  1  0  0  0  0
  4  8  1  0  0  0  0
  4 24  1  0  0  0  0
  4 25  1  0  0  0  0
  5  7  1  0  0  0  0
  5 26  1  0  0  0  0
  5 27  1  0  0  0  0
  6  7  1  0  0  0  0
  6 28  1  0  0  0  0
  6 29  1  0  0  0  0
  7 30  1  0  0  0  0
  7 31  1  0  0  0  0
  8  9  1  0  0  0  0
  8 32  1  0  0  0  0
  8 33  1  0  0  0  0
  9 10  1  0  0  0  0
  9 34  1  0  0  0  0
  9 35  1  0  0  0  0
 10 11  1  0  0  0  0
 10 36  1  0  0  0  0
 10 37  1  0  0  0  0
 11 12  1  0  0  0  0
 11 38  1  0  0  0  0
 11 39  1  0  0  0  0
 12 13  1  0  0  0  0
 12 40  1  0  0  0  0
 12 41  1  0  0  0  0
 13 14  1  0  0  0  0
 13 42  1  0  0  0  0
 13 43  1  0  0  0  0
 14 15  1  0  0  0  0
 14 44  1  0  0  0  0
 14 45  1  0  0  0  0
 15 16  1  0  0  0  0
 15 46  1  0  0  0  0
 15 47  1  0  0  0  0
 16 17  1  0  0  0  0
 16 48  1  0  0  0  0
 16 49  1  0  0  0  0
 17 18  1  0  0  0  0
 17 50  1  0  0  0  0
 17 51  1  0  0  0  0
 18 52  1  0  0  0  0
 18 53  1  0  0  0  0
 18 54  1  0  0  0  0
M  END
> <PUBCHEM_COMPOUND_CID>
15714

> <PUBCHEM_CONFORMER_RMSD>
1.2

> <PUBCHEM_CONFORMER_DIVERSEORDER>
1
37
97
12
2
36
4
58
42
101
26
62
69
21
88
25
30
60
27
79
35
99
19
59
10
106
95
55
22
18
44
76
11
89
34
39
107
54
3
5
85
13
104
32
40
8
47
9
23
66
98
28
7
20
45
103
82
61
57
50
52
72
86
81
96
48
90
6
46
67
41
14
33
92
63
65
105
29
16
49
102
24
71
17
31
64
80
15
77
53
84
108
78
74
43
87
70
38
100
91
73
83
51
56
75
68
109
94
93

> <PUBCHEM_MMFF94_PARTIAL_CHARGES>
0

> <PUBCHEM_EFFECTIVE_ROTOR_COUNT>
12.2

> <PUBCHEM_PHARMACOPHORE_FEATURES>
2
1 18 hydrophobe
6 1 2 3 5 6 7 rings

> <PUBCHEM_HEAVY_ATOM_COUNT>
18

> <PUBCHEM_ATOM_DEF_STEREO_COUNT>
0

> <PUBCHEM_ATOM_UDEF_STEREO_COUNT>
0

> <PUBCHEM_BOND_DEF_STEREO_COUNT>
0

> <PUBCHEM_BOND_UDEF_STEREO_COUNT>
0

> <PUBCHEM_ISOTOPIC_ATOM_COUNT>
0

> <PUBCHEM_COMPONENT_COUNT>
1

> <PUBCHEM_CACTVS_TAUTO_COUNT>
1

> <PUBCHEM_CONFORMER_ID>
00003D6200000001

> <PUBCHEM_MMFF94_ENERGY>
1.0523

> <PUBCHEM_FEATURE_SELFOVERLAP>
10.148

> <PUBCHEM_SHAPE_FINGERPRINT>
10299344 5 18131912663350086919
11638347 137 17917996061600307719
13533116 47 17346881105668518046
13885169 127 18408885110350000253
14123256 10 16660642955878067977
14202775 3 18335425673299592963
14251764 18 17846501426142515953
14251764 46 18410292518764675089
15510794 2 18113339729855237875
15690457 1 18202279208594302647
15716309 27 18202281411864760413
16120349 18 18412260679366063004
18006028 8 18131350808592564953
20621476 8 18113897157187240597
21095086 128 18411135845085447695
21150785 3 13623529056744994991
21267235 1 18260550022300473477
21315763 28 18412826893847901289
21362267 20 18271242824864451455
21362267 313 14261088523558731655
22224240 67 12103844557851703693
232437 2 18342738538505291391
23521765 1 18341894100036032313
246663 6 18113620084404315129
249057 3 16298391288244499719
28498 318 18409446973238423655
33532 11 18410291393536569202
33684 2 18113053840105567281
4325135 7 12468355751929077331
5283156 175 18202284701456456473
5758199 1 12247682673550576013
59682541 35 12175619594976281597
67123 10 18410573998041640773
8209 1 18186519912643817353

> <PUBCHEM_SHAPE_MULTIPOLES>
370.43
34.19
1.16
0.68
50.89
0.24
0
7.33
0.33
-2.13
-0.05
-0.04
0
0.54

> <PUBCHEM_SHAPE_SELFOVERLAP>
688.051

> <PUBCHEM_SHAPE_VOLUME>
231.5

> <PUBCHEM_COORDINATE_TYPE>
2
5
10

$$$$
