140028
  -OEChem-11012400583D

 50 51  0     0  0  0  0  0  0999 V2000
    2.9155    0.1142   -1.5098 O   0  0  0  0  0  0  0  0  0  0  0  0
   -2.9293    0.1219    1.5174 O   0  0  0  0  0  0  0  0  0  0  0  0
    1.3785    2.5321    0.3306 N   0  0  0  0  0  0  0  0  0  0  0  0
   -1.4002    2.5416   -0.3272 N   0  0  0  0  0  0  0  0  0  0  0  0
    3.4695    1.1848    0.5689 C   0  0  0  0  0  0  0  0  0  0  0  0
   -3.4798    1.1778   -0.5697 C   0  0  0  0  0  0  0  0  0  0  0  0
    0.7182    3.7218   -0.2118 C   0  0  0  0  0  0  0  0  0  0  0  0
   -0.7427    3.7247    0.2025 C   0  0  0  0  0  0  0  0  0  0  0  0
    2.6341    2.3694    0.1166 C   0  0  0  0  0  0  0  0  0  0  0  0
   -2.6612    2.3736   -0.1160 C   0  0  0  0  0  0  0  0  0  0  0  0
    3.5361    0.0629   -0.4502 C   0  0  0  0  0  0  0  0  0  0  0  0
   -3.5415    0.0594    0.4534 C   0  0  0  0  0  0  0  0  0  0  0  0
    4.3767   -1.1327   -0.1512 C   0  0  0  0  0  0  0  0  0  0  0  0
   -4.3664   -1.1469    0.1531 C   0  0  0  0  0  0  0  0  0  0  0  0
    3.3414    3.4330   -0.6892 C   0  0  0  0  0  0  0  0  0  0  0  0
   -3.3863    3.4323    0.6802 C   0  0  0  0  0  0  0  0  0  0  0  0
    5.0631   -1.1750    1.0411 C   0  0  0  0  0  0  0  0  0  0  0  0
   -5.0434   -1.2016   -1.0440 C   0  0  0  0  0  0  0  0  0  0  0  0
    4.4334   -2.1482   -1.0788 C   0  0  0  0  0  0  0  0  0  0  0  0
   -4.4186   -2.1591    1.0844 C   0  0  0  0  0  0  0  0  0  0  0  0
    5.8490   -2.2930    1.3209 C   0  0  0  0  0  0  0  0  0  0  0  0
   -5.8146   -2.3295   -1.3251 C   0  0  0  0  0  0  0  0  0  0  0  0
    5.2192   -3.2662   -0.7989 C   0  0  0  0  0  0  0  0  0  0  0  0
   -5.1897   -3.2870    0.8032 C   0  0  0  0  0  0  0  0  0  0  0  0
    5.9269   -3.3384    0.4011 C   0  0  0  0  0  0  0  0  0  0  0  0
   -5.8877   -3.3720   -0.4015 C   0  0  0  0  0  0  0  0  0  0  0  0
    3.0078    0.7980    1.4844 H   0  0  0  0  0  0  0  0  0  0  0  0
    4.4769    1.5497    0.7922 H   0  0  0  0  0  0  0  0  0  0  0  0
   -3.0074    0.7925   -1.4804 H   0  0  0  0  0  0  0  0  0  0  0  0
   -4.4897    1.5307   -0.8016 H   0  0  0  0  0  0  0  0  0  0  0  0
    0.7637    3.7250   -1.3073 H   0  0  0  0  0  0  0  0  0  0  0  0
    1.1741    4.6396    0.1758 H   0  0  0  0  0  0  0  0  0  0  0  0
   -0.7885    3.7384    1.2979 H   0  0  0  0  0  0  0  0  0  0  0  0
   -1.1973    4.6419   -0.1888 H   0  0  0  0  0  0  0  0  0  0  0  0
    3.3223    4.3942   -0.1694 H   0  0  0  0  0  0  0  0  0  0  0  0
    2.9097    3.5223   -1.6893 H   0  0  0  0  0  0  0  0  0  0  0  0
    4.3933    3.1601   -0.8219 H   0  0  0  0  0  0  0  0  0  0  0  0
   -3.3692    4.3911    0.1558 H   0  0  0  0  0  0  0  0  0  0  0  0
   -2.9576    3.5314    1.6806 H   0  0  0  0  0  0  0  0  0  0  0  0
   -4.4361    3.1502    0.8080 H   0  0  0  0  0  0  0  0  0  0  0  0
    5.0282   -0.3889    1.7863 H   0  0  0  0  0  0  0  0  0  0  0  0
   -5.0118   -0.4182   -1.7922 H   0  0  0  0  0  0  0  0  0  0  0  0
    3.8907   -2.1117   -2.0181 H   0  0  0  0  0  0  0  0  0  0  0  0
   -3.8834   -2.1128    2.0276 H   0  0  0  0  0  0  0  0  0  0  0  0
    6.3994   -2.3506    2.2555 H   0  0  0  0  0  0  0  0  0  0  0  0
   -6.3574   -2.3970   -2.2635 H   0  0  0  0  0  0  0  0  0  0  0  0
    5.2802   -4.0806   -1.5148 H   0  0  0  0  0  0  0  0  0  0  0  0
   -5.2468   -4.0992    1.5220 H   0  0  0  0  0  0  0  0  0  0  0  0
    6.5386   -4.2091    0.6191 H   0  0  0  0  0  0  0  0  0  0  0  0
   -6.4878   -4.2504   -0.6205 H   0  0  0  0  0  0  0  0  0  0  0  0
  1 11  2  0  0  0  0
  2 12  2  0  0  0  0
  3  7  1  0  0  0  0
  3  9  2  0  0  0  0
  4  8  1  0  0  0  0
  4 10  2  0  0  0  0
  5  9  1  0  0  0  0
  5 11  1  0  0  0  0
  5 27  1  0  0  0  0
  5 28  1  0  0  0  0
  6 10  1  0  0  0  0
  6 12  1  0  0  0  0
  6 29  1  0  0  0  0
  6 30  1  0  0  0  0
  7  8  1  0  0  0  0
  7 31  1  0  0  0  0
  7 32  1  0  0  0  0
  8 33  1  0  0  0  0
  8 34  1  0  0  0  0
  9 15  1  0  0  0  0
 10 16  1  0  0  0  0
 11 13  1  0  0  0  0
 12 14  1  0  0  0  0
 13 17  2  0  0  0  0
 13 19  1  0  0  0  0
 14 18  2  0  0  0  0
 14 20  1  0  0  0  0
 15 35  1  0  0  0  0
 15 36  1  0  0  0  0
 15 37  1  0  0  0  0
 16 38  1  0  0  0  0
 16 39  1  0  0  0  0
 16 40  1  0  0  0  0
 17 21  1  0  0  0  0
 17 41  1  0  0  0  0
 18 22  1  0  0  0  0
 18 42  1  0  0  0  0
 19 23  2  0  0  0  0
 19 43  1  0  0  0  0
 20 24  2  0  0  0  0
 20 44  1  0  0  0  0
 21 25  2  0  0  0  0
 21 45  1  0  0  0  0
 22 26  2  0  0  0  0
 22 46  1  0  0  0  0
 23 25  1  0  0  0  0
 23 47  1  0  0  0  0
 24 26  1  0  0  0  0
 24 48  1  0  0  0  0
 25 49  1  0  0  0  0
 26 50  1  0  0  0  0
M  END
> <PUBCHEM_COMPOUND_CID>
140028

> <PUBCHEM_CONFORMER_RMSD>
1

> <PUBCHEM_CONFORMER_DIVERSEORDER>
1
386
170
84
265
53
296
401
12
180
7
363
255
372
412
4
377
413
301
241
334
118
120
185
306
374
329
164
21
345
356
392
368
304
311
75
331
94
40
176
144
16
89
90
140
11
404
206
85
299
276
208
133
213
196
268
49
346
34
371
218
340
146
61
83
95
369
275
384
130
234
411
351
251
424
217
253
6
219
245
79
350
175
242
62
355
107
408
5
30
26
376
342
358
169
110
184
289
294
142
135
19
419
402
244
151
359
88
317
410
274
168
128
152
77
80
330
197
154
165
310
106
192
225
379
314
398
307
105
222
173
27
126
189
37
228
263
72
349
338
158
179
45
385
390
243
33
414
28
298
425
403
56
54
78
201
31
188
224
406
161
357
186
277
102
52
264
143
214
337
281
76
269
145
182
127
71
112
343
198
399
220
266
326
41
229
47
167
293
426
108
388
44
66
147
324
365
231
233
190
336
395
354
111
18
422
211
344
313
212
341
270
50
291
257
393
123
104
249
124
427
273
99
63
320
55
347
160
36
223
258
261
287
339
215
283
302
181
193
171
138
119
48
162
195
129
305
172
361
209
285
227
278
97
416
87
235
362
387
150
400
297
60
260
149
237
39
319
132
199
109
68
156
194
148
136
73
3
155
32
418
292
335
82
279
254
187
332
205
35
103
134
378
373
280
65
64
290
207
100
86
383
282
375
236
139
421
230
178
59
24
8
238
141
91
70
232
203
93
272
259
92
96
250
210
38
325
397
315
125
131
15
353
121
13
370
166
191
177
2
262
202
360
113
367
25
200
17
322
58
407
20
159
333
122
394
74
248
267
420
57
183
226
286
204
323
153
391
22
116
312
43
409
137
163
382
101
271
318
246
157
348
366
51
81
14
415
389
288
115
46
252
216
10
417
423
114
321
256
117
29
405
309
69
316
303
396
300
9
364
42
239
174
327
295
67
23
428
240
98
352
328
284
381
247
308
380
221

> <PUBCHEM_MMFF94_PARTIAL_CHARGES>
36
1 -0.57
10 0.33
11 0.42
12 0.42
13 0.09
14 0.09
15 0.06
16 0.06
17 -0.15
18 -0.15
19 -0.15
2 -0.57
20 -0.15
21 -0.15
22 -0.15
23 -0.15
24 -0.15
25 -0.15
26 -0.15
3 -0.7
4 -0.7
41 0.15
42 0.15
43 0.15
44 0.15
45 0.15
46 0.15
47 0.15
48 0.15
49 0.15
5 0.12
50 0.15
6 0.12
7 0.25
8 0.25
9 0.33

> <PUBCHEM_EFFECTIVE_ROTOR_COUNT>
9

> <PUBCHEM_PHARMACOPHORE_FEATURES>
6
1 1 acceptor
1 2 acceptor
1 3 acceptor
1 4 acceptor
6 13 17 19 21 23 25 rings
6 14 18 20 22 24 26 rings

> <PUBCHEM_HEAVY_ATOM_COUNT>
26

> <PUBCHEM_ATOM_DEF_STEREO_COUNT>
0

> <PUBCHEM_ATOM_UDEF_STEREO_COUNT>
0

> <PUBCHEM_BOND_DEF_STEREO_COUNT>
0

> <PUBCHEM_BOND_UDEF_STEREO_COUNT>
0

> <PUBCHEM_ISOTOPIC_ATOM_COUNT>
0

> <PUBCHEM_COMPONENT_COUNT>
1

> <PUBCHEM_CACTVS_TAUTO_COUNT>
15

> <PUBCHEM_CONFORMER_ID>
000222FC00000001

> <PUBCHEM_MMFF94_ENERGY>
79.9813

> <PUBCHEM_FEATURE_SELFOVERLAP>
30.451

> <PUBCHEM_SHAPE_FINGERPRINT>
10042902 136 18335984147796163140
10049733 130 18129924703926373111
10429389 16 18115566254651627997
10622 236 18410292510238264929
11069576 57 18191026917885472325
11088757 655 18263348245207258514
11197282 1 18410855464423505862
11409948 35 18194400233858634507
117089 54 18411704291721821438
11828042 38 17688571076956463487
12107183 9 18270982184604476913
12559416 39 18194652995502112206
12655364 74 11954608007886261250
12655387 17 18340223916752431565
12717326 150 18052818345857779503
13911852 28 18339922731590550669
14168556 18 18411695501205031264
14347332 77 18412262844081964131
14429380 30 18409448077050676642
14866123 147 18340211800449638945
14904385 45 18333734632973794699
14910700 183 17838887493337505320
15399243 27 18338532883799671658
15728490 83 18263652762093175187
15803439 3 16740554142072095525
17138139 8 17895758383906262642
17492 89 18411136956643480188
19301676 85 18122056508386472519
19315092 285 17846218928963673913
19319366 153 17835521896491757340
20843269 155 18336540517785782194
23569914 152 18053628540208799159
25222932 49 18341901835441146132
2835820 82 18122625213871123639
3044373 233 17827384337972280299
3383291 50 18052260592487329497
345986 75 17631465616883802593
3991529 202 18047217369517618451
437795 163 18408046217590479182
437795 96 17768253409773673727
44062 13 18337393721228211897
444735 79 18340469150610547784
50009960 94 18116970266465037906
56633871 153 18340499872084679161
6034566 193 8862946095826757735
6058803 2 18266199303943381828
7970288 3 18410570678095575282

> <PUBCHEM_SHAPE_MULTIPOLES>
513.37
17.54
6.39
1.21
0.37
2.53
0
-23.35
0.03
-0.15
-0.01
-0.01
-0.61
-0.85

> <PUBCHEM_SHAPE_SELFOVERLAP>
1071.353

> <PUBCHEM_SHAPE_VOLUME>
290.4

> <PUBCHEM_COORDINATE_TYPE>
2
5
10

$$$$
