5344
  -OEChem-11012401163D

 31 32  0     0  0  0  0  0  0999 V2000
    0.3220    1.1320   -0.3603 S   0  0  0  0  0  0  0  0  0  0  0  0
   -2.6489    1.1014    0.3719 O   0  0  0  0  0  0  0  0  0  0  0  0
    0.2935    1.7216   -1.6936 O   0  0  0  0  0  0  0  0  0  0  0  0
   -0.0019    1.9723    0.7862 O   0  0  0  0  0  0  0  0  0  0  0  0
   -0.7014   -0.2540   -0.3665 N   0  0  0  0  0  0  0  0  0  0  0  0
   -4.0139    0.9303    0.5675 N   0  0  0  0  0  0  0  0  0  0  0  0
    5.7212   -1.2182    0.4665 N   0  0  0  0  0  0  0  0  0  0  0  0
    1.9072    0.4418   -0.1174 C   0  0  0  0  0  0  0  0  0  0  0  0
   -2.0951   -0.0680   -0.0642 C   0  0  0  0  0  0  0  0  0  0  0  0
   -3.0876   -1.0190   -0.1599 C   0  0  0  0  0  0  0  0  0  0  0  0
   -4.2525   -0.3437    0.2434 C   0  0  0  0  0  0  0  0  0  0  0  0
    2.6807    0.0677   -1.2163 C   0  0  0  0  0  0  0  0  0  0  0  0
    2.4002    0.2642    1.1754 C   0  0  0  0  0  0  0  0  0  0  0  0
   -2.9543   -2.4220   -0.5874 C   0  0  0  0  0  0  0  0  0  0  0  0
    3.9471   -0.4840   -1.0224 C   0  0  0  0  0  0  0  0  0  0  0  0
    3.6667   -0.2873    1.3691 C   0  0  0  0  0  0  0  0  0  0  0  0
    4.4401   -0.6615    0.2702 C   0  0  0  0  0  0  0  0  0  0  0  0
   -5.6230   -0.8738    0.3375 C   0  0  0  0  0  0  0  0  0  0  0  0
   -0.3186   -1.2064   -0.3519 H   0  0  0  0  0  0  0  0  0  0  0  0
    2.3146    0.1898   -2.2318 H   0  0  0  0  0  0  0  0  0  0  0  0
    1.8115    0.5427    2.0449 H   0  0  0  0  0  0  0  0  0  0  0  0
   -2.3592   -2.4961   -1.5036 H   0  0  0  0  0  0  0  0  0  0  0  0
   -2.4597   -3.0126    0.1905 H   0  0  0  0  0  0  0  0  0  0  0  0
   -3.9272   -2.8802   -0.7904 H   0  0  0  0  0  0  0  0  0  0  0  0
    4.5396   -0.7730   -1.8867 H   0  0  0  0  0  0  0  0  0  0  0  0
    4.0393   -0.4218    2.3814 H   0  0  0  0  0  0  0  0  0  0  0  0
   -5.6505   -1.7603    0.9795 H   0  0  0  0  0  0  0  0  0  0  0  0
   -6.3175   -0.1383    0.7572 H   0  0  0  0  0  0  0  0  0  0  0  0
   -5.9938   -1.1562   -0.6532 H   0  0  0  0  0  0  0  0  0  0  0  0
    6.2817   -1.4913   -0.3297 H   0  0  0  0  0  0  0  0  0  0  0  0
    6.0783   -1.3486    1.4036 H   0  0  0  0  0  0  0  0  0  0  0  0
  1  3  2  0  0  0  0
  1  4  2  0  0  0  0
  1  5  1  0  0  0  0
  1  8  1  0  0  0  0
  2  6  1  0  0  0  0
  2  9  1  0  0  0  0
  5  9  1  0  0  0  0
  5 19  1  0  0  0  0
  6 11  2  0  0  0  0
  7 17  1  0  0  0  0
  7 30  1  0  0  0  0
  7 31  1  0  0  0  0
  8 12  2  0  0  0  0
  8 13  1  0  0  0  0
  9 10  2  0  0  0  0
 10 11  1  0  0  0  0
 10 14  1  0  0  0  0
 11 18  1  0  0  0  0
 12 15  1  0  0  0  0
 12 20  1  0  0  0  0
 13 16  2  0  0  0  0
 13 21  1  0  0  0  0
 14 22  1  0  0  0  0
 14 23  1  0  0  0  0
 14 24  1  0  0  0  0
 15 17  2  0  0  0  0
 15 25  1  0  0  0  0
 16 17  1  0  0  0  0
 16 26  1  0  0  0  0
 18 27  1  0  0  0  0
 18 28  1  0  0  0  0
 18 29  1  0  0  0  0
M  END
> <PUBCHEM_COMPOUND_CID>
5344

> <PUBCHEM_CONFORMER_RMSD>
0.6

> <PUBCHEM_CONFORMER_DIVERSEORDER>
4
2
19
1
18
11
7
16
12
3
8
5
14
9
10
17
6
13
15

> <PUBCHEM_MMFF94_PARTIAL_CHARGES>
25
1 1.45
10 -0.18
11 0.11
12 -0.15
13 -0.15
14 0.18
15 -0.15
16 -0.15
17 0.1
18 0.18
19 0.42
2 -0.02
20 0.15
21 0.15
25 0.15
26 0.15
3 -0.65
30 0.4
31 0.4
4 -0.65
5 -0.7
6 -0.41
7 -0.9
8 -0.01
9 0.29

> <PUBCHEM_EFFECTIVE_ROTOR_COUNT>
3

> <PUBCHEM_PHARMACOPHORE_FEATURES>
8
1 3 acceptor
1 4 acceptor
1 5 donor
1 6 acceptor
1 7 cation
1 7 donor
5 2 6 9 10 11 rings
6 8 12 13 15 16 17 rings

> <PUBCHEM_HEAVY_ATOM_COUNT>
18

> <PUBCHEM_ATOM_DEF_STEREO_COUNT>
0

> <PUBCHEM_ATOM_UDEF_STEREO_COUNT>
0

> <PUBCHEM_BOND_DEF_STEREO_COUNT>
0

> <PUBCHEM_BOND_UDEF_STEREO_COUNT>
0

> <PUBCHEM_ISOTOPIC_ATOM_COUNT>
0

> <PUBCHEM_COMPONENT_COUNT>
1

> <PUBCHEM_CACTVS_TAUTO_COUNT>
3

> <PUBCHEM_CONFORMER_ID>
000014E000000004

> <PUBCHEM_MMFF94_ENERGY>
30.3629

> <PUBCHEM_FEATURE_SELFOVERLAP>
40.613

> <PUBCHEM_SHAPE_FINGERPRINT>
11046707 91 18407758131614737788
11578080 2 18042665329961952468
12236239 1 18040720251226553212
12251169 10 16272205297473414900
12346177 29 18272078427307920503
12507557 5 13901901237148497339
12553582 1 17749378282721865482
12633257 1 16773790424585264682
12670546 177 14201402711196296491
13675066 3 17632858628900487909
13862211 1 18270399512271845551
14252887 29 17203337684654662014
14341114 176 17917712418007789824
14386348 63 17918278640636690934
14576447 43 17023181592352996346
15188451 53 17774430703023008935
15885798 251 18342177769292898329
17804303 29 18413389852032281753
1798214 20 17530679909608993842
1813 80 18041005020385171220
18186145 218 13695585542359841324
18915474 69 17895196640421958302
19141452 34 17989205979929628519
193927 3 18334590043712591267
19784866 140 16370721509025284312
200 152 16805603634194324172
20279233 1 17346885563137455647
20281475 54 18336825389574903542
204376 136 13470687057363827013
20645477 70 15213289799500488482
21033648 29 16415189032091375107
21267235 1 18335709342360305379
212847 35 9655580690979626286
221357 26 14129052621264265655
22646028 1 18333731333821297023
22646028 28 18260546740317490882
22854114 59 15697999626159219228
23402539 116 17240761740565154916
23402655 69 13551188875186179250
235170 7 13840255966527998674
23559900 14 18060431200689166468
26918003 58 17346878953061545778
351380 180 16056880221576121187
351380 3 18040433282955341050
42 15 18202567284698149339
4325135 7 18335702776225650348
465052 167 18041009478830606635
4990 188 13190335764541212576
5104073 3 18129388266589564291
5385378 56 18053674582004685465
559249 180 18261951856528274899
5924683 9 16987988527124153399
602551 16 18342738516265628798
9981440 41 17181658905758532241

> <PUBCHEM_SHAPE_MULTIPOLES>
341.73
11.45
1.66
1.17
1.33
0.12
-0.12
5.3
2.17
0.95
-0.21
-1.03
-0.19
-0.49

> <PUBCHEM_SHAPE_SELFOVERLAP>
709.706

> <PUBCHEM_SHAPE_VOLUME>
196.1

> <PUBCHEM_COORDINATE_TYPE>
2
5
10

$$$$
