135418587
  -OEChem-11012401073D

  8  8  0     0  0  0  0  0  0999 V2000
   -2.0219    0.0000    0.0001 O   0  0  0  0  0  0  0  0  0  0  0  0
    0.0626   -1.0806    0.0001 N   0  0  0  0  0  0  0  0  0  0  0  0
    0.0630    1.0807   -0.0001 N   0  0  0  0  0  0  0  0  0  0  0  0
    1.3495   -0.6355   -0.0001 N   0  0  0  0  0  0  0  0  0  0  0  0
    1.3497    0.6353    0.0002 N   0  0  0  0  0  0  0  0  0  0  0  0
   -0.8029    0.0001   -0.0002 C   0  0  0  0  0  0  0  0  0  0  0  0
   -0.1475   -2.0702    0.0002 H   0  0  0  0  0  0  0  0  0  0  0  0
   -0.1469    2.0704    0.0001 H   0  0  0  0  0  0  0  0  0  0  0  0
  1  6  2  0  0  0  0
  2  4  1  0  0  0  0
  2  6  1  0  0  0  0
  2  7  1  0  0  0  0
  3  5  1  0  0  0  0
  3  6  1  0  0  0  0
  3  8  1  0  0  0  0
  4  5  2  0  0  0  0
M  END
> <PUBCHEM_COMPOUND_CID>
135418587

> <PUBCHEM_CONFORMER_RMSD>
0.4

> <PUBCHEM_CONFORMER_DIVERSEORDER>
1

> <PUBCHEM_MMFF94_PARTIAL_CHARGES>
8
1 -0.57
2 -0.37
3 -0.37
4 -0.06
5 -0.06
6 0.69
7 0.37
8 0.37

> <PUBCHEM_EFFECTIVE_ROTOR_COUNT>
0

> <PUBCHEM_PHARMACOPHORE_FEATURES>
4
1 1 acceptor
1 2 donor
1 3 donor
5 2 3 4 5 6 rings

> <PUBCHEM_HEAVY_ATOM_COUNT>
6

> <PUBCHEM_ATOM_DEF_STEREO_COUNT>
0

> <PUBCHEM_ATOM_UDEF_STEREO_COUNT>
0

> <PUBCHEM_BOND_DEF_STEREO_COUNT>
0

> <PUBCHEM_BOND_UDEF_STEREO_COUNT>
0

> <PUBCHEM_ISOTOPIC_ATOM_COUNT>
0

> <PUBCHEM_COMPONENT_COUNT>
1

> <PUBCHEM_CACTVS_TAUTO_COUNT>
-1

> <PUBCHEM_CONFORMER_ID>
081252DB00000001

> <PUBCHEM_MMFF94_ENERGY>
12.8474

> <PUBCHEM_FEATURE_SELFOVERLAP>
20.392

> <PUBCHEM_SHAPE_FINGERPRINT>
139733 1 9294991475535441251
20096714 4 18339644558794857065
21015797 1 9293843581164346866
21040471 1 18338516464133332932
29004967 10 18261118460662540209
5943 1 15872223024553507644

> <PUBCHEM_SHAPE_MULTIPOLES>
97.68
1.87
1.03
0.53
0.51
0
0
0
0
-0.2
0
0.01
0
0

> <PUBCHEM_SHAPE_SELFOVERLAP>
197.362

> <PUBCHEM_SHAPE_VOLUME>
58.6

> <PUBCHEM_COORDINATE_TYPE>
2
5
10

$$$$
