542691
  -OEChem-11012401193D

 15 15  0     0  0  0  0  0  0999 V2000
   -2.4845   -1.8153   -0.4499 O   0  5  0  0  0  0  0  0  0  0  0  0
   -3.1636    0.0299    0.5262 O   0  0  0  0  0  0  0  0  0  0  0  0
    2.8822   -1.5055    0.1221 O   0  5  0  0  0  0  0  0  0  0  0  0
    3.3741    0.6292   -0.0182 O   0  0  0  0  0  0  0  0  0  0  0  0
   -0.5792    1.1354   -0.0785 N   0  0  0  0  0  0  0  0  0  0  0  0
    0.7540    1.2854   -0.0797 N   0  0  0  0  0  0  0  0  0  0  0  0
    0.1553   -0.9180    0.0601 N   0  0  0  0  0  0  0  0  0  0  0  0
   -2.2337   -0.6700    0.0276 N   0  3  0  0  0  0  0  0  0  0  0  0
    2.5118   -0.2971    0.0376 N   0  3  0  0  0  0  0  0  0  0  0  0
   -0.9268   -0.1769    0.0046 C   0  0  0  0  0  0  0  0  0  0  0  0
    1.1517    0.0141    0.0054 C   0  0  0  0  0  0  0  0  0  0  0  0
   -1.4413    2.2888   -0.1573 C   0  0  0  0  0  0  0  0  0  0  0  0
   -1.9037    2.4433    0.8204 H   0  0  0  0  0  0  0  0  0  0  0  0
   -0.8459    3.1659   -0.4256 H   0  0  0  0  0  0  0  0  0  0  0  0
   -2.1957    2.1180   -0.9290 H   0  0  0  0  0  0  0  0  0  0  0  0
  1  8  1  0  0  0  0
  2  8  2  0  0  0  0
  3  9  1  0  0  0  0
  4  9  2  0  0  0  0
  5  6  1  0  0  0  0
  5 10  1  0  0  0  0
  5 12  1  0  0  0  0
  6 11  2  0  0  0  0
  7 10  2  0  0  0  0
  7 11  1  0  0  0  0
  8 10  1  0  0  0  0
  9 11  1  0  0  0  0
 12 13  1  0  0  0  0
 12 14  1  0  0  0  0
 12 15  1  0  0  0  0
M  CHG  4   1  -1   3  -1   8   1   9   1
M  END
> <PUBCHEM_COMPOUND_CID>
542691

> <PUBCHEM_CONFORMER_RMSD>
0.6

> <PUBCHEM_CONFORMER_DIVERSEORDER>
1
2

> <PUBCHEM_MMFF94_PARTIAL_CHARGES>
12
1 -0.52
10 0.27
11 0.6
12 0.26
2 -0.52
3 -0.52
4 -0.52
5 0.31
6 -0.71
7 -0.57
8 0.96
9 0.96

> <PUBCHEM_EFFECTIVE_ROTOR_COUNT>
2

> <PUBCHEM_PHARMACOPHORE_FEATURES>
7
1 1 acceptor
1 2 acceptor
1 3 acceptor
1 4 acceptor
4 5 7 8 10 cation
4 6 7 9 11 cation
5 5 6 7 10 11 rings

> <PUBCHEM_HEAVY_ATOM_COUNT>
12

> <PUBCHEM_ATOM_DEF_STEREO_COUNT>
0

> <PUBCHEM_ATOM_UDEF_STEREO_COUNT>
0

> <PUBCHEM_BOND_DEF_STEREO_COUNT>
0

> <PUBCHEM_BOND_UDEF_STEREO_COUNT>
0

> <PUBCHEM_ISOTOPIC_ATOM_COUNT>
0

> <PUBCHEM_COMPONENT_COUNT>
1

> <PUBCHEM_CACTVS_TAUTO_COUNT>
1

> <PUBCHEM_CONFORMER_ID>
000847E300000001

> <PUBCHEM_MMFF94_ENERGY>
27.2242

> <PUBCHEM_FEATURE_SELFOVERLAP>
35.838

> <PUBCHEM_SHAPE_FINGERPRINT>
10857977 72 18340756130833153864
12932764 1 17703779323973639100
14128692 85 18339364187645782141
14325111 11 18337391535247899280
16945 1 18411412912528777476
20871998 184 18272934908000184167
21040471 1 17977663104496612932
23552423 10 18187649046713839842
2748010 2 17906741297643656005
369184 2 18340765957749988376
6333449 129 18266737983051385317

> <PUBCHEM_SHAPE_MULTIPOLES>
198.57
4.6
1.86
0.58
1.77
0.5
0
-1.19
0.25
-0.87
-0.19
-0.12
-0.01
-0.14

> <PUBCHEM_SHAPE_SELFOVERLAP>
412.33

> <PUBCHEM_SHAPE_VOLUME>
113.2

> <PUBCHEM_COORDINATE_TYPE>
2
5
10

$$$$
