79111
  -OEChem-11012400593D

 17 16  0     1  0  0  0  0  0999 V2000
    3.1673   -0.7942   -0.1280 Cl  0  0  0  0  0  0  0  0  0  0  0  0
   -1.8392   -0.6906    0.4133 O   0  0  0  0  0  0  0  0  0  0  0  0
   -1.0472    1.0172   -0.9195 O   0  0  0  0  0  0  0  0  0  0  0  0
    1.6592    0.1698   -0.2185 C   0  0  1  0  0  0  0  0  0  0  0  0
    0.4378   -0.7507   -0.1479 C   0  0  0  0  0  0  0  0  0  0  0  0
    1.6516    1.1834    0.9189 C   0  0  0  0  0  0  0  0  0  0  0  0
   -0.8767   -0.0096   -0.2768 C   0  0  0  0  0  0  0  0  0  0  0  0
   -3.1529   -0.1252    0.3586 C   0  0  0  0  0  0  0  0  0  0  0  0
    1.6807    0.6992   -1.1770 H   0  0  0  0  0  0  0  0  0  0  0  0
    0.4706   -1.4945   -0.9525 H   0  0  0  0  0  0  0  0  0  0  0  0
    0.4448   -1.2899    0.8081 H   0  0  0  0  0  0  0  0  0  0  0  0
    2.5462    1.8152    0.8829 H   0  0  0  0  0  0  0  0  0  0  0  0
    1.6295    0.6897    1.8970 H   0  0  0  0  0  0  0  0  0  0  0  0
    0.7863    1.8506    0.8608 H   0  0  0  0  0  0  0  0  0  0  0  0
   -3.5116   -0.1000   -0.6749 H   0  0  0  0  0  0  0  0  0  0  0  0
   -3.1510    0.8794    0.7923 H   0  0  0  0  0  0  0  0  0  0  0  0
   -3.8211   -0.7600    0.9466 H   0  0  0  0  0  0  0  0  0  0  0  0
  1  4  1  0  0  0  0
  2  7  1  0  0  0  0
  2  8  1  0  0  0  0
  3  7  2  0  0  0  0
  4  5  1  0  0  0  0
  4  6  1  0  0  0  0
  4  9  1  0  0  0  0
  5  7  1  0  0  0  0
  5 10  1  0  0  0  0
  5 11  1  0  0  0  0
  6 12  1  0  0  0  0
  6 13  1  0  0  0  0
  6 14  1  0  0  0  0
  8 15  1  0  0  0  0
  8 16  1  0  0  0  0
  8 17  1  0  0  0  0
M  END
> <PUBCHEM_COMPOUND_CID>
79111

> <PUBCHEM_CONFORMER_RMSD>
0.6

> <PUBCHEM_CONFORMER_DIVERSEORDER>
1
12
8
3
6
7
10
11
5
4
2
9

> <PUBCHEM_MMFF94_PARTIAL_CHARGES>
7
1 -0.29
2 -0.43
3 -0.57
4 0.29
5 0.06
7 0.66
8 0.28

> <PUBCHEM_EFFECTIVE_ROTOR_COUNT>
3

> <PUBCHEM_PHARMACOPHORE_FEATURES>
1
1 3 acceptor

> <PUBCHEM_HEAVY_ATOM_COUNT>
8

> <PUBCHEM_ATOM_DEF_STEREO_COUNT>
0

> <PUBCHEM_ATOM_UDEF_STEREO_COUNT>
1

> <PUBCHEM_BOND_DEF_STEREO_COUNT>
0

> <PUBCHEM_BOND_UDEF_STEREO_COUNT>
0

> <PUBCHEM_ISOTOPIC_ATOM_COUNT>
0

> <PUBCHEM_COMPONENT_COUNT>
1

> <PUBCHEM_CACTVS_TAUTO_COUNT>
1

> <PUBCHEM_CONFORMER_ID>
0001350700000001

> <PUBCHEM_MMFF94_ENERGY>
8.5018

> <PUBCHEM_FEATURE_SELFOVERLAP>
5.074

> <PUBCHEM_SHAPE_FINGERPRINT>
10857977 72 17968657232665971097
11062470 55 8934999256783436526
12932741 1 18261376850116311772
12932764 1 18336255799517841214
14390081 3 17846499270380104865
21293036 1 12613045993397714730
29004967 10 17988645160200611086
5084963 1 18333170561463676556
5460574 1 11600006539782727806

> <PUBCHEM_SHAPE_MULTIPOLES>
154.77
4.64
1.11
0.84
0.74
0.24
0.06
-0.8
-0.62
-0.54
-0.11
0.1
0.16
0.35

> <PUBCHEM_SHAPE_SELFOVERLAP>
274.061

> <PUBCHEM_SHAPE_VOLUME>
102.4

> <PUBCHEM_COORDINATE_TYPE>
2
5
10

$$$$
