79409
  -OEChem-11012400313D

 33 34  0     0  0  0  0  0  0999 V2000
    0.9601    0.8200   -1.1963 O   0  0  0  0  0  0  0  0  0  0  0  0
    0.9598    0.8184    1.1966 O   0  0  0  0  0  0  0  0  0  0  0  0
    2.4689   -0.6826   -0.0003 C   0  0  0  0  0  0  0  0  0  0  0  0
    1.5922   -0.4585   -1.2395 C   0  0  0  0  0  0  0  0  0  0  0  0
    1.5908   -0.4607    1.2384 C   0  0  0  0  0  0  0  0  0  0  0  0
    0.1942    1.0495    0.0001 C   0  0  0  0  0  0  0  0  0  0  0  0
    3.0278   -2.1105   -0.0010 C   0  0  0  0  0  0  0  0  0  0  0  0
    3.6387    0.3197    0.0014 C   0  0  0  0  0  0  0  0  0  0  0  0
   -1.1607    0.3370    0.0000 C   0  0  0  0  0  0  0  0  0  0  0  0
   -0.0905    2.5598    0.0010 C   0  0  0  0  0  0  0  0  0  0  0  0
   -1.7721    0.0162   -1.2080 C   0  0  0  0  0  0  0  0  0  0  0  0
   -1.7718    0.0154    1.2080 C   0  0  0  0  0  0  0  0  0  0  0  0
   -3.0069   -0.6327   -1.2081 C   0  0  0  0  0  0  0  0  0  0  0  0
   -3.0065   -0.6336    1.2079 C   0  0  0  0  0  0  0  0  0  0  0  0
   -3.6241   -0.9575   -0.0003 C   0  0  0  0  0  0  0  0  0  0  0  0
    2.1942   -0.4966   -2.1544 H   0  0  0  0  0  0  0  0  0  0  0  0
    0.8279   -1.2392   -1.3318 H   0  0  0  0  0  0  0  0  0  0  0  0
    0.8262   -1.2411    1.3285 H   0  0  0  0  0  0  0  0  0  0  0  0
    2.1918   -0.5006    2.1539 H   0  0  0  0  0  0  0  0  0  0  0  0
    3.6474   -2.2919   -0.8863 H   0  0  0  0  0  0  0  0  0  0  0  0
    3.6464   -2.2932    0.8847 H   0  0  0  0  0  0  0  0  0  0  0  0
    2.2213   -2.8523   -0.0020 H   0  0  0  0  0  0  0  0  0  0  0  0
    3.2921    1.3586    0.0019 H   0  0  0  0  0  0  0  0  0  0  0  0
    4.2707    0.1826    0.8861 H   0  0  0  0  0  0  0  0  0  0  0  0
    4.2720    0.1840   -0.8827 H   0  0  0  0  0  0  0  0  0  0  0  0
   -0.6488    2.8690    0.8921 H   0  0  0  0  0  0  0  0  0  0  0  0
    0.8505    3.1237    0.0013 H   0  0  0  0  0  0  0  0  0  0  0  0
   -0.6488    2.8700   -0.8899 H   0  0  0  0  0  0  0  0  0  0  0  0
   -1.3162    0.2692   -2.1608 H   0  0  0  0  0  0  0  0  0  0  0  0
   -1.3158    0.2679    2.1608 H   0  0  0  0  0  0  0  0  0  0  0  0
   -3.4892   -0.8826   -2.1486 H   0  0  0  0  0  0  0  0  0  0  0  0
   -3.4886   -0.8842    2.1483 H   0  0  0  0  0  0  0  0  0  0  0  0
   -4.5861   -1.4615   -0.0002 H   0  0  0  0  0  0  0  0  0  0  0  0
  1  4  1  0  0  0  0
  1  6  1  0  0  0  0
  2  5  1  0  0  0  0
  2  6  1  0  0  0  0
  3  4  1  0  0  0  0
  3  5  1  0  0  0  0
  3  7  1  0  0  0  0
  3  8  1  0  0  0  0
  4 16  1  0  0  0  0
  4 17  1  0  0  0  0
  5 18  1  0  0  0  0
  5 19  1  0  0  0  0
  6  9  1  0  0  0  0
  6 10  1  0  0  0  0
  7 20  1  0  0  0  0
  7 21  1  0  0  0  0
  7 22  1  0  0  0  0
  8 23  1  0  0  0  0
  8 24  1  0  0  0  0
  8 25  1  0  0  0  0
  9 11  2  0  0  0  0
  9 12  1  0  0  0  0
 10 26  1  0  0  0  0
 10 27  1  0  0  0  0
 10 28  1  0  0  0  0
 11 13  1  0  0  0  0
 11 29  1  0  0  0  0
 12 14  2  0  0  0  0
 12 30  1  0  0  0  0
 13 15  2  0  0  0  0
 13 31  1  0  0  0  0
 14 15  1  0  0  0  0
 14 32  1  0  0  0  0
 15 33  1  0  0  0  0
M  END
> <PUBCHEM_COMPOUND_CID>
79409

> <PUBCHEM_CONFORMER_RMSD>
0.6

> <PUBCHEM_CONFORMER_DIVERSEORDER>
1
2
3

> <PUBCHEM_MMFF94_PARTIAL_CHARGES>
16
1 -0.56
11 -0.15
12 -0.15
13 -0.15
14 -0.15
15 -0.15
2 -0.56
29 0.15
30 0.15
31 0.15
32 0.15
33 0.15
4 0.28
5 0.28
6 0.7
9 -0.14

> <PUBCHEM_EFFECTIVE_ROTOR_COUNT>
2.2

> <PUBCHEM_PHARMACOPHORE_FEATURES>
5
1 1 acceptor
1 2 acceptor
3 3 7 8 hydrophobe
6 1 2 3 4 5 6 rings
6 9 11 12 13 14 15 rings

> <PUBCHEM_HEAVY_ATOM_COUNT>
15

> <PUBCHEM_ATOM_DEF_STEREO_COUNT>
0

> <PUBCHEM_ATOM_UDEF_STEREO_COUNT>
0

> <PUBCHEM_BOND_DEF_STEREO_COUNT>
0

> <PUBCHEM_BOND_UDEF_STEREO_COUNT>
0

> <PUBCHEM_ISOTOPIC_ATOM_COUNT>
0

> <PUBCHEM_COMPONENT_COUNT>
1

> <PUBCHEM_CACTVS_TAUTO_COUNT>
1

> <PUBCHEM_CONFORMER_ID>
0001363100000001

> <PUBCHEM_MMFF94_ENERGY>
47.66

> <PUBCHEM_FEATURE_SELFOVERLAP>
25.405

> <PUBCHEM_SHAPE_FINGERPRINT>
10062212 137 13767912538226802592
10465860 71 16877948200303092526
10618630 7 18337113375690626486
11578080 2 17702639117309993825
11769659 78 18265050241545884882
12251169 10 15913326905343119979
12326174 3 18193273215945985177
12382932 28 15913331264692824947
12696612 119 15626222450499078689
12897270 3 15574720222137230275
13296908 3 18336542737745576566
13299463 15 16515409572760788953
13581323 91 16343706547270344247
13705890 14 17603588530189895862
15375462 189 17988926673642266378
15906896 17 17903360308020916433
16945 1 18410856590237492484
18186145 218 16370735811408622942
200 152 18187081737437145918
20201158 50 17676206879073213883
20281407 28 18343580720259591494
20361792 2 18412825789513356933
20645477 70 18190171476996910039
20671657 53 17312822650043587366
20711985 344 18046334250013155825
21028194 46 10663817498667355245
21296965 67 18410571777854941037
21731516 1 18342457006459616442
22445834 79 17346882251754736527
230 275 12319466501571511803
231179 274 8790621285560554051
232386 152 16701743868639459917
23402539 116 18260546689357969698
23419403 2 14863618721772620808
23526113 38 18042103428100785205
23557571 272 17240477009518093452
23559900 14 17023170618774845552
25 1 11530759263015856222
296302 2 17821446876413657588
305870 269 9078851683070934153
549884 4 13840261485602762639
7364860 26 18193838377844519665
74978 22 18338236089306488587
81228 2 18191576450318868889
83771 10 18341896289867901714

> <PUBCHEM_SHAPE_MULTIPOLES>
296.95
5.72
1.7
1.36
0.38
0.61
0
-2.91
0
-0.69
0
0.47
-0.1
0

> <PUBCHEM_SHAPE_SELFOVERLAP>
622.124

> <PUBCHEM_SHAPE_VOLUME>
168

> <PUBCHEM_COORDINATE_TYPE>
2
5
10

$$$$
