13247
  -OEChem-11012400593D

 24 25  0     0  0  0  0  0  0999 V2000
   -1.8604    0.0693   -0.8110 O   0  0  0  0  0  0  0  0  0  0  0  0
   -2.3720    0.2689    1.4646 O   0  0  0  0  0  0  0  0  0  0  0  0
    0.4877    0.1571   -0.2514 C   0  0  0  0  0  0  0  0  0  0  0  0
    1.6661   -0.5424    0.1021 C   0  0  0  0  0  0  0  0  0  0  0  0
   -0.6990   -0.5623   -0.4675 C   0  0  0  0  0  0  0  0  0  0  0  0
    1.6231   -1.9404    0.2294 C   0  0  0  0  0  0  0  0  0  0  0  0
    0.5309    1.5550   -0.3783 C   0  0  0  0  0  0  0  0  0  0  0  0
    2.8528    0.1767    0.3184 C   0  0  0  0  0  0  0  0  0  0  0  0
   -0.7236   -1.9512   -0.3371 C   0  0  0  0  0  0  0  0  0  0  0  0
    0.4352   -2.6390    0.0110 C   0  0  0  0  0  0  0  0  0  0  0  0
    1.7187    2.2533   -0.1601 C   0  0  0  0  0  0  0  0  0  0  0  0
    2.8776    1.5655    0.1876 C   0  0  0  0  0  0  0  0  0  0  0  0
   -2.6450    0.4540    0.2860 C   0  0  0  0  0  0  0  0  0  0  0  0
   -3.8921    1.1356   -0.1937 C   0  0  0  0  0  0  0  0  0  0  0  0
    2.5168   -2.4986    0.5005 H   0  0  0  0  0  0  0  0  0  0  0  0
   -0.3537    2.1254   -0.6523 H   0  0  0  0  0  0  0  0  0  0  0  0
    3.7706   -0.3403    0.5911 H   0  0  0  0  0  0  0  0  0  0  0  0
   -1.6441   -2.5036   -0.5064 H   0  0  0  0  0  0  0  0  0  0  0  0
    0.4155   -3.7202    0.1124 H   0  0  0  0  0  0  0  0  0  0  0  0
    1.7391    3.3345   -0.2625 H   0  0  0  0  0  0  0  0  0  0  0  0
    3.8021    2.1097    0.3572 H   0  0  0  0  0  0  0  0  0  0  0  0
   -3.6276    2.0293   -0.7643 H   0  0  0  0  0  0  0  0  0  0  0  0
   -4.4952    1.4368    0.6675 H   0  0  0  0  0  0  0  0  0  0  0  0
   -4.4773    0.4458   -0.8065 H   0  0  0  0  0  0  0  0  0  0  0  0
  1  5  1  0  0  0  0
  1 13  1  0  0  0  0
  2 13  2  0  0  0  0
  3  4  1  0  0  0  0
  3  5  1  0  0  0  0
  3  7  2  0  0  0  0
  4  6  1  0  0  0  0
  4  8  2  0  0  0  0
  5  9  2  0  0  0  0
  6 10  2  0  0  0  0
  6 15  1  0  0  0  0
  7 11  1  0  0  0  0
  7 16  1  0  0  0  0
  8 12  1  0  0  0  0
  8 17  1  0  0  0  0
  9 10  1  0  0  0  0
  9 18  1  0  0  0  0
 10 19  1  0  0  0  0
 11 12  2  0  0  0  0
 11 20  1  0  0  0  0
 12 21  1  0  0  0  0
 13 14  1  0  0  0  0
 14 22  1  0  0  0  0
 14 23  1  0  0  0  0
 14 24  1  0  0  0  0
M  END
> <PUBCHEM_COMPOUND_CID>
13247

> <PUBCHEM_CONFORMER_RMSD>
0.6

> <PUBCHEM_CONFORMER_DIVERSEORDER>
1
3
8
5
2
6
4
7

> <PUBCHEM_MMFF94_PARTIAL_CHARGES>
19
1 -0.23
10 -0.15
11 -0.15
12 -0.15
13 0.66
14 0.06
15 0.15
16 0.15
17 0.15
18 0.15
19 0.15
2 -0.57
20 0.15
21 0.15
5 0.08
6 -0.15
7 -0.15
8 -0.15
9 -0.15

> <PUBCHEM_EFFECTIVE_ROTOR_COUNT>
2

> <PUBCHEM_PHARMACOPHORE_FEATURES>
3
1 2 acceptor
6 3 4 5 6 9 10 rings
6 3 4 7 8 11 12 rings

> <PUBCHEM_HEAVY_ATOM_COUNT>
14

> <PUBCHEM_ATOM_DEF_STEREO_COUNT>
0

> <PUBCHEM_ATOM_UDEF_STEREO_COUNT>
0

> <PUBCHEM_BOND_DEF_STEREO_COUNT>
0

> <PUBCHEM_BOND_UDEF_STEREO_COUNT>
0

> <PUBCHEM_ISOTOPIC_ATOM_COUNT>
0

> <PUBCHEM_COMPONENT_COUNT>
1

> <PUBCHEM_CACTVS_TAUTO_COUNT>
1

> <PUBCHEM_CONFORMER_ID>
000033BF00000001

> <PUBCHEM_MMFF94_ENERGY>
43.5914

> <PUBCHEM_FEATURE_SELFOVERLAP>
15.249

> <PUBCHEM_SHAPE_FINGERPRINT>
10219947 1 18337673014165973969
10465860 228 18270125591398582721
10967382 1 18338513045418473748
10980938 120 18409728426487220045
11471102 20 18337383834197438525
11471102 22 18261685782924343449
12202030 40 14419505123601009328
12346645 6 18339638941025028861
12382932 28 18339355366041555568
12491281 212 18191587673468729264
13140716 1 18337099172734705050
13172582 1 18336817645980951282
13380535 76 18339072808490577534
14251717 144 18338789031801448655
15309172 13 18409171038453215017
15775835 57 18273215313514460393
15906896 17 17984699180103379263
161256 15 18123753054400537910
16945 1 18410004412680310334
19049666 15 17607240961857109957
193761 8 18265893751526806422
20510252 161 17621318365440539616
21501502 16 18120649399584753604
21524375 3 18271807977190375061
21639500 275 18338497669810211197
2334 1 18121496023327112084
2748010 2 18337674234264006702
305870 269 18410292523070334832
528862 383 18336260158957028571
528886 8 18410848893460828424
63268167 104 18342173336833615441
7364860 26 18270681952518594727
77492 1 17703216326844182013
81228 2 17545885292022102034
8272917 22 18268716017781729325

> <PUBCHEM_SHAPE_MULTIPOLES>
276.37
4.7
2.59
0.82
3.24
0.95
0.13
-2.65
0.6
-1.15
-0.13
0.33
-0.04
-0.14

> <PUBCHEM_SHAPE_SELFOVERLAP>
601.143

> <PUBCHEM_SHAPE_VOLUME>
150

> <PUBCHEM_COORDINATE_TYPE>
2
5
10

$$$$
