5462960
  -OEChem-11012401163D

 11 11  0     0  0  0  0  0  0999 V2000
    3.0494    0.5519   -0.0546 O   0  5  0  0  0  0  0  0  0  0  0  0
    1.7515   -1.2235    0.0300 O   0  0  0  0  0  0  0  0  0  0  0  0
    0.7993    0.7705    0.0547 N   0  0  0  0  0  0  0  0  0  0  0  0
   -0.8126   -1.0138    0.0028 N   0  0  0  0  0  0  0  0  0  0  0  0
    1.9468   -0.0041   -0.0126 N   0  3  0  0  0  0  0  0  0  0  0  0
   -1.5178    1.1381    0.0070 N   0  0  0  0  0  0  0  0  0  0  0  0
   -2.1456   -0.8758   -0.0257 N   0  0  0  0  0  0  0  0  0  0  0  0
   -2.6084    0.3820   -0.0240 N   0  0  0  0  0  0  0  0  0  0  0  0
   -0.4627    0.2749    0.0224 C   0  0  0  0  0  0  0  0  0  0  0  0
    0.8901    1.7846    0.0757 H   0  0  0  0  0  0  0  0  0  0  0  0
   -2.7680   -1.6766   -0.0470 H   0  0  0  0  0  0  0  0  0  0  0  0
  1  5  1  0  0  0  0
  2  5  2  0  0  0  0
  3  5  1  0  0  0  0
  3  9  1  0  0  0  0
  3 10  1  0  0  0  0
  4  7  1  0  0  0  0
  4  9  2  0  0  0  0
  6  8  2  0  0  0  0
  6  9  1  0  0  0  0
  7  8  1  0  0  0  0
  7 11  1  0  0  0  0
M  CHG  2   1  -1   5   1
M  END
> <PUBCHEM_COMPOUND_CID>
5462960

> <PUBCHEM_CONFORMER_RMSD>
0.4

> <PUBCHEM_CONFORMER_DIVERSEORDER>
1
5
7
8
4
6
2
3

> <PUBCHEM_MMFF94_PARTIAL_CHARGES>
11
1 -0.52
10 0.4
11 0.27
2 -0.52
3 -0.49
4 -0.71
5 1.04
6 -0.23
7 0.57
8 -0.42
9 0.6

> <PUBCHEM_EFFECTIVE_ROTOR_COUNT>
2

> <PUBCHEM_PHARMACOPHORE_FEATURES>
5
1 1 acceptor
1 2 acceptor
1 3 donor
4 3 4 6 9 cation
5 4 6 7 8 9 rings

> <PUBCHEM_HEAVY_ATOM_COUNT>
9

> <PUBCHEM_ATOM_DEF_STEREO_COUNT>
0

> <PUBCHEM_ATOM_UDEF_STEREO_COUNT>
0

> <PUBCHEM_BOND_DEF_STEREO_COUNT>
0

> <PUBCHEM_BOND_UDEF_STEREO_COUNT>
0

> <PUBCHEM_ISOTOPIC_ATOM_COUNT>
0

> <PUBCHEM_COMPONENT_COUNT>
1

> <PUBCHEM_CACTVS_TAUTO_COUNT>
4

> <PUBCHEM_CONFORMER_ID>
00535BB000000001

> <PUBCHEM_MMFF94_ENERGY>
14.3001

> <PUBCHEM_FEATURE_SELFOVERLAP>
25.451

> <PUBCHEM_SHAPE_FINGERPRINT>
12897270 3 18410856585657597740
14325111 11 18410573951066142785
14390081 3 18343580754777786904
16714656 1 18409448085508437093
21040471 1 18411135796949101530
23552423 10 18260832553221856366
29004967 10 18187089468024786064
369184 2 18413387618401140585
5460574 1 9223234043919185344

> <PUBCHEM_SHAPE_MULTIPOLES>
143.59
3.86
1.13
0.52
1.27
0.15
0
-0.22
0.07
-0.1
-0.01
-0.01
-0.01
-0.02

> <PUBCHEM_SHAPE_SELFOVERLAP>
293.333

> <PUBCHEM_SHAPE_VOLUME>
83.5

> <PUBCHEM_COORDINATE_TYPE>
2
5
10

$$$$
