69064
  -OEChem-11012401073D

 20 21  0     0  0  0  0  0  0999 V2000
    1.9047   -2.5236    0.1737 O   0  0  0  0  0  0  0  0  0  0  0  0
   -3.1363    0.9175    0.7314 O   0  0  0  0  0  0  0  0  0  0  0  0
   -2.6157    0.6193   -0.3511 N   0  0  0  0  0  0  0  0  0  0  0  0
   -0.1920    0.5030   -0.1222 C   0  0  0  0  0  0  0  0  0  0  0  0
    0.9617   -0.3057    0.0116 C   0  0  0  0  0  0  0  0  0  0  0  0
   -1.4524   -0.1089   -0.2186 C   0  0  0  0  0  0  0  0  0  0  0  0
    0.8208   -1.7026    0.0453 C   0  0  0  0  0  0  0  0  0  0  0  0
   -0.0513    1.8999   -0.1562 C   0  0  0  0  0  0  0  0  0  0  0  0
    2.2220    0.3064    0.1075 C   0  0  0  0  0  0  0  0  0  0  0  0
   -1.5739   -1.4984   -0.1832 C   0  0  0  0  0  0  0  0  0  0  0  0
   -0.4394   -2.2938   -0.0512 C   0  0  0  0  0  0  0  0  0  0  0  0
    1.2087    2.4911   -0.0593 C   0  0  0  0  0  0  0  0  0  0  0  0
    2.3432    1.6958    0.0723 C   0  0  0  0  0  0  0  0  0  0  0  0
   -0.9074    2.5626   -0.2596 H   0  0  0  0  0  0  0  0  0  0  0  0
    3.1426   -0.2634    0.1954 H   0  0  0  0  0  0  0  0  0  0  0  0
   -2.5461   -1.9814   -0.2574 H   0  0  0  0  0  0  0  0  0  0  0  0
   -0.5421   -3.3754   -0.0243 H   0  0  0  0  0  0  0  0  0  0  0  0
    1.3042    3.5727   -0.0880 H   0  0  0  0  0  0  0  0  0  0  0  0
    3.3239    2.1572    0.1437 H   0  0  0  0  0  0  0  0  0  0  0  0
    2.6175   -2.0710    0.6505 H   0  0  0  0  0  0  0  0  0  0  0  0
  1  7  1  0  0  0  0
  1 20  1  0  0  0  0
  2  3  2  0  0  0  0
  3  6  1  0  0  0  0
  4  5  1  0  0  0  0
  4  6  1  0  0  0  0
  4  8  2  0  0  0  0
  5  7  1  0  0  0  0
  5  9  2  0  0  0  0
  6 10  2  0  0  0  0
  7 11  2  0  0  0  0
  8 12  1  0  0  0  0
  8 14  1  0  0  0  0
  9 13  1  0  0  0  0
  9 15  1  0  0  0  0
 10 11  1  0  0  0  0
 10 16  1  0  0  0  0
 11 17  1  0  0  0  0
 12 13  2  0  0  0  0
 12 18  1  0  0  0  0
 13 19  1  0  0  0  0
M  END
> <PUBCHEM_COMPOUND_CID>
69064

> <PUBCHEM_CONFORMER_RMSD>
0.4

> <PUBCHEM_CONFORMER_DIVERSEORDER>
1
2

> <PUBCHEM_MMFF94_PARTIAL_CHARGES>
18
1 -0.53
10 -0.15
11 -0.15
12 -0.15
13 -0.15
14 0.15
15 0.15
16 0.15
17 0.15
18 0.15
19 0.15
2 -0.16
20 0.45
3 -0.14
6 0.3
7 0.08
8 -0.15
9 -0.15

> <PUBCHEM_EFFECTIVE_ROTOR_COUNT>
1

> <PUBCHEM_PHARMACOPHORE_FEATURES>
3
1 1 donor
6 4 5 6 7 10 11 rings
6 4 5 8 9 12 13 rings

> <PUBCHEM_HEAVY_ATOM_COUNT>
13

> <PUBCHEM_ATOM_DEF_STEREO_COUNT>
0

> <PUBCHEM_ATOM_UDEF_STEREO_COUNT>
0

> <PUBCHEM_BOND_DEF_STEREO_COUNT>
0

> <PUBCHEM_BOND_UDEF_STEREO_COUNT>
0

> <PUBCHEM_ISOTOPIC_ATOM_COUNT>
0

> <PUBCHEM_COMPONENT_COUNT>
1

> <PUBCHEM_CACTVS_TAUTO_COUNT>
5

> <PUBCHEM_CONFORMER_ID>
00010DC800000001

> <PUBCHEM_MMFF94_ENERGY>
43.5135

> <PUBCHEM_FEATURE_SELFOVERLAP>
15.249

> <PUBCHEM_SHAPE_FINGERPRINT>
10967382 1 18410572851338159276
12423570 1 11296400764937489466
12524768 44 18336260163257218551
13140716 1 18338231682348465312
13380535 76 18265324178628014247
16945 1 18409724054152555468
193761 8 18338515360369351663
20510252 161 17694225873187211689
21040471 1 18122061176498860676
2334 1 18121778606289541852
23402539 116 17191501725096430886
23559900 14 18270412693700576844
241688 4 17762335808253902786
2748010 2 18193555790507793508
5084963 1 17769944802396123962
528886 8 18338792424498837576
63268167 104 18339922623847207097
66348 1 18339081480045073492
81228 2 17329147382390536720

> <PUBCHEM_SHAPE_MULTIPOLES>
250.81
3.41
2.87
0.65
0.45
1.06
-0.01
-1.52
-0.15
-0.48
-0.2
-0.08
-0.08
-0.24

> <PUBCHEM_SHAPE_SELFOVERLAP>
555.284

> <PUBCHEM_SHAPE_VOLUME>
135

> <PUBCHEM_COORDINATE_TYPE>
2
5
10

$$$$
