5462762
  -OEChem-11012400393D

 28 28  0     0  0  0  0  0  0999 V2000
   -0.8740    1.1169    0.3056 S   0  0  0  0  0  0  0  0  0  0  0  0
   -1.1297    1.2803    1.7272 O   0  0  0  0  0  0  0  0  0  0  0  0
   -0.9406    2.2715   -0.5752 O   0  0  0  0  0  0  0  0  0  0  0  0
    0.7539    0.4407    0.1341 C   0  0  0  0  0  0  0  0  0  0  0  0
    1.2905   -0.2910    1.1771 C   0  0  0  0  0  0  0  0  0  0  0  0
    1.4530    0.6588   -1.0385 C   0  0  0  0  0  0  0  0  0  0  0  0
    3.2950   -0.6149   -0.1318 C   0  0  0  0  0  0  0  0  0  0  0  0
   -1.8589   -0.1509   -0.3098 C   0  0  0  0  0  0  0  0  0  0  0  0
    2.5728   -0.8234    1.0430 C   0  0  0  0  0  0  0  0  0  0  0  0
    2.7352    0.1262   -1.1726 C   0  0  0  0  0  0  0  0  0  0  0  0
   -3.1821    0.0458   -0.3218 C   0  0  0  0  0  0  0  0  0  0  0  0
   -4.1617   -0.9687   -0.8339 C   0  0  0  0  0  0  0  0  0  0  0  0
    4.6659   -1.1847   -0.2759 C   0  0  0  0  0  0  0  0  0  0  0  0
   -4.6193   -1.9064    0.2725 C   0  0  0  0  0  0  0  0  0  0  0  0
    0.7408   -0.4704    2.0958 H   0  0  0  0  0  0  0  0  0  0  0  0
    1.0314    1.2256   -1.8626 H   0  0  0  0  0  0  0  0  0  0  0  0
   -1.4150   -1.0680   -0.6801 H   0  0  0  0  0  0  0  0  0  0  0  0
    2.9969   -1.4020    1.8594 H   0  0  0  0  0  0  0  0  0  0  0  0
    3.2868    0.2923   -2.0942 H   0  0  0  0  0  0  0  0  0  0  0  0
   -3.7137   -1.5556   -1.6448 H   0  0  0  0  0  0  0  0  0  0  0  0
   -5.0241   -0.4477   -1.2650 H   0  0  0  0  0  0  0  0  0  0  0  0
   -3.6054    0.9703    0.0637 H   0  0  0  0  0  0  0  0  0  0  0  0
    5.1695   -1.2533    0.6944 H   0  0  0  0  0  0  0  0  0  0  0  0
    4.6123   -2.1860   -0.7146 H   0  0  0  0  0  0  0  0  0  0  0  0
    5.2906   -0.5534   -0.9168 H   0  0  0  0  0  0  0  0  0  0  0  0
   -5.0973   -1.3528    1.0879 H   0  0  0  0  0  0  0  0  0  0  0  0
   -3.7784   -2.4704    0.6902 H   0  0  0  0  0  0  0  0  0  0  0  0
   -5.3460   -2.6254   -0.1190 H   0  0  0  0  0  0  0  0  0  0  0  0
  1  2  2  0  0  0  0
  1  3  2  0  0  0  0
  1  4  1  0  0  0  0
  1  8  1  0  0  0  0
  4  5  2  0  0  0  0
  4  6  1  0  0  0  0
  5  9  1  0  0  0  0
  5 15  1  0  0  0  0
  6 10  2  0  0  0  0
  6 16  1  0  0  0  0
  7  9  2  0  0  0  0
  7 10  1  0  0  0  0
  7 13  1  0  0  0  0
  8 11  2  0  0  0  0
  8 17  1  0  0  0  0
  9 18  1  0  0  0  0
 10 19  1  0  0  0  0
 11 12  1  0  0  0  0
 11 22  1  0  0  0  0
 12 14  1  0  0  0  0
 12 20  1  0  0  0  0
 12 21  1  0  0  0  0
 13 23  1  0  0  0  0
 13 24  1  0  0  0  0
 13 25  1  0  0  0  0
 14 26  1  0  0  0  0
 14 27  1  0  0  0  0
 14 28  1  0  0  0  0
M  END
> <PUBCHEM_COMPOUND_CID>
5462762

> <PUBCHEM_CONFORMER_RMSD>
0.6

> <PUBCHEM_CONFORMER_DIVERSEORDER>
1
5
3
2
4

> <PUBCHEM_MMFF94_PARTIAL_CHARGES>
19
1 1.33
10 -0.15
11 -0.29
12 0.14
13 0.14
15 0.15
16 0.15
17 0.15
18 0.15
19 0.15
2 -0.65
22 0.15
3 -0.65
4 -0.01
5 -0.15
6 -0.15
7 -0.14
8 -0.17
9 -0.15

> <PUBCHEM_EFFECTIVE_ROTOR_COUNT>
3

> <PUBCHEM_PHARMACOPHORE_FEATURES>
4
1 14 hydrophobe
1 2 acceptor
1 3 acceptor
6 4 5 6 7 9 10 rings

> <PUBCHEM_HEAVY_ATOM_COUNT>
14

> <PUBCHEM_ATOM_DEF_STEREO_COUNT>
0

> <PUBCHEM_ATOM_UDEF_STEREO_COUNT>
0

> <PUBCHEM_BOND_DEF_STEREO_COUNT>
1

> <PUBCHEM_BOND_UDEF_STEREO_COUNT>
0

> <PUBCHEM_ISOTOPIC_ATOM_COUNT>
0

> <PUBCHEM_COMPONENT_COUNT>
1

> <PUBCHEM_CACTVS_TAUTO_COUNT>
1

> <PUBCHEM_CONFORMER_ID>
00535AEA00000001

> <PUBCHEM_MMFF94_ENERGY>
16.3256

> <PUBCHEM_FEATURE_SELFOVERLAP>
20.315

> <PUBCHEM_SHAPE_FINGERPRINT>
10618630 7 18131068242604126503
11046707 91 18342738503106257975
11543360 7 16805320037387861319
11806522 49 18259702302982329612
12251169 10 14261349176238325733
12633257 1 15626220242918037183
12892183 10 13973975315524063055
13705890 14 18040713696805785766
14123255 352 8286202738506514063
14123255 52 9511461121573099567
14252887 29 16343990199748118486
14576447 43 17967248698152239138
14993402 34 17749392538119325262
16945 1 16806183055447552464
17844478 74 16271925982717600224
18186145 218 15574429921266574461
18915474 69 18187928425593776319
193927 3 18342468066375164511
200 152 17894352163603786304
20112054 13 10807937059062148899
20361792 2 18340479058530380413
20388580 30 18264489653934999565
20671657 53 18336267924521851861
20871999 31 17967242092856093207
21041028 32 15913326879836905416
21061003 4 16845280636126281057
21119208 17 17458340840620956479
21256008 61 18040997345494812766
21524375 3 7925642102502333781
21713013 43 17458899448805871599
22926399 65 11458430128308208694
231179 274 7997975677879436502
23382010 3 15936687168352752137
23402539 116 18259984838425604846
23402655 69 16588295043372884039
23557571 272 18058165034025493264
25 1 15068618245297515697
2748010 2 16372727104582177572
31174 14 16916490545432864952
328317 168 12829488164460917603
4028521 119 12685089285168342335
465052 167 18267030642824931727
83771 10 18060698407494096255

> <PUBCHEM_SHAPE_MULTIPOLES>
280.22
8.38
1.64
1.23
3.19
0.28
-0.25
-6.09
1.62
1.08
-0.06
-0.26
0.17
-0.34

> <PUBCHEM_SHAPE_SELFOVERLAP>
558.103

> <PUBCHEM_SHAPE_VOLUME>
166.4

> <PUBCHEM_COORDINATE_TYPE>
2
5
10

$$$$
