143198
  -OEChem-11012401033D

 20 21  0     0  0  0  0  0  0999 V2000
    4.3663    0.4117    0.0005 O   0  0  0  0  0  0  0  0  0  0  0  0
    3.5656   -1.7047    0.0017 O   0  0  0  0  0  0  0  0  0  0  0  0
   -0.0119    0.3436   -0.0023 N   0  0  0  0  0  0  0  0  0  0  0  0
    0.9057   -0.6385   -0.0004 N   0  0  0  0  0  0  0  0  0  0  0  0
    0.4769    1.5954   -0.0021 N   0  0  0  0  0  0  0  0  0  0  0  0
    1.7957    1.4438   -0.0004 N   0  0  0  0  0  0  0  0  0  0  0  0
   -1.3701    0.0841   -0.0006 C   0  0  0  0  0  0  0  0  0  0  0  0
   -2.2818    1.1397    0.0016 C   0  0  0  0  0  0  0  0  0  0  0  0
   -1.8285   -1.2333   -0.0019 C   0  0  0  0  0  0  0  0  0  0  0  0
   -3.6519    0.8781    0.0026 C   0  0  0  0  0  0  0  0  0  0  0  0
   -3.1986   -1.4950   -0.0011 C   0  0  0  0  0  0  0  0  0  0  0  0
   -4.1103   -0.4393    0.0011 C   0  0  0  0  0  0  0  0  0  0  0  0
    2.0190    0.0989    0.0005 C   0  0  0  0  0  0  0  0  0  0  0  0
    3.3238   -0.4845    0.0008 C   0  0  0  0  0  0  0  0  0  0  0  0
   -1.9650    2.1794    0.0025 H   0  0  0  0  0  0  0  0  0  0  0  0
   -1.1506   -2.0829   -0.0039 H   0  0  0  0  0  0  0  0  0  0  0  0
   -4.3623    1.6997    0.0043 H   0  0  0  0  0  0  0  0  0  0  0  0
   -3.5561   -2.5206   -0.0023 H   0  0  0  0  0  0  0  0  0  0  0  0
   -5.1771   -0.6431    0.0017 H   0  0  0  0  0  0  0  0  0  0  0  0
    5.2346   -0.0450    0.0009 H   0  0  0  0  0  0  0  0  0  0  0  0
  1 14  1  0  0  0  0
  1 20  1  0  0  0  0
  2 14  2  0  0  0  0
  3  4  1  0  0  0  0
  3  5  1  0  0  0  0
  3  7  1  0  0  0  0
  4 13  2  0  0  0  0
  5  6  2  0  0  0  0
  6 13  1  0  0  0  0
  7  8  2  0  0  0  0
  7  9  1  0  0  0  0
  8 10  1  0  0  0  0
  8 15  1  0  0  0  0
  9 11  2  0  0  0  0
  9 16  1  0  0  0  0
 10 12  2  0  0  0  0
 10 17  1  0  0  0  0
 11 12  1  0  0  0  0
 11 18  1  0  0  0  0
 12 19  1  0  0  0  0
 13 14  1  0  0  0  0
M  END
> <PUBCHEM_COMPOUND_CID>
143198

> <PUBCHEM_CONFORMER_RMSD>
0.6

> <PUBCHEM_CONFORMER_DIVERSEORDER>
1

> <PUBCHEM_MMFF94_PARTIAL_CHARGES>
20
1 -0.65
10 -0.15
11 -0.15
12 -0.15
13 0.43
14 0.81
15 0.15
16 0.15
17 0.15
18 0.15
19 0.15
2 -0.57
20 0.5
3 0.86
4 -0.71
5 -0.42
6 -0.23
7 -0.02
8 -0.15
9 -0.15

> <PUBCHEM_EFFECTIVE_ROTOR_COUNT>
2

> <PUBCHEM_PHARMACOPHORE_FEATURES>
6
1 1 acceptor
1 2 acceptor
3 1 2 14 anion
3 4 6 13 cation
5 3 4 5 6 13 rings
6 7 8 9 10 11 12 rings

> <PUBCHEM_HEAVY_ATOM_COUNT>
14

> <PUBCHEM_ATOM_DEF_STEREO_COUNT>
0

> <PUBCHEM_ATOM_UDEF_STEREO_COUNT>
0

> <PUBCHEM_BOND_DEF_STEREO_COUNT>
0

> <PUBCHEM_BOND_UDEF_STEREO_COUNT>
0

> <PUBCHEM_ISOTOPIC_ATOM_COUNT>
0

> <PUBCHEM_COMPONENT_COUNT>
1

> <PUBCHEM_CACTVS_TAUTO_COUNT>
1

> <PUBCHEM_CONFORMER_ID>
00022F5E00000001

> <PUBCHEM_MMFF94_ENERGY>
27.5109

> <PUBCHEM_FEATURE_SELFOVERLAP>
30.506

> <PUBCHEM_SHAPE_FINGERPRINT>
10130415 120 18343302556729202465
10608611 8 18411414042401017161
11769659 78 18341046406292909775
12032990 46 18410859849605928271
124424 183 18411416198547959149
12932764 1 17560518542063009157
13296908 3 18412262826648737734
13690532 89 18410854348201221503
14144814 61 18410855447343571299
14252887 29 17988933262396353062
14325111 11 18410855486135491813
14965852 173 18411980286688877771
15196674 1 18410573963724366759
15242433 33 18408608050013873654
15375462 189 18114178592786793362
15442244 35 18339362963633084152
15536298 74 18342175617635543776
17804303 29 18412831282845152141
18186145 218 17167860876352479759
18522853 276 18342458149142463385
19422 9 18335144197562167911
200 152 17989197162588155407
20201158 50 18341896281547226303
20281475 54 18407760330817393382
20645477 70 18341049623287166470
21267235 1 18410583893715193835
21501925 9 18411693318354030632
221490 88 18191031298682976819
22485316 2 18409445877842518898
2255824 54 17894914070281022800
23402539 116 18131625665610020597
23463225 33 18410576171358558622
23559900 14 18341608179815474298
42 15 18410294704945343739
4990 188 11530759272017267384
5104073 3 18411136926525494851
69090 78 18343860031063577415
7364860 26 18196653110468836240
77779 3 18409450292863086412
8809292 202 18261396693171408299
9709674 26 18410862083015906638

> <PUBCHEM_SHAPE_MULTIPOLES>
256.45
7.9
1.57
0.58
2.7
0.08
0
1.48
-0.01
-0.13
0
-0.09
0.01
0

> <PUBCHEM_SHAPE_SELFOVERLAP>
554.092

> <PUBCHEM_SHAPE_VOLUME>
141.2

> <PUBCHEM_COORDINATE_TYPE>
2
5
10

$$$$
