61588
  -OEChem-11012401283D

 35 35  0     1  0  0  0  0  0999 V2000
   -0.7166    1.8472   -0.2197 O   0  0  0  0  0  0  0  0  0  0  0  0
    1.2053   -1.7466    0.4445 O   0  0  0  0  0  0  0  0  0  0  0  0
   -1.2271   -1.7000   -1.0829 O   0  0  0  0  0  0  0  0  0  0  0  0
    2.7516    0.6762    0.1070 O   0  0  0  0  0  0  0  0  0  0  0  0
    1.1394    2.1366   -1.6659 O   0  0  0  0  0  0  0  0  0  0  0  0
   -3.1307    0.7765    0.6290 O   0  0  0  0  0  0  0  0  0  0  0  0
    2.8540   -1.9139   -1.0140 O   0  5  0  0  0  0  0  0  0  0  0  0
    3.1927   -2.6673    1.0569 O   0  0  0  0  0  0  0  0  0  0  0  0
   -1.3657   -2.7834    0.8392 O   0  5  0  0  0  0  0  0  0  0  0  0
   -1.0333   -3.9648   -1.0223 O   0  0  0  0  0  0  0  0  0  0  0  0
    2.6525    2.1346    1.7683 O   0  5  0  0  0  0  0  0  0  0  0  0
    4.6498    1.6341    0.9128 O   0  0  0  0  0  0  0  0  0  0  0  0
   -5.2049    1.0023   -0.1258 O   0  5  0  0  0  0  0  0  0  0  0  0
   -4.8845    0.8289    2.0740 O   0  0  0  0  0  0  0  0  0  0  0  0
    2.5346   -2.1493    0.1519 N   0  3  0  0  0  0  0  0  0  0  0  0
   -1.2047   -2.9307   -0.3729 N   0  3  0  0  0  0  0  0  0  0  0  0
    3.4224    1.5546    1.0017 N   0  3  0  0  0  0  0  0  0  0  0  0
   -4.5270    0.8769    0.8948 N   0  3  0  0  0  0  0  0  0  0  0  0
    0.7724   -0.6245   -0.3281 C   0  0  1  0  0  0  0  0  0  0  0  0
   -0.7573   -0.5945   -0.3151 C   0  0  1  0  0  0  0  0  0  0  0  0
    1.3399    0.6536    0.2860 C   0  0  2  0  0  0  0  0  0  0  0  0
   -1.2913    0.7224   -0.8947 C   0  0  1  0  0  0  0  0  0  0  0  0
    0.7073    1.9041   -0.3266 C   0  0  2  0  0  0  0  0  0  0  0  0
   -2.8059    0.8407   -0.7475 C   0  0  0  0  0  0  0  0  0  0  0  0
    0.9269    3.4862   -2.0506 C   0  0  0  0  0  0  0  0  0  0  0  0
    1.0751   -0.7168   -1.3797 H   0  0  0  0  0  0  0  0  0  0  0  0
   -1.0880   -0.6359    0.7309 H   0  0  0  0  0  0  0  0  0  0  0  0
    1.0813    0.5876    1.3540 H   0  0  0  0  0  0  0  0  0  0  0  0
   -1.0588    0.7858   -1.9657 H   0  0  0  0  0  0  0  0  0  0  0  0
    1.0013    2.7766    0.2642 H   0  0  0  0  0  0  0  0  0  0  0  0
   -3.2925    0.0282   -1.3009 H   0  0  0  0  0  0  0  0  0  0  0  0
   -3.1212    1.8104   -1.1537 H   0  0  0  0  0  0  0  0  0  0  0  0
   -0.1317    3.7530   -1.9751 H   0  0  0  0  0  0  0  0  0  0  0  0
    1.5329    4.1623   -1.4395 H   0  0  0  0  0  0  0  0  0  0  0  0
    1.2366    3.5968   -3.0934 H   0  0  0  0  0  0  0  0  0  0  0  0
  1 22  1  0  0  0  0
  1 23  1  0  0  0  0
  2 15  1  0  0  0  0
  2 19  1  0  0  0  0
  3 16  1  0  0  0  0
  3 20  1  0  0  0  0
  4 17  1  0  0  0  0
  4 21  1  0  0  0  0
  5 23  1  0  0  0  0
  5 25  1  0  0  0  0
  6 18  1  0  0  0  0
  6 24  1  0  0  0  0
  7 15  1  0  0  0  0
  8 15  2  0  0  0  0
  9 16  1  0  0  0  0
 10 16  2  0  0  0  0
 11 17  1  0  0  0  0
 12 17  2  0  0  0  0
 13 18  1  0  0  0  0
 14 18  2  0  0  0  0
 19 20  1  0  0  0  0
 19 21  1  0  0  0  0
 19 26  1  0  0  0  0
 20 22  1  0  0  0  0
 20 27  1  0  0  0  0
 21 23  1  0  0  0  0
 21 28  1  0  0  0  0
 22 24  1  0  0  0  0
 22 29  1  0  0  0  0
 23 30  1  0  0  0  0
 24 31  1  0  0  0  0
 24 32  1  0  0  0  0
 25 33  1  0  0  0  0
 25 34  1  0  0  0  0
 25 35  1  0  0  0  0
M  CHG  8   7  -1   9  -1  11  -1  13  -1  15   1  16   1  17   1  18   1
M  END
> <PUBCHEM_COMPOUND_CID>
61588

> <PUBCHEM_CONFORMER_RMSD>
1

> <PUBCHEM_CONFORMER_DIVERSEORDER>
1
11
6
10
7
5
2
4
3
9
8

> <PUBCHEM_MMFF94_PARTIAL_CHARGES>
25
1 -0.56
10 -0.52
11 -0.52
12 -0.52
13 -0.52
14 -0.52
15 1.03
16 1.03
17 1.03
18 1.03
19 0.28
2 -0.27
20 0.28
21 0.28
22 0.28
23 0.56
24 0.28
25 0.28
3 -0.27
4 -0.27
5 -0.56
6 -0.27
7 -0.52
8 -0.52
9 -0.52

> <PUBCHEM_EFFECTIVE_ROTOR_COUNT>
11.2

> <PUBCHEM_PHARMACOPHORE_FEATURES>
11
1 1 acceptor
1 10 acceptor
1 11 acceptor
1 12 acceptor
1 13 acceptor
1 14 acceptor
1 5 acceptor
1 7 acceptor
1 8 acceptor
1 9 acceptor
6 1 19 20 21 22 23 rings

> <PUBCHEM_HEAVY_ATOM_COUNT>
25

> <PUBCHEM_ATOM_DEF_STEREO_COUNT>
5

> <PUBCHEM_ATOM_UDEF_STEREO_COUNT>
0

> <PUBCHEM_BOND_DEF_STEREO_COUNT>
0

> <PUBCHEM_BOND_UDEF_STEREO_COUNT>
0

> <PUBCHEM_ISOTOPIC_ATOM_COUNT>
0

> <PUBCHEM_COMPONENT_COUNT>
1

> <PUBCHEM_CACTVS_TAUTO_COUNT>
1

> <PUBCHEM_CONFORMER_ID>
0000F09400000001

> <PUBCHEM_MMFF94_ENERGY>
91.9855

> <PUBCHEM_FEATURE_SELFOVERLAP>
56.153

> <PUBCHEM_SHAPE_FINGERPRINT>
10382601 240 18335974316504960848
10493431 412 18412259575200453633
11680986 33 18409454695320882235
12390115 104 17982453999319931464
12633257 1 18269533006408053402
12788726 201 17330850517428156317
12930653 34 17913760889081478760
13140716 1 18120652689071448400
14178342 30 18194673989559334338
14955137 171 18114192972770440268
16945 1 18334286608647386612
20739085 24 18192730959255837193
21033648 29 18269254846872704513
22182313 1 18116137883837330596
23184049 59 18339642235491798091
2334 1 18337095809226790023
23558518 356 17903072574980917192
2748010 2 18117261567488203444
283562 15 17692796499602539322
3380486 145 17897417640888157380
59554788 170 18264204717172554212

> <PUBCHEM_SHAPE_MULTIPOLES>
412.39
7.14
4.14
1.5
5.45
2.49
0.12
-2.7
4.22
-1.68
-1.44
0.11
-0.85
-0.34

> <PUBCHEM_SHAPE_SELFOVERLAP>
835.231

> <PUBCHEM_SHAPE_VOLUME>
237.5

> <PUBCHEM_COORDINATE_TYPE>
2
5
10

$$$$
