138212
  -OEChem-11012400513D

 28 28  0     1  0  0  0  0  0999 V2000
   -1.4131   -1.4034   -0.8847 O   0  0  0  0  0  0  0  0  0  0  0  0
   -1.0427   -0.5246    0.1870 C   0  0  2  0  0  0  0  0  0  0  0  0
   -1.9003    0.7826    0.0794 C   0  0  0  0  0  0  0  0  0  0  0  0
    0.4585   -0.2140    0.1025 C   0  0  0  0  0  0  0  0  0  0  0  0
   -1.3113   -1.2965    1.4936 C   0  0  0  0  0  0  0  0  0  0  0  0
   -3.4123    0.5353    0.1940 C   0  0  0  0  0  0  0  0  0  0  0  0
   -1.6400    1.5396   -1.2342 C   0  0  0  0  0  0  0  0  0  0  0  0
    1.0261    0.5444    1.0970 C   0  0  0  0  0  0  0  0  0  0  0  0
    1.1690   -0.7075   -0.9642 C   0  0  0  0  0  0  0  0  0  0  0  0
    2.3900    0.8270    1.0200 C   0  0  0  0  0  0  0  0  0  0  0  0
    2.5328   -0.4252   -1.0412 C   0  0  0  0  0  0  0  0  0  0  0  0
    3.1433    0.3422   -0.0491 C   0  0  0  0  0  0  0  0  0  0  0  0
   -1.6266    1.4571    0.9014 H   0  0  0  0  0  0  0  0  0  0  0  0
   -0.6296   -2.1508    1.5907 H   0  0  0  0  0  0  0  0  0  0  0  0
   -2.3211   -1.7217    1.4989 H   0  0  0  0  0  0  0  0  0  0  0  0
   -1.2005   -0.6689    2.3835 H   0  0  0  0  0  0  0  0  0  0  0  0
   -3.7661   -0.1565   -0.5773 H   0  0  0  0  0  0  0  0  0  0  0  0
   -3.9681    1.4731    0.0839 H   0  0  0  0  0  0  0  0  0  0  0  0
   -3.6732    0.1213    1.1725 H   0  0  0  0  0  0  0  0  0  0  0  0
   -1.9886    0.9859   -2.1113 H   0  0  0  0  0  0  0  0  0  0  0  0
   -0.5818    1.7786   -1.3719 H   0  0  0  0  0  0  0  0  0  0  0  0
   -2.1780    2.4950   -1.2270 H   0  0  0  0  0  0  0  0  0  0  0  0
   -1.3947   -0.9196   -1.7255 H   0  0  0  0  0  0  0  0  0  0  0  0
    0.4561    0.9334    1.9340 H   0  0  0  0  0  0  0  0  0  0  0  0
    0.7381   -1.3095   -1.7558 H   0  0  0  0  0  0  0  0  0  0  0  0
    2.8653    1.4253    1.7920 H   0  0  0  0  0  0  0  0  0  0  0  0
    3.1202   -0.8029   -1.8731 H   0  0  0  0  0  0  0  0  0  0  0  0
    4.2051    0.5622   -0.1092 H   0  0  0  0  0  0  0  0  0  0  0  0
  1  2  1  0  0  0  0
  1 23  1  0  0  0  0
  2  3  1  0  0  0  0
  2  4  1  0  0  0  0
  2  5  1  0  0  0  0
  3  6  1  0  0  0  0
  3  7  1  0  0  0  0
  3 13  1  0  0  0  0
  4  8  2  0  0  0  0
  4  9  1  0  0  0  0
  5 14  1  0  0  0  0
  5 15  1  0  0  0  0
  5 16  1  0  0  0  0
  6 17  1  0  0  0  0
  6 18  1  0  0  0  0
  6 19  1  0  0  0  0
  7 20  1  0  0  0  0
  7 21  1  0  0  0  0
  7 22  1  0  0  0  0
  8 10  1  0  0  0  0
  8 24  1  0  0  0  0
  9 11  2  0  0  0  0
  9 25  1  0  0  0  0
 10 12  2  0  0  0  0
 10 26  1  0  0  0  0
 11 12  1  0  0  0  0
 11 27  1  0  0  0  0
 12 28  1  0  0  0  0
M  END
> <PUBCHEM_COMPOUND_CID>
138212

> <PUBCHEM_CONFORMER_RMSD>
0.6

> <PUBCHEM_CONFORMER_DIVERSEORDER>
1
6
2
5
4
3

> <PUBCHEM_MMFF94_PARTIAL_CHARGES>
14
1 -0.68
10 -0.15
11 -0.15
12 -0.15
2 0.42
23 0.4
24 0.15
25 0.15
26 0.15
27 0.15
28 0.15
4 -0.14
8 -0.15
9 -0.15

> <PUBCHEM_EFFECTIVE_ROTOR_COUNT>
2

> <PUBCHEM_PHARMACOPHORE_FEATURES>
4
1 1 acceptor
1 1 donor
3 3 6 7 hydrophobe
6 4 8 9 10 11 12 rings

> <PUBCHEM_HEAVY_ATOM_COUNT>
12

> <PUBCHEM_ATOM_DEF_STEREO_COUNT>
0

> <PUBCHEM_ATOM_UDEF_STEREO_COUNT>
1

> <PUBCHEM_BOND_DEF_STEREO_COUNT>
0

> <PUBCHEM_BOND_UDEF_STEREO_COUNT>
0

> <PUBCHEM_ISOTOPIC_ATOM_COUNT>
0

> <PUBCHEM_COMPONENT_COUNT>
1

> <PUBCHEM_CACTVS_TAUTO_COUNT>
1

> <PUBCHEM_CONFORMER_ID>
00021BE400000001

> <PUBCHEM_MMFF94_ENERGY>
39.8875

> <PUBCHEM_FEATURE_SELFOVERLAP>
20.297

> <PUBCHEM_SHAPE_FINGERPRINT>
11031198 65 17704077299851015996
12138202 97 18341600529830023263
12423570 1 8418425316884935467
124424 183 18340763759143496794
12716758 59 18187088317079078250
12932764 1 18413110576041883834
13024252 1 17240479230253431923
13538477 17 17022908981550416067
13581323 91 17967246490295981664
13839132 238 18189329070052450380
14128692 85 14476377344977554004
15219456 202 18060419157162784418
15775835 57 18261387798183218889
16945 1 18129932386741519560
17844478 74 18341062868955283577
18186145 218 17775005627007257585
20201158 50 17846783979361629222
20653085 51 17989491796880651753
21028194 46 18188487965205657073
21930827 45 18333456447313908171
22802520 49 18263660488659731630
23236772 104 16226626206637361960
23402539 116 18114452422858737007
23402655 69 17203325564204594737
25 1 17774165582774903993
25610 171 18187645855183978057
2748010 2 17345753152313230734
276578 36 17895480202594272801
305870 269 17387682813015356755
3248919 1 17749383815009014226
369184 2 13479129111920715425
5084963 1 18116158757588871973
528886 8 17418088810765140306
63268167 104 16845294938562354058
77492 1 16225770743609598363
81228 2 18117281569583482515

> <PUBCHEM_SHAPE_MULTIPOLES>
241.09
4.61
1.37
1.31
0.2
0.07
0.17
-0.74
-0.72
-0.87
-0.08
0.36
0
-0.53

> <PUBCHEM_SHAPE_SELFOVERLAP>
491.289

> <PUBCHEM_SHAPE_VOLUME>
141.7

> <PUBCHEM_COORDINATE_TYPE>
2
5
10

$$$$
