2817
  -OEChem-11012401083D

 18 19  0     0  0  0  0  0  0999 V2000
   -1.7317   -2.7995    0.0000 Cl  0  0  0  0  0  0  0  0  0  0  0  0
   -0.4087    2.9232   -0.0002 O   0  0  0  0  0  0  0  0  0  0  0  0
    1.6615    1.1080    0.0001 N   0  0  0  0  0  0  0  0  0  0  0  0
    0.0756   -0.7064   -0.0001 C   0  0  0  0  0  0  0  0  0  0  0  0
    0.3886    0.6690    0.0000 C   0  0  0  0  0  0  0  0  0  0  0  0
   -0.6641    1.5802    0.0001 C   0  0  0  0  0  0  0  0  0  0  0  0
   -1.2645   -1.1292    0.0000 C   0  0  0  0  0  0  0  0  0  0  0  0
    1.1348   -1.6241   -0.0001 C   0  0  0  0  0  0  0  0  0  0  0  0
   -1.9965    1.1601    0.0001 C   0  0  0  0  0  0  0  0  0  0  0  0
   -2.2973   -0.1963    0.0000 C   0  0  0  0  0  0  0  0  0  0  0  0
    2.4475   -1.1747    0.0000 C   0  0  0  0  0  0  0  0  0  0  0  0
    2.6547    0.1897    0.0001 C   0  0  0  0  0  0  0  0  0  0  0  0
    0.9730   -2.6982   -0.0001 H   0  0  0  0  0  0  0  0  0  0  0  0
   -2.8075    1.8835    0.0001 H   0  0  0  0  0  0  0  0  0  0  0  0
   -3.3388   -0.5073    0.0001 H   0  0  0  0  0  0  0  0  0  0  0  0
    3.2788   -1.8699    0.0000 H   0  0  0  0  0  0  0  0  0  0  0  0
    3.6595    0.5994    0.0001 H   0  0  0  0  0  0  0  0  0  0  0  0
   -1.2515    3.4086   -0.0001 H   0  0  0  0  0  0  0  0  0  0  0  0
  1  7  1  0  0  0  0
  2  6  1  0  0  0  0
  2 18  1  0  0  0  0
  3  5  1  0  0  0  0
  3 12  2  0  0  0  0
  4  5  1  0  0  0  0
  4  7  2  0  0  0  0
  4  8  1  0  0  0  0
  5  6  2  0  0  0  0
  6  9  1  0  0  0  0
  7 10  1  0  0  0  0
  8 11  2  0  0  0  0
  8 13  1  0  0  0  0
  9 10  2  0  0  0  0
  9 14  1  0  0  0  0
 10 15  1  0  0  0  0
 11 12  1  0  0  0  0
 11 16  1  0  0  0  0
 12 17  1  0  0  0  0
M  END
> <PUBCHEM_COMPOUND_CID>
2817

> <PUBCHEM_CONFORMER_RMSD>
0.4

> <PUBCHEM_CONFORMER_DIVERSEORDER>
1

> <PUBCHEM_MMFF94_PARTIAL_CHARGES>
17
1 -0.18
10 -0.15
11 -0.15
12 0.16
13 0.15
14 0.15
15 0.15
16 0.15
17 0.15
18 0.45
2 -0.53
3 -0.62
5 0.31
6 0.08
7 0.18
8 -0.15
9 -0.15

> <PUBCHEM_EFFECTIVE_ROTOR_COUNT>
0

> <PUBCHEM_PHARMACOPHORE_FEATURES>
4
1 2 donor
1 3 acceptor
6 3 4 5 8 11 12 rings
6 4 5 6 7 9 10 rings

> <PUBCHEM_HEAVY_ATOM_COUNT>
12

> <PUBCHEM_ATOM_DEF_STEREO_COUNT>
0

> <PUBCHEM_ATOM_UDEF_STEREO_COUNT>
0

> <PUBCHEM_BOND_DEF_STEREO_COUNT>
0

> <PUBCHEM_BOND_UDEF_STEREO_COUNT>
0

> <PUBCHEM_ISOTOPIC_ATOM_COUNT>
0

> <PUBCHEM_COMPONENT_COUNT>
1

> <PUBCHEM_CACTVS_TAUTO_COUNT>
3

> <PUBCHEM_CONFORMER_ID>
00000B0100000001

> <PUBCHEM_MMFF94_ENERGY>
34.9237

> <PUBCHEM_FEATURE_SELFOVERLAP>
20.329

> <PUBCHEM_SHAPE_FINGERPRINT>
10967382 1 18410855473102909859
12423570 1 11417843254333647607
12524768 44 18342181046236790183
16945 1 18338516335468936870
193761 8 18050567640652819557
20871998 184 18273216417089057631
21040471 1 17978229361832964192
2334 1 18194682798458260486
23402539 116 18270946973834381679
23552423 10 18260832647837549134
23559900 14 18271249318911654470
241688 4 18338515351752601923
2748010 2 18268145538275812982
5084963 1 17842831127416521290
528886 8 18411695482727462483
66348 1 18339642346855018638

> <PUBCHEM_SHAPE_MULTIPOLES>
237.97
3.31
2.82
0.61
1.03
0.23
0
-0.91
0
-1.14
0
-0.02
-0.04
0

> <PUBCHEM_SHAPE_SELFOVERLAP>
516.391

> <PUBCHEM_SHAPE_VOLUME>
131.2

> <PUBCHEM_COORDINATE_TYPE>
2
5
10

$$$$
