7757
  -OEChem-11012401203D

 16 15  0     0  0  0  0  0  0999 V2000
   -1.9312    0.7760    0.0082 O   0  0  0  0  0  0  0  0  0  0  0  0
    1.7938   -1.2117    0.0084 O   0  0  0  0  0  0  0  0  0  0  0  0
   -0.8972   -1.2842   -0.0062 O   0  0  0  0  0  0  0  0  0  0  0  0
    0.4068    0.7704    0.0237 C   0  0  0  0  0  0  0  0  0  0  0  0
    1.7208    0.0157   -0.0040 C   0  0  0  0  0  0  0  0  0  0  0  0
   -0.8511   -0.0624    0.0125 C   0  0  0  0  0  0  0  0  0  0  0  0
    2.9685    0.8617   -0.0217 C   0  0  0  0  0  0  0  0  0  0  0  0
   -3.2104    0.1344   -0.0210 C   0  0  0  0  0  0  0  0  0  0  0  0
    0.3983    1.3793    0.9343 H   0  0  0  0  0  0  0  0  0  0  0  0
    0.3858    1.4195   -0.8587 H   0  0  0  0  0  0  0  0  0  0  0  0
    3.8510    0.2173   -0.0631 H   0  0  0  0  0  0  0  0  0  0  0  0
    3.0136    1.4665    0.8873 H   0  0  0  0  0  0  0  0  0  0  0  0
    2.9620    1.5060   -0.9043 H   0  0  0  0  0  0  0  0  0  0  0  0
   -3.9801    0.9108   -0.0215 H   0  0  0  0  0  0  0  0  0  0  0  0
   -3.3414   -0.4895    0.8682 H   0  0  0  0  0  0  0  0  0  0  0  0
   -3.3135   -0.4630   -0.9318 H   0  0  0  0  0  0  0  0  0  0  0  0
  1  6  1  0  0  0  0
  1  8  1  0  0  0  0
  2  5  2  0  0  0  0
  3  6  2  0  0  0  0
  4  5  1  0  0  0  0
  4  6  1  0  0  0  0
  4  9  1  0  0  0  0
  4 10  1  0  0  0  0
  5  7  1  0  0  0  0
  7 11  1  0  0  0  0
  7 12  1  0  0  0  0
  7 13  1  0  0  0  0
  8 14  1  0  0  0  0
  8 15  1  0  0  0  0
  8 16  1  0  0  0  0
M  END
> <PUBCHEM_COMPOUND_CID>
7757

> <PUBCHEM_CONFORMER_RMSD>
0.6

> <PUBCHEM_CONFORMER_DIVERSEORDER>
1
10
8
6
7
12
2
9
4
5
11
3

> <PUBCHEM_MMFF94_PARTIAL_CHARGES>
8
1 -0.43
2 -0.57
3 -0.57
4 0.12
5 0.45
6 0.66
7 0.06
8 0.28

> <PUBCHEM_EFFECTIVE_ROTOR_COUNT>
3

> <PUBCHEM_PHARMACOPHORE_FEATURES>
3
1 2 acceptor
1 3 acceptor
1 4 anion

> <PUBCHEM_HEAVY_ATOM_COUNT>
8

> <PUBCHEM_ATOM_DEF_STEREO_COUNT>
0

> <PUBCHEM_ATOM_UDEF_STEREO_COUNT>
0

> <PUBCHEM_BOND_DEF_STEREO_COUNT>
0

> <PUBCHEM_BOND_UDEF_STEREO_COUNT>
0

> <PUBCHEM_ISOTOPIC_ATOM_COUNT>
0

> <PUBCHEM_COMPONENT_COUNT>
1

> <PUBCHEM_CACTVS_TAUTO_COUNT>
5

> <PUBCHEM_CONFORMER_ID>
00001E4D00000001

> <PUBCHEM_MMFF94_ENERGY>
7.5059

> <PUBCHEM_FEATURE_SELFOVERLAP>
15.23

> <PUBCHEM_SHAPE_FINGERPRINT>
11062470 55 17489870444601477249
12932764 1 16988552498883794249
14325111 11 18410573964072357473
14390081 3 18272087227337362936
21040471 1 18410855473208287978
23235685 24 18410851083693773644
23552333 60 18411417268036988256
23552423 10 18263928743537330966
29004967 10 17603591819886898808
5460574 1 9223231844890739497

> <PUBCHEM_SHAPE_MULTIPOLES>
147.03
4.57
1.13
0.58
0.93
0.26
0
-0.86
-0.05
-0.26
0
-0.01
-0.02
-0.01

> <PUBCHEM_SHAPE_SELFOVERLAP>
272.706

> <PUBCHEM_SHAPE_VOLUME>
92.8

> <PUBCHEM_COORDINATE_TYPE>
2
5
10

$$$$
