61278
  -OEChem-11012401203D

 12 11  0     0  0  0  0  0  0999 V2000
   -0.5446   -0.7262   -0.0365 O   0  0  0  0  0  0  0  0  0  0  0  0
   -2.3698    0.6982   -0.0335 O   0  0  0  0  0  0  0  0  0  0  0  0
    0.3262    0.3536    0.2696 C   0  0  0  0  0  0  0  0  0  0  0  0
    1.7215   -0.1680    0.3663 C   0  0  0  0  0  0  0  0  0  0  0  0
    2.7299    0.2480   -0.4076 C   0  0  0  0  0  0  0  0  0  0  0  0
   -1.8633   -0.4058   -0.1582 C   0  0  0  0  0  0  0  0  0  0  0  0
    0.2427    1.1242   -0.5063 H   0  0  0  0  0  0  0  0  0  0  0  0
    0.0428    0.7912    1.2339 H   0  0  0  0  0  0  0  0  0  0  0  0
    1.9203   -0.9280    1.1174 H   0  0  0  0  0  0  0  0  0  0  0  0
    3.7235   -0.1694   -0.2862 H   0  0  0  0  0  0  0  0  0  0  0  0
    2.5856    1.0052   -1.1702 H   0  0  0  0  0  0  0  0  0  0  0  0
   -2.4252   -1.3225   -0.3942 H   0  0  0  0  0  0  0  0  0  0  0  0
  1  3  1  0  0  0  0
  1  6  1  0  0  0  0
  2  6  2  0  0  0  0
  3  4  1  0  0  0  0
  3  7  1  0  0  0  0
  3  8  1  0  0  0  0
  4  5  2  0  0  0  0
  4  9  1  0  0  0  0
  5 10  1  0  0  0  0
  5 11  1  0  0  0  0
  6 12  1  0  0  0  0
M  END
> <PUBCHEM_COMPOUND_CID>
61278

> <PUBCHEM_CONFORMER_RMSD>
0.4

> <PUBCHEM_CONFORMER_DIVERSEORDER>
1
16
14
2
15
7
8
9
13
17
12
19
11
10
18
5
6
4
3

> <PUBCHEM_MMFF94_PARTIAL_CHARGES>
10
1 -0.43
10 0.15
11 0.15
12 0.06
2 -0.57
3 0.42
4 -0.29
5 -0.3
6 0.66
9 0.15

> <PUBCHEM_EFFECTIVE_ROTOR_COUNT>
3

> <PUBCHEM_PHARMACOPHORE_FEATURES>
2
1 2 acceptor
1 5 hydrophobe

> <PUBCHEM_HEAVY_ATOM_COUNT>
6

> <PUBCHEM_ATOM_DEF_STEREO_COUNT>
0

> <PUBCHEM_ATOM_UDEF_STEREO_COUNT>
0

> <PUBCHEM_BOND_DEF_STEREO_COUNT>
0

> <PUBCHEM_BOND_UDEF_STEREO_COUNT>
0

> <PUBCHEM_ISOTOPIC_ATOM_COUNT>
0

> <PUBCHEM_COMPONENT_COUNT>
1

> <PUBCHEM_CACTVS_TAUTO_COUNT>
1

> <PUBCHEM_CONFORMER_ID>
0000EF5E00000001

> <PUBCHEM_MMFF94_ENERGY>
4.8176

> <PUBCHEM_FEATURE_SELFOVERLAP>
10.148

> <PUBCHEM_SHAPE_FINGERPRINT>
10857977 72 11386374776095340797
14390081 3 18336262435437550776
16714656 1 18411138030353278989
20096714 4 18261388979030017969
29004967 10 15913330212578649242
5460574 1 9295293845512203218

> <PUBCHEM_SHAPE_MULTIPOLES>
111.74
3.92
0.79
0.66
0.38
0
0
0.44
-0.49
-0.2
0
0.16
0
-0.07

> <PUBCHEM_SHAPE_SELFOVERLAP>
199.117

> <PUBCHEM_SHAPE_VOLUME>
72

> <PUBCHEM_COORDINATE_TYPE>
2
5
10

$$$$
