139821
  -OEChem-11012400393D

 15 15  0     1  0  0  0  0  0999 V2000
    0.7561    1.1950    0.0918 O   0  0  0  0  0  0  0  0  0  0  0  0
   -0.0316   -0.9986   -0.2374 O   0  0  0  0  0  0  0  0  0  0  0  0
    1.0794   -0.1096   -0.3976 C   0  0  2  0  0  0  0  0  0  0  0  0
   -0.6616    1.2791   -0.0228 C   0  0  0  0  0  0  0  0  0  0  0  0
   -1.0900   -0.1386   -0.0192 C   0  0  0  0  0  0  0  0  0  0  0  0
    2.2753   -0.6470    0.3646 C   0  0  0  0  0  0  0  0  0  0  0  0
   -2.3276   -0.5803    0.2205 C   0  0  0  0  0  0  0  0  0  0  0  0
    1.3152   -0.0343   -1.4664 H   0  0  0  0  0  0  0  0  0  0  0  0
   -0.9106    1.7739   -0.9666 H   0  0  0  0  0  0  0  0  0  0  0  0
   -1.0558    1.8548    0.8187 H   0  0  0  0  0  0  0  0  0  0  0  0
    3.1378    0.0185    0.2603 H   0  0  0  0  0  0  0  0  0  0  0  0
    2.0475   -0.7233    1.4338 H   0  0  0  0  0  0  0  0  0  0  0  0
    2.5446   -1.6485    0.0150 H   0  0  0  0  0  0  0  0  0  0  0  0
   -2.5495   -1.6419    0.2272 H   0  0  0  0  0  0  0  0  0  0  0  0
   -3.1410    0.1109    0.4132 H   0  0  0  0  0  0  0  0  0  0  0  0
  1  3  1  0  0  0  0
  1  4  1  0  0  0  0
  2  3  1  0  0  0  0
  2  5  1  0  0  0  0
  3  6  1  0  0  0  0
  3  8  1  0  0  0  0
  4  5  1  0  0  0  0
  4  9  1  0  0  0  0
  4 10  1  0  0  0  0
  5  7  2  0  0  0  0
  6 11  1  0  0  0  0
  6 12  1  0  0  0  0
  6 13  1  0  0  0  0
  7 14  1  0  0  0  0
  7 15  1  0  0  0  0
M  END
> <PUBCHEM_COMPOUND_CID>
139821

> <PUBCHEM_CONFORMER_RMSD>
0.4

> <PUBCHEM_CONFORMER_DIVERSEORDER>
1
2

> <PUBCHEM_MMFF94_PARTIAL_CHARGES>
8
1 -0.56
14 0.15
15 0.15
2 -0.36
3 0.56
4 0.42
5 -0.06
7 -0.3

> <PUBCHEM_EFFECTIVE_ROTOR_COUNT>
0.8

> <PUBCHEM_PHARMACOPHORE_FEATURES>
3
1 1 acceptor
1 2 acceptor
5 1 2 3 4 5 rings

> <PUBCHEM_HEAVY_ATOM_COUNT>
7

> <PUBCHEM_ATOM_DEF_STEREO_COUNT>
0

> <PUBCHEM_ATOM_UDEF_STEREO_COUNT>
1

> <PUBCHEM_BOND_DEF_STEREO_COUNT>
0

> <PUBCHEM_BOND_UDEF_STEREO_COUNT>
0

> <PUBCHEM_ISOTOPIC_ATOM_COUNT>
0

> <PUBCHEM_COMPONENT_COUNT>
1

> <PUBCHEM_CACTVS_TAUTO_COUNT>
1

> <PUBCHEM_CONFORMER_ID>
0002222D00000001

> <PUBCHEM_MMFF94_ENERGY>
7.8198

> <PUBCHEM_FEATURE_SELFOVERLAP>
15.263

> <PUBCHEM_SHAPE_FINGERPRINT>
10857977 72 18340193146578087986
139733 1 9511461117182946269
16714656 1 18341618096483660038
20096714 4 18054234498830279333
21040471 1 17980204410975838813
23552423 10 18044104449312130550
29004967 10 18335142015734683875

> <PUBCHEM_SHAPE_MULTIPOLES>
132.32
2.73
1.23
0.65
0.11
0.33
0
-0.88
0.37
-0.08
0.02
0.05
-0.03
-0.01

> <PUBCHEM_SHAPE_SELFOVERLAP>
259.552

> <PUBCHEM_SHAPE_VOLUME>
81

> <PUBCHEM_COORDINATE_TYPE>
2
5
10

$$$$
