138344
  -OEChem-11012401223D

 20 21  0     0  0  0  0  0  0999 V2000
    0.0086    0.0000    1.1375 N   0  0  0  0  0  0  0  0  0  0  0  0
    0.0352   -1.1530    0.3655 C   0  0  0  0  0  0  0  0  0  0  0  0
    0.0353    1.1528    0.3658 C   0  0  0  0  0  0  0  0  0  0  0  0
    1.1615   -1.5143   -0.2889 C   0  0  0  0  0  0  0  0  0  0  0  0
    1.1617    1.5142   -0.2886 C   0  0  0  0  0  0  0  0  0  0  0  0
   -1.2852   -1.6064   -0.0545 C   0  0  0  0  0  0  0  0  0  0  0  0
   -1.2847    1.6065   -0.0548 C   0  0  0  0  0  0  0  0  0  0  0  0
    2.3675   -0.6778   -0.2371 C   0  0  0  0  0  0  0  0  0  0  0  0
    2.3675    0.6776   -0.2369 C   0  0  0  0  0  0  0  0  0  0  0  0
   -2.2839   -0.7402   -0.3538 C   0  0  0  0  0  0  0  0  0  0  0  0
   -2.2836    0.7405   -0.3543 C   0  0  0  0  0  0  0  0  0  0  0  0
   -0.7326   -0.0001    1.8359 H   0  0  0  0  0  0  0  0  0  0  0  0
    1.1785   -2.3452   -0.9875 H   0  0  0  0  0  0  0  0  0  0  0  0
    1.1787    2.3452   -0.9871 H   0  0  0  0  0  0  0  0  0  0  0  0
   -1.4398   -2.6751   -0.1684 H   0  0  0  0  0  0  0  0  0  0  0  0
   -1.4390    2.6751   -0.1694 H   0  0  0  0  0  0  0  0  0  0  0  0
    3.3138   -1.2110   -0.2570 H   0  0  0  0  0  0  0  0  0  0  0  0
    3.3138    1.2109   -0.2565 H   0  0  0  0  0  0  0  0  0  0  0  0
   -3.2319   -1.1691   -0.6764 H   0  0  0  0  0  0  0  0  0  0  0  0
   -3.2312    1.1695   -0.6776 H   0  0  0  0  0  0  0  0  0  0  0  0
  1  2  1  0  0  0  0
  1  3  1  0  0  0  0
  1 12  1  0  0  0  0
  2  4  2  0  0  0  0
  2  6  1  0  0  0  0
  3  5  2  0  0  0  0
  3  7  1  0  0  0  0
  4  8  1  0  0  0  0
  4 13  1  0  0  0  0
  5  9  1  0  0  0  0
  5 14  1  0  0  0  0
  6 10  2  0  0  0  0
  6 15  1  0  0  0  0
  7 11  2  0  0  0  0
  7 16  1  0  0  0  0
  8  9  2  0  0  0  0
  8 17  1  0  0  0  0
  9 18  1  0  0  0  0
 10 11  1  0  0  0  0
 10 19  1  0  0  0  0
 11 20  1  0  0  0  0
M  END
> <PUBCHEM_COMPOUND_CID>
138344

> <PUBCHEM_CONFORMER_RMSD>
0.4

> <PUBCHEM_CONFORMER_DIVERSEORDER>
1

> <PUBCHEM_MMFF94_PARTIAL_CHARGES>
20
1 -0.6
10 -0.15
11 -0.15
12 0.4
13 0.15
14 0.15
15 0.15
16 0.15
17 0.15
18 0.15
19 0.15
2 0.1
20 0.15
3 0.1
4 -0.15
5 -0.15
6 -0.15
7 -0.15
8 -0.15
9 -0.15

> <PUBCHEM_EFFECTIVE_ROTOR_COUNT>
0.2

> <PUBCHEM_PHARMACOPHORE_FEATURES>
4
1 1 cation
1 1 donor
7 1 2 3 4 5 8 9 rings
7 1 2 3 6 7 10 11 rings

> <PUBCHEM_HEAVY_ATOM_COUNT>
11

> <PUBCHEM_ATOM_DEF_STEREO_COUNT>
0

> <PUBCHEM_ATOM_UDEF_STEREO_COUNT>
0

> <PUBCHEM_BOND_DEF_STEREO_COUNT>
0

> <PUBCHEM_BOND_UDEF_STEREO_COUNT>
0

> <PUBCHEM_ISOTOPIC_ATOM_COUNT>
0

> <PUBCHEM_COMPONENT_COUNT>
1

> <PUBCHEM_CACTVS_TAUTO_COUNT>
1

> <PUBCHEM_CONFORMER_ID>
00021C6800000001

> <PUBCHEM_MMFF94_ENERGY>
81.904

> <PUBCHEM_FEATURE_SELFOVERLAP>
20.463

> <PUBCHEM_SHAPE_FINGERPRINT>
10702982 57 16839972022072668289
11206711 2 18337681909233232972
12423570 1 12401582526653773688
12897270 3 18411136965169650244
14128692 85 18272931626354993502
16945 1 18410575084673628462
17844478 74 18041575727313259875
18185500 45 17761490292391586255
21040471 1 18338232657121320896
23552423 10 18334295387533853622
23559900 14 18271244903643179910
241688 4 18049726217725447160
2748010 2 17041762560713622692
353137 74 18408036299598596709
5084963 1 18343021116038188618
528886 8 18411133628085575641
66348 1 18410573950796994159

> <PUBCHEM_SHAPE_MULTIPOLES>
221.39
3.18
1.95
0.77
0.15
0
-0.08
0
0.62
-0.14
0.09
-0.01
0
0

> <PUBCHEM_SHAPE_SELFOVERLAP>
477.223

> <PUBCHEM_SHAPE_VOLUME>
118.5

> <PUBCHEM_COORDINATE_TYPE>
2
5
10

$$$$
