144257
  -OEChem-11012401083D

 25 25  0     0  0  0  0  0  0999 V2000
   -1.6107    0.1165    0.7468 S   0  0  0  0  0  0  0  0  0  0  0  0
   -1.9502   -1.0421    1.5643 O   0  0  0  0  0  0  0  0  0  0  0  0
   -1.9128    1.4516    1.2483 O   0  0  0  0  0  0  0  0  0  0  0  0
    0.0958    0.0576    0.3829 C   0  0  0  0  0  0  0  0  0  0  0  0
   -2.3378   -0.0810   -0.8138 C   0  0  0  0  0  0  0  0  0  0  0  0
    0.7860    1.2318    0.0821 C   0  0  0  0  0  0  0  0  0  0  0  0
    0.7692   -1.1639    0.3934 C   0  0  0  0  0  0  0  0  0  0  0  0
    2.8228   -0.0369   -0.1979 C   0  0  0  0  0  0  0  0  0  0  0  0
    2.1496    1.1845   -0.2084 C   0  0  0  0  0  0  0  0  0  0  0  0
    2.1326   -1.2112    0.1031 C   0  0  0  0  0  0  0  0  0  0  0  0
   -2.6463   -1.4588   -1.2903 C   0  0  0  0  0  0  0  0  0  0  0  0
    4.2809   -0.0875   -0.5070 C   0  0  0  0  0  0  0  0  0  0  0  0
   -2.5791    1.0393   -1.5036 C   0  0  0  0  0  0  0  0  0  0  0  0
    0.2819    2.1939    0.0629 H   0  0  0  0  0  0  0  0  0  0  0  0
    0.2509   -2.0912    0.6202 H   0  0  0  0  0  0  0  0  0  0  0  0
    2.6765    2.1062   -0.4405 H   0  0  0  0  0  0  0  0  0  0  0  0
    2.6465   -2.1688    0.1153 H   0  0  0  0  0  0  0  0  0  0  0  0
   -1.7411   -2.0733   -1.3135 H   0  0  0  0  0  0  0  0  0  0  0  0
   -3.3768   -1.9398   -0.6323 H   0  0  0  0  0  0  0  0  0  0  0  0
   -3.0664   -1.4526   -2.3017 H   0  0  0  0  0  0  0  0  0  0  0  0
    4.5520   -1.0380   -0.9793 H   0  0  0  0  0  0  0  0  0  0  0  0
    4.5650    0.7084   -1.2038 H   0  0  0  0  0  0  0  0  0  0  0  0
    4.8639    0.0263    0.4123 H   0  0  0  0  0  0  0  0  0  0  0  0
   -2.3365    2.0319   -1.1413 H   0  0  0  0  0  0  0  0  0  0  0  0
   -3.0336    0.9880   -2.4884 H   0  0  0  0  0  0  0  0  0  0  0  0
  1  2  2  0  0  0  0
  1  3  2  0  0  0  0
  1  4  1  0  0  0  0
  1  5  1  0  0  0  0
  4  6  2  0  0  0  0
  4  7  1  0  0  0  0
  5 11  1  0  0  0  0
  5 13  2  0  0  0  0
  6  9  1  0  0  0  0
  6 14  1  0  0  0  0
  7 10  2  0  0  0  0
  7 15  1  0  0  0  0
  8  9  2  0  0  0  0
  8 10  1  0  0  0  0
  8 12  1  0  0  0  0
  9 16  1  0  0  0  0
 10 17  1  0  0  0  0
 11 18  1  0  0  0  0
 11 19  1  0  0  0  0
 11 20  1  0  0  0  0
 12 21  1  0  0  0  0
 12 22  1  0  0  0  0
 12 23  1  0  0  0  0
 13 24  1  0  0  0  0
 13 25  1  0  0  0  0
M  END
> <PUBCHEM_COMPOUND_CID>
144257

> <PUBCHEM_CONFORMER_RMSD>
0.6

> <PUBCHEM_CONFORMER_DIVERSEORDER>
1
2

> <PUBCHEM_MMFF94_PARTIAL_CHARGES>
19
1 1.33
10 -0.15
11 0.14
12 0.14
13 -0.3
14 0.15
15 0.15
16 0.15
17 0.15
2 -0.65
24 0.15
25 0.15
3 -0.65
4 -0.01
5 -0.16
6 -0.15
7 -0.15
8 -0.14
9 -0.15

> <PUBCHEM_EFFECTIVE_ROTOR_COUNT>
2

> <PUBCHEM_PHARMACOPHORE_FEATURES>
3
1 2 acceptor
1 3 acceptor
6 4 6 7 8 9 10 rings

> <PUBCHEM_HEAVY_ATOM_COUNT>
13

> <PUBCHEM_ATOM_DEF_STEREO_COUNT>
0

> <PUBCHEM_ATOM_UDEF_STEREO_COUNT>
0

> <PUBCHEM_BOND_DEF_STEREO_COUNT>
0

> <PUBCHEM_BOND_UDEF_STEREO_COUNT>
0

> <PUBCHEM_ISOTOPIC_ATOM_COUNT>
0

> <PUBCHEM_COMPONENT_COUNT>
1

> <PUBCHEM_CACTVS_TAUTO_COUNT>
1

> <PUBCHEM_CONFORMER_ID>
0002338100000001

> <PUBCHEM_MMFF94_ENERGY>
19.6649

> <PUBCHEM_FEATURE_SELFOVERLAP>
15.241

> <PUBCHEM_SHAPE_FINGERPRINT>
11401426 45 18409719652433341852
11769659 78 16200153141111932526
12138202 97 16732973250000519643
12251169 10 10447646954463641551
124424 183 16732973220315329280
12897270 3 18263065751727101951
12932764 1 18409164411402904416
13024252 1 13190342391950011481
13299463 15 18336816585124016255
13764800 53 16081375094512491013
14289901 80 14907891683310935302
15775835 57 18261386715719409959
16945 1 18272655662211668234
17844478 74 17531826734638726769
18186145 218 18041858259094550860
18534176 82 17240482550147159259
200 152 18272085037004119335
20201158 50 18187362112638432710
20281407 28 13973965436650674884
20361792 2 16486112050731465405
20653085 51 18115016412468738853
23402539 116 17988929929886580420
23402655 69 18189321408205276037
23557571 272 16733278927012220846
25 1 17896310316709282917
2748010 2 18047763873322752352
305870 269 12613299937407282808
3248919 1 18335704927386749482
5084963 1 17677063467434929264
63268167 104 18336541629759967704
6333449 129 17022620883813340583
8030462 33 18271804596987764136

> <PUBCHEM_SHAPE_MULTIPOLES>
259.64
5.7
1.5
1.3
3.52
0.01
-0.04
0.3
1.88
-0.38
0.02
-1.28
0.02
-0.15

> <PUBCHEM_SHAPE_SELFOVERLAP>
522.396

> <PUBCHEM_SHAPE_VOLUME>
153.2

> <PUBCHEM_COORDINATE_TYPE>
2
5
10

$$$$
