66288
  -OEChem-10312420152D

122126  0     0  0  0  0  0  0999 V2000
   14.0312   -0.8983    0.0000 O   0  0  0  0  0  0  0  0  0  0  0  0
    6.9399   -4.9911    0.0000 O   0  0  0  0  0  0  0  0  0  0  0  0
    9.3588   -5.9988    0.0000 O   0  0  0  0  0  0  0  0  0  0  0  0
   12.8518    4.1116    0.0000 O   0  0  0  0  0  0  0  0  0  0  0  0
   13.3548    0.6962    0.0000 O   0  0  0  0  0  0  0  0  0  0  0  0
    8.5884   -4.4594    0.0000 O   0  0  0  0  0  0  0  0  0  0  0  0
    9.6729    5.8968    0.0000 O   0  0  0  0  0  0  0  0  0  0  0  0
    2.9223    1.7073    0.0000 O   0  0  0  0  0  0  0  0  0  0  0  0
   10.7538   -4.9721    0.0000 O   0  0  0  0  0  0  0  0  0  0  0  0
   13.9008    2.7333    0.0000 O   0  0  0  0  0  0  0  0  0  0  0  0
    3.7043   -3.1183    0.0000 O   0  0  0  0  0  0  0  0  0  0  0  0
    4.7677    4.7435    0.0000 O   0  0  0  0  0  0  0  0  0  0  0  0
    8.1013    5.1687    0.0000 O   0  0  0  0  0  0  0  0  0  0  0  0
    3.5917    0.1099    0.0000 O   0  0  0  0  0  0  0  0  0  0  0  0
    2.8383   -1.6184    0.0000 O   0  0  0  0  0  0  0  0  0  0  0  0
    6.1627    5.7701    0.0000 O   0  0  0  0  0  0  0  0  0  0  0  0
    8.4750   -0.9872    0.0000 N   0  0  0  0  0  0  0  0  0  0  0  0
    9.9767    0.3823    0.0000 N   0  0  0  0  0  0  0  0  0  0  0  0
    6.9716    0.3823    0.0000 N   0  0  0  0  0  0  0  0  0  0  0  0
    8.4415    1.7518    0.0000 N   0  0  0  0  0  0  0  0  0  0  0  0
    8.9756   -2.5559    0.0000 C   0  0  0  0  0  0  0  0  0  0  0  0
   11.5137    0.9163    0.0000 C   0  0  0  0  0  0  0  0  0  0  0  0
    9.2769   -1.5882    0.0000 C   0  0  0  0  0  0  0  0  0  0  0  0
   11.5137   -0.0848    0.0000 C   0  0  0  0  0  0  0  0  0  0  0  0
   10.5778   -0.3527    0.0000 C   0  0  0  0  0  0  0  0  0  0  0  0
    7.9744   -2.5559    0.0000 C   0  0  0  0  0  0  0  0  0  0  0  0
   10.5443    1.1842    0.0000 C   0  0  0  0  0  0  0  0  0  0  0  0
    7.6730   -1.6217    0.0000 C   0  0  0  0  0  0  0  0  0  0  0  0
   10.2781   -1.3204    0.0000 C   0  0  0  0  0  0  0  0  0  0  0  0
    9.5683   -3.3613    0.0000 C   0  0  0  0  0  0  0  0  0  0  0  0
   12.3094    1.5220    0.0000 C   0  0  0  0  0  0  0  0  0  0  0  0
    5.4363   -0.1183    0.0000 C   0  0  0  0  0  0  0  0  0  0  0  0
    7.9409    3.3540    0.0000 C   0  0  0  0  0  0  0  0  0  0  0  0
    6.4040   -0.3862    0.0000 C   0  0  0  0  0  0  0  0  0  0  0  0
    8.9421    3.3540    0.0000 C   0  0  0  0  0  0  0  0  0  0  0  0
    9.2769    2.4198    0.0000 C   0  0  0  0  0  0  0  0  0  0  0  0
   10.2446    2.1184    0.0000 C   0  0  0  0  0  0  0  0  0  0  0  0
    6.7054   -1.3204    0.0000 C   0  0  0  0  0  0  0  0  0  0  0  0
    5.4363    0.8829    0.0000 C   0  0  0  0  0  0  0  0  0  0  0  0
   12.3122   -0.6868    0.0000 C   0  0  0  0  0  0  0  0  0  0  0  0
    7.3037   -3.2976    0.0000 C   0  0  0  0  0  0  0  0  0  0  0  0
    7.6396    2.3863    0.0000 C   0  0  0  0  0  0  0  0  0  0  0  0
    6.4040    1.1507    0.0000 C   0  0  0  0  0  0  0  0  0  0  0  0
    4.5703   -0.6183    0.0000 C   0  0  0  0  0  0  0  0  0  0  0  0
    7.3482    4.1594    0.0000 C   0  0  0  0  0  0  0  0  0  0  0  0
    6.6719    2.1184    0.0000 C   0  0  0  0  0  0  0  0  0  0  0  0
    9.1672   -4.2774    0.0000 C   0  0  0  0  0  0  0  0  0  0  0  0
   12.1827    2.5140    0.0000 C   0  0  0  0  0  0  0  0  0  0  0  0
    9.5177    4.1717    0.0000 C   0  0  0  0  0  0  0  0  0  0  0  0
    4.6404    1.4883    0.0000 C   0  0  0  0  0  0  0  0  0  0  0  0
    4.5703   -1.6183    0.0000 C   0  0  0  0  0  0  0  0  0  0  0  0
    6.3543    4.0487    0.0000 C   0  0  0  0  0  0  0  0  0  0  0  0
   13.2327   -0.2963    0.0000 C   0  0  0  0  0  0  0  0  0  0  0  0
    7.6107   -4.2494    0.0000 C   0  0  0  0  0  0  0  0  0  0  0  0
    9.7600   -5.0827    0.0000 C   0  0  0  0  0  0  0  0  0  0  0  0
   12.9784    3.1196    0.0000 C   0  0  0  0  0  0  0  0  0  0  0  0
    9.0973    5.0791    0.0000 C   0  0  0  0  0  0  0  0  0  0  0  0
    3.7182    1.1018    0.0000 C   0  0  0  0  0  0  0  0  0  0  0  0
    3.7043   -2.1183    0.0000 C   0  0  0  0  0  0  0  0  0  0  0  0
    5.7616    4.8541    0.0000 C   0  0  0  0  0  0  0  0  0  0  0  0
   14.9518   -0.5078    0.0000 C   0  0  0  0  0  0  0  0  0  0  0  0
    7.2469   -5.9428    0.0000 C   0  0  0  0  0  0  0  0  0  0  0  0
    9.9516   -6.8042    0.0000 C   0  0  0  0  0  0  0  0  0  0  0  0
   13.6475    4.7172    0.0000 C   0  0  0  0  0  0  0  0  0  0  0  0
    9.2525    6.8042    0.0000 C   0  0  0  0  0  0  0  0  0  0  0  0
    2.0000    1.3208    0.0000 C   0  0  0  0  0  0  0  0  0  0  0  0
    2.8383   -3.6184    0.0000 C   0  0  0  0  0  0  0  0  0  0  0  0
    4.1749    5.5488    0.0000 C   0  0  0  0  0  0  0  0  0  0  0  0
   10.7079   -1.7672    0.0000 H   0  0  0  0  0  0  0  0  0  0  0  0
    8.4669   -0.3673    0.0000 H   0  0  0  0  0  0  0  0  0  0  0  0
    9.3571    0.3607    0.0000 H   0  0  0  0  0  0  0  0  0  0  0  0
   10.0844   -3.7049    0.0000 H   0  0  0  0  0  0  0  0  0  0  0  0
    9.9962   -2.9127    0.0000 H   0  0  0  0  0  0  0  0  0  0  0  0
   12.5935    0.9710    0.0000 H   0  0  0  0  0  0  0  0  0  0  0  0
   12.9014    1.7061    0.0000 H   0  0  0  0  0  0  0  0  0  0  0  0
   10.6812    2.5587    0.0000 H   0  0  0  0  0  0  0  0  0  0  0  0
    6.2692   -1.7610    0.0000 H   0  0  0  0  0  0  0  0  0  0  0  0
   11.8586   -1.1096    0.0000 H   0  0  0  0  0  0  0  0  0  0  0  0
   12.6497   -1.2069    0.0000 H   0  0  0  0  0  0  0  0  0  0  0  0
    6.9230   -2.8083    0.0000 H   0  0  0  0  0  0  0  0  0  0  0  0
    6.7556   -3.5876    0.0000 H   0  0  0  0  0  0  0  0  0  0  0  0
    4.3582   -0.0357    0.0000 H   0  0  0  0  0  0  0  0  0  0  0  0
    3.9597   -0.7260    0.0000 H   0  0  0  0  0  0  0  0  0  0  0  0
    7.9037    4.4346    0.0000 H   0  0  0  0  0  0  0  0  0  0  0  0
    7.1736    4.7543    0.0000 H   0  0  0  0  0  0  0  0  0  0  0  0
    6.2335    2.5568    0.0000 H   0  0  0  0  0  0  0  0  0  0  0  0
    8.6511   -3.9338    0.0000 H   0  0  0  0  0  0  0  0  0  0  0  0
    8.7393   -4.7260    0.0000 H   0  0  0  0  0  0  0  0  0  0  0  0
   11.8986    3.0650    0.0000 H   0  0  0  0  0  0  0  0  0  0  0  0
   11.5907    2.3298    0.0000 H   0  0  0  0  0  0  0  0  0  0  0  0
    9.9550    3.7322    0.0000 H   0  0  0  0  0  0  0  0  0  0  0  0
   10.0264    4.5261    0.0000 H   0  0  0  0  0  0  0  0  0  0  0  0
    5.0958    1.9091    0.0000 H   0  0  0  0  0  0  0  0  0  0  0  0
    4.3052    2.0099    0.0000 H   0  0  0  0  0  0  0  0  0  0  0  0
    4.7824   -2.2009    0.0000 H   0  0  0  0  0  0  0  0  0  0  0  0
    5.1809   -1.5106    0.0000 H   0  0  0  0  0  0  0  0  0  0  0  0
    5.7987    3.7735    0.0000 H   0  0  0  0  0  0  0  0  0  0  0  0
    6.5289    3.4538    0.0000 H   0  0  0  0  0  0  0  0  0  0  0  0
   15.1940   -1.0786    0.0000 H   0  0  0  0  0  0  0  0  0  0  0  0
   15.5226   -0.2657    0.0000 H   0  0  0  0  0  0  0  0  0  0  0  0
   14.7097    0.0630    0.0000 H   0  0  0  0  0  0  0  0  0  0  0  0
    6.6568   -6.1331    0.0000 H   0  0  0  0  0  0  0  0  0  0  0  0
    7.4372   -6.5329    0.0000 H   0  0  0  0  0  0  0  0  0  0  0  0
    7.8370   -5.7525    0.0000 H   0  0  0  0  0  0  0  0  0  0  0  0
    9.4523   -7.1717    0.0000 H   0  0  0  0  0  0  0  0  0  0  0  0
   10.3191   -7.3035    0.0000 H   0  0  0  0  0  0  0  0  0  0  0  0
   10.4509   -6.4366    0.0000 H   0  0  0  0  0  0  0  0  0  0  0  0
   14.0230    4.2239    0.0000 H   0  0  0  0  0  0  0  0  0  0  0  0
   14.1408    5.0927    0.0000 H   0  0  0  0  0  0  0  0  0  0  0  0
   13.2720    5.2106    0.0000 H   0  0  0  0  0  0  0  0  0  0  0  0
    9.8150    7.0648    0.0000 H   0  0  0  0  0  0  0  0  0  0  0  0
    8.9918    7.3667    0.0000 H   0  0  0  0  0  0  0  0  0  0  0  0
    8.6899    6.5435    0.0000 H   0  0  0  0  0  0  0  0  0  0  0  0
    1.7604    1.8926    0.0000 H   0  0  0  0  0  0  0  0  0  0  0  0
    1.4282    1.0812    0.0000 H   0  0  0  0  0  0  0  0  0  0  0  0
    2.2396    0.7490    0.0000 H   0  0  0  0  0  0  0  0  0  0  0  0
    2.5283   -3.0814    0.0000 H   0  0  0  0  0  0  0  0  0  0  0  0
    2.3014   -3.9284    0.0000 H   0  0  0  0  0  0  0  0  0  0  0  0
    3.1483   -4.1553    0.0000 H   0  0  0  0  0  0  0  0  0  0  0  0
    4.6743    5.9164    0.0000 H   0  0  0  0  0  0  0  0  0  0  0  0
    3.8074    6.0482    0.0000 H   0  0  0  0  0  0  0  0  0  0  0  0
    3.6756    5.1813    0.0000 H   0  0  0  0  0  0  0  0  0  0  0  0
  1 53  1  0  0  0  0
  1 61  1  0  0  0  0
  2 54  1  0  0  0  0
  2 62  1  0  0  0  0
  3 55  1  0  0  0  0
  3 63  1  0  0  0  0
  4 56  1  0  0  0  0
  4 64  1  0  0  0  0
  5 53  2  0  0  0  0
  6 54  2  0  0  0  0
  7 57  1  0  0  0  0
  7 65  1  0  0  0  0
  8 58  1  0  0  0  0
  8 66  1  0  0  0  0
  9 55  2  0  0  0  0
 10 56  2  0  0  0  0
 11 59  1  0  0  0  0
 11 67  1  0  0  0  0
 12 60  1  0  0  0  0
 12 68  1  0  0  0  0
 13 57  2  0  0  0  0
 14 58  2  0  0  0  0
 15 59  2  0  0  0  0
 16 60  2  0  0  0  0
 17 23  1  0  0  0  0
 17 28  1  0  0  0  0
 17 70  1  0  0  0  0
 18 25  1  0  0  0  0
 18 27  1  0  0  0  0
 18 71  1  0  0  0  0
 19 34  2  0  0  0  0
 19 43  1  0  0  0  0
 20 36  1  0  0  0  0
 20 42  2  0  0  0  0
 21 23  1  0  0  0  0
 21 26  2  0  0  0  0
 21 30  1  0  0  0  0
 22 24  1  0  0  0  0
 22 27  2  0  0  0  0
 22 31  1  0  0  0  0
 23 29  2  0  0  0  0
 24 25  2  0  0  0  0
 24 40  1  0  0  0  0
 25 29  1  0  0  0  0
 26 28  1  0  0  0  0
 26 41  1  0  0  0  0
 27 37  1  0  0  0  0
 28 38  2  0  0  0  0
 29 69  1  0  0  0  0
 30 47  1  0  0  0  0
 30 72  1  0  0  0  0
 30 73  1  0  0  0  0
 31 48  1  0  0  0  0
 31 74  1  0  0  0  0
 31 75  1  0  0  0  0
 32 34  1  0  0  0  0
 32 39  2  0  0  0  0
 32 44  1  0  0  0  0
 33 35  2  0  0  0  0
 33 42  1  0  0  0  0
 33 45  1  0  0  0  0
 34 38  1  0  0  0  0
 35 36  1  0  0  0  0
 35 49  1  0  0  0  0
 36 37  2  0  0  0  0
 37 76  1  0  0  0  0
 38 77  1  0  0  0  0
 39 43  1  0  0  0  0
 39 50  1  0  0  0  0
 40 53  1  0  0  0  0
 40 78  1  0  0  0  0
 40 79  1  0  0  0  0
 41 54  1  0  0  0  0
 41 80  1  0  0  0  0
 41 81  1  0  0  0  0
 42 46  1  0  0  0  0
 43 46  2  0  0  0  0
 44 51  1  0  0  0  0
 44 82  1  0  0  0  0
 44 83  1  0  0  0  0
 45 52  1  0  0  0  0
 45 84  1  0  0  0  0
 45 85  1  0  0  0  0
 46 86  1  0  0  0  0
 47 55  1  0  0  0  0
 47 87  1  0  0  0  0
 47 88  1  0  0  0  0
 48 56  1  0  0  0  0
 48 89  1  0  0  0  0
 48 90  1  0  0  0  0
 49 57  1  0  0  0  0
 49 91  1  0  0  0  0
 49 92  1  0  0  0  0
 50 58  1  0  0  0  0
 50 93  1  0  0  0  0
 50 94  1  0  0  0  0
 51 59  1  0  0  0  0
 51 95  1  0  0  0  0
 51 96  1  0  0  0  0
 52 60  1  0  0  0  0
 52 97  1  0  0  0  0
 52 98  1  0  0  0  0
 61 99  1  0  0  0  0
 61100  1  0  0  0  0
 61101  1  0  0  0  0
 62102  1  0  0  0  0
 62103  1  0  0  0  0
 62104  1  0  0  0  0
 63105  1  0  0  0  0
 63106  1  0  0  0  0
 63107  1  0  0  0  0
 64108  1  0  0  0  0
 64109  1  0  0  0  0
 64110  1  0  0  0  0
 65111  1  0  0  0  0
 65112  1  0  0  0  0
 65113  1  0  0  0  0
 66114  1  0  0  0  0
 66115  1  0  0  0  0
 66116  1  0  0  0  0
 67117  1  0  0  0  0
 67118  1  0  0  0  0
 67119  1  0  0  0  0
 68120  1  0  0  0  0
 68121  1  0  0  0  0
 68122  1  0  0  0  0
M  END
> <PUBCHEM_COMPOUND_CID>
66288

> <PUBCHEM_COMPOUND_CANONICALIZED>
1

> <PUBCHEM_CACTVS_COMPLEXITY>
1770

> <PUBCHEM_CACTVS_HBOND_ACCEPTOR>
18

> <PUBCHEM_CACTVS_HBOND_DONOR>
2

> <PUBCHEM_CACTVS_ROTATABLE_BOND>
28

> <PUBCHEM_CACTVS_SUBSKEYS>
AAADcfB/vgAAAAAAAAAAAAAAAAAAAWLFiwAAAAAAAAAAAAAB/gAAHgAQAAAADAiBngIyyLLJlACoAyTyTACCgCAhAiAAmSEwZJgIIHLA1NGEJAhk0AHIyAe82fOegAAAAAAAAAAAAAAAAAAAAAAAAAAAAA==

> <PUBCHEM_IUPAC_OPENEYE_NAME>
methyl 3-[3,8,13,18-tetrakis(2-methoxy-2-oxo-ethyl)-7,12,17-tris(3-methoxy-3-oxo-propyl)-21,24-dihydroporphyrin-2-yl]propanoate

> <PUBCHEM_IUPAC_CAS_NAME>
3-[3,8,13,18-tetrakis(2-methoxy-2-oxoethyl)-7,12,17-tris(3-methoxy-3-oxopropyl)-21,24-dihydroporphyrin-2-yl]propanoic acid methyl ester

> <PUBCHEM_IUPAC_NAME_MARKUP>
methyl 3-[3,8,13,18-tetrakis(2-methoxy-2-oxoethyl)-7,12,17-tris(3-methoxy-3-oxopropyl)-21,24-dihydroporphyrin-2-yl]propanoate

> <PUBCHEM_IUPAC_NAME>
methyl 3-[3,8,13,18-tetrakis(2-methoxy-2-oxoethyl)-7,12,17-tris(3-methoxy-3-oxopropyl)-21,24-dihydroporphyrin-2-yl]propanoate

> <PUBCHEM_IUPAC_SYSTEMATIC_NAME>
methyl 3-[3,8,13,18-tetrakis(2-methoxy-2-oxidanylidene-ethyl)-7,12,17-tris(3-methoxy-3-oxidanylidene-propyl)-21,24-dihydroporphyrin-2-yl]propanoate

> <PUBCHEM_IUPAC_TRADITIONAL_NAME>
3-[3,8,13,18-tetrakis(2-keto-2-methoxy-ethyl)-7,12,17-tris(3-keto-3-methoxy-propyl)-21,24-dihydroporphin-2-yl]propionic acid methyl ester

> <PUBCHEM_IUPAC_INCHI>
InChI=1S/C48H54N4O16/c1-61-41(53)13-9-25-29(17-45(57)65-5)37-22-34-27(11-15-43(55)63-3)31(19-47(59)67-7)39(51-34)24-36-28(12-16-44(56)64-4)32(20-48(60)68-8)40(52-36)23-35-26(10-14-42(54)62-2)30(18-46(58)66-6)38(50-35)21-33(25)49-37/h21-24,49-50H,9-20H2,1-8H3

> <PUBCHEM_IUPAC_INCHIKEY>
KBKZLUAVUDHBNV-UHFFFAOYSA-N

> <PUBCHEM_XLOGP3_AA>
1.6

> <PUBCHEM_EXACT_MASS>
942.35348165

> <PUBCHEM_MOLECULAR_FORMULA>
C48H54N4O16

> <PUBCHEM_MOLECULAR_WEIGHT>
943.0

> <PUBCHEM_OPENEYE_CAN_SMILES>
COC(=O)CCC1=C(C2=CC3=NC(=CC4=NC(=CC5=C(C(=C(N5)C=C1N2)CC(=O)OC)CCC(=O)OC)C(=C4CCC(=O)OC)CC(=O)OC)C(=C3CCC(=O)OC)CC(=O)OC)CC(=O)OC

> <PUBCHEM_OPENEYE_ISO_SMILES>
COC(=O)CCC1=C(C2=CC3=NC(=CC4=NC(=CC5=C(C(=C(N5)C=C1N2)CC(=O)OC)CCC(=O)OC)C(=C4CCC(=O)OC)CC(=O)OC)C(=C3CCC(=O)OC)CC(=O)OC)CC(=O)OC

> <PUBCHEM_CACTVS_TPSA>
268

> <PUBCHEM_MONOISOTOPIC_WEIGHT>
942.35348165

> <PUBCHEM_TOTAL_CHARGE>
0

> <PUBCHEM_HEAVY_ATOM_COUNT>
68

> <PUBCHEM_ATOM_DEF_STEREO_COUNT>
0

> <PUBCHEM_ATOM_UDEF_STEREO_COUNT>
0

> <PUBCHEM_BOND_DEF_STEREO_COUNT>
0

> <PUBCHEM_BOND_UDEF_STEREO_COUNT>
0

> <PUBCHEM_ISOTOPIC_ATOM_COUNT>
0

> <PUBCHEM_COMPONENT_COUNT>
1

> <PUBCHEM_CACTVS_TAUTO_COUNT>
-1

> <PUBCHEM_COORDINATE_TYPE>
1
5
255

> <PUBCHEM_BONDANNOTATIONS>
17  23  8
17  28  8
18  25  8
18  27  8
19  34  8
19  43  8
20  36  8
20  42  8
21  23  8
21  26  8
22  24  8
22  27  8
23  29  8
24  25  8
25  29  8
26  28  8
27  37  8
28  38  8
34  38  8
36  37  8
42  46  8
43  46  8

$$$$
