143230
  -OEChem-11012401163D

 43 44  0     0  0  0  0  0  0999 V2000
   -0.0007    0.9409   -0.0009 C   0  0  0  0  0  0  0  0  0  0  0  0
   -1.2199    0.0621   -0.2744 C   0  0  0  0  0  0  0  0  0  0  0  0
    1.2178    0.0616    0.2738 C   0  0  0  0  0  0  0  0  0  0  0  0
   -1.5225   -0.8358    0.9328 C   0  0  0  0  0  0  0  0  0  0  0  0
   -2.4386    0.9228   -0.6342 C   0  0  0  0  0  0  0  0  0  0  0  0
    1.5196   -0.8384   -0.9321 C   0  0  0  0  0  0  0  0  0  0  0  0
    2.4370    0.9218    0.6323 C   0  0  0  0  0  0  0  0  0  0  0  0
   -0.2672    1.8326    1.2234 C   0  0  0  0  0  0  0  0  0  0  0  0
    0.2829    1.8308   -1.2228 C   0  0  0  0  0  0  0  0  0  0  0  0
   -2.7699   -1.6863    0.7041 C   0  0  0  0  0  0  0  0  0  0  0  0
   -3.6846    0.0695   -0.8601 C   0  0  0  0  0  0  0  0  0  0  0  0
    2.7664   -1.6896   -0.7022 C   0  0  0  0  0  0  0  0  0  0  0  0
    3.6823    0.0679    0.8595 C   0  0  0  0  0  0  0  0  0  0  0  0
   -3.9769   -0.8281    0.3383 C   0  0  0  0  0  0  0  0  0  0  0  0
    3.9741   -0.8317   -0.3376 C   0  0  0  0  0  0  0  0  0  0  0  0
   -1.0560   -0.5785   -1.1481 H   0  0  0  0  0  0  0  0  0  0  0  0
    1.0537   -0.5782    1.1482 H   0  0  0  0  0  0  0  0  0  0  0  0
   -1.6902   -0.2503    1.8425 H   0  0  0  0  0  0  0  0  0  0  0  0
   -0.7083   -1.5360    1.1377 H   0  0  0  0  0  0  0  0  0  0  0  0
   -2.2696    1.4890   -1.5558 H   0  0  0  0  0  0  0  0  0  0  0  0
   -2.6942    1.6430    0.1464 H   0  0  0  0  0  0  0  0  0  0  0  0
    1.6891   -0.2557   -1.8432 H   0  0  0  0  0  0  0  0  0  0  0  0
    0.7049   -1.5381   -1.1359 H   0  0  0  0  0  0  0  0  0  0  0  0
    2.2707    1.4889    1.5536 H   0  0  0  0  0  0  0  0  0  0  0  0
    2.6964    1.6401   -0.1484 H   0  0  0  0  0  0  0  0  0  0  0  0
    0.4853    2.6272    1.2998 H   0  0  0  0  0  0  0  0  0  0  0  0
   -1.2141    2.3734    1.1916 H   0  0  0  0  0  0  0  0  0  0  0  0
   -0.2289    1.2776    2.1666 H   0  0  0  0  0  0  0  0  0  0  0  0
    0.2525    1.2758   -2.1662 H   0  0  0  0  0  0  0  0  0  0  0  0
    1.2264    2.3764   -1.1827 H   0  0  0  0  0  0  0  0  0  0  0  0
   -0.4719    2.6226   -1.3082 H   0  0  0  0  0  0  0  0  0  0  0  0
   -2.9920   -2.2676    1.6064 H   0  0  0  0  0  0  0  0  0  0  0  0
   -2.5778   -2.4073   -0.1002 H   0  0  0  0  0  0  0  0  0  0  0  0
   -3.5456   -0.5505   -1.7545 H   0  0  0  0  0  0  0  0  0  0  0  0
   -4.5471    0.7175   -1.0538 H   0  0  0  0  0  0  0  0  0  0  0  0
    2.9880   -2.2724   -1.6035 H   0  0  0  0  0  0  0  0  0  0  0  0
    2.5738   -2.4092    0.1032 H   0  0  0  0  0  0  0  0  0  0  0  0
    3.5429   -0.5508    1.7548 H   0  0  0  0  0  0  0  0  0  0  0  0
    4.5454    0.7153    1.0524 H   0  0  0  0  0  0  0  0  0  0  0  0
   -4.8342   -1.4732    0.1156 H   0  0  0  0  0  0  0  0  0  0  0  0
   -4.2580   -0.2082    1.1986 H   0  0  0  0  0  0  0  0  0  0  0  0
    4.8309   -1.4771   -0.1139 H   0  0  0  0  0  0  0  0  0  0  0  0
    4.2558   -0.2133   -1.1987 H   0  0  0  0  0  0  0  0  0  0  0  0
  1  2  1  0  0  0  0
  1  3  1  0  0  0  0
  1  8  1  0  0  0  0
  1  9  1  0  0  0  0
  2  4  1  0  0  0  0
  2  5  1  0  0  0  0
  2 16  1  0  0  0  0
  3  6  1  0  0  0  0
  3  7  1  0  0  0  0
  3 17  1  0  0  0  0
  4 10  1  0  0  0  0
  4 18  1  0  0  0  0
  4 19  1  0  0  0  0
  5 11  1  0  0  0  0
  5 20  1  0  0  0  0
  5 21  1  0  0  0  0
  6 12  1  0  0  0  0
  6 22  1  0  0  0  0
  6 23  1  0  0  0  0
  7 13  1  0  0  0  0
  7 24  1  0  0  0  0
  7 25  1  0  0  0  0
  8 26  1  0  0  0  0
  8 27  1  0  0  0  0
  8 28  1  0  0  0  0
  9 29  1  0  0  0  0
  9 30  1  0  0  0  0
  9 31  1  0  0  0  0
 10 14  1  0  0  0  0
 10 32  1  0  0  0  0
 10 33  1  0  0  0  0
 11 14  1  0  0  0  0
 11 34  1  0  0  0  0
 11 35  1  0  0  0  0
 12 15  1  0  0  0  0
 12 36  1  0  0  0  0
 12 37  1  0  0  0  0
 13 15  1  0  0  0  0
 13 38  1  0  0  0  0
 13 39  1  0  0  0  0
 14 40  1  0  0  0  0
 14 41  1  0  0  0  0
 15 42  1  0  0  0  0
 15 43  1  0  0  0  0
M  END
> <PUBCHEM_COMPOUND_CID>
143230

> <PUBCHEM_CONFORMER_RMSD>
0.6

> <PUBCHEM_CONFORMER_DIVERSEORDER>
2
1
3

> <PUBCHEM_MMFF94_PARTIAL_CHARGES>
0

> <PUBCHEM_EFFECTIVE_ROTOR_COUNT>
4.4

> <PUBCHEM_PHARMACOPHORE_FEATURES>
3
3 1 8 9 hydrophobe
6 2 4 5 10 11 14 rings
6 3 6 7 12 13 15 rings

> <PUBCHEM_HEAVY_ATOM_COUNT>
15

> <PUBCHEM_ATOM_DEF_STEREO_COUNT>
0

> <PUBCHEM_ATOM_UDEF_STEREO_COUNT>
0

> <PUBCHEM_BOND_DEF_STEREO_COUNT>
0

> <PUBCHEM_BOND_UDEF_STEREO_COUNT>
0

> <PUBCHEM_ISOTOPIC_ATOM_COUNT>
0

> <PUBCHEM_COMPONENT_COUNT>
1

> <PUBCHEM_CACTVS_TAUTO_COUNT>
1

> <PUBCHEM_CONFORMER_ID>
00022F7E00000002

> <PUBCHEM_MMFF94_ENERGY>
38.8284

> <PUBCHEM_FEATURE_SELFOVERLAP>
15.223

> <PUBCHEM_SHAPE_FINGERPRINT>
10219947 1 17917709132051787780
10465860 250 18260257551669096608
10465860 71 17749117681296633142
10618630 7 18342179951135998726
10751810 167 16877944940570406427
10922523 26 18335137635253150711
11132069 177 18059843009170689666
11471102 22 17989486329329105490
11543360 7 17095532811355361590
12032990 46 18410857663446436614
12236239 1 15769771377127913687
12251169 10 15770058328145728718
13296908 3 18410575088958221606
13544653 18 18272369767307441159
13764800 53 11383839268275664487
14115302 16 17386010589200524215
14252887 29 18341618130748634938
14289901 80 17632569461595067904
14350558 41 18410300232578751316
14386348 63 18410575088958377507
14943859 89 10159696893557760468
15219456 202 18413103974439604168
15309172 13 17203325589873931702
15375358 24 18411129242823882475
15375462 478 16558755615510034033
15501101 241 18272649077868736200
15775835 57 9295289434575593433
16945 1 18131070467481620672
17804303 29 18187646933763782697
17834072 14 18410852161593284961
17844478 74 18273214166889801308
18175812 5 18412258450214128876
18186145 218 18114176411117518789
19141452 34 18341335587053327299
200 152 17703782600638144551
20201158 50 18411136926531060971
20279233 1 18410854364911793635
20281407 28 18409452479117666562
20645476 183 16081091489158207275
20645477 70 17988916726355506631
20653085 51 10737298947462760196
20671657 53 18040155123492766844
20871999 31 17894352159419569679
21061003 4 18059856190061337513
21069387 34 17632290211981278407
21296965 67 18273495658840711433
21501502 16 18057048999837422960
21524375 3 9223230736731174348
22721475 48 18410863161009908707
231179 274 9511468805195674038
23382010 3 14273745104378595137
23402539 116 18040984120937100124
23419403 2 11879143868726141237
23526113 38 18269254825386428161
23532345 42 18334009519158923076
23557571 272 18187075127287630268
23559900 14 18261950731394679310
25610 137 18201720652402961552
26918003 58 18342452629972247066
2748010 2 18408320012089640919
276578 36 12391518572492558716
296302 2 18341893025740313880
3082319 5 15719395044240881698
4047638 21 10809342235101755686
474 4 15695998614282140674
568465 68 18271809093676293322
581208 293 18060132167775197654
5902787 121 18041278880173901626
7364860 26 18118409681034621893
77492 1 15769769186652446657
81228 2 18191314783773317464
83771 10 18411987961426326499
8809292 202 18261396675759449987
9709674 26 18341895134685515358

> <PUBCHEM_SHAPE_MULTIPOLES>
308.69
6.86
1.8
1.18
0.02
0.18
0
-2.85
0
-0.01
0
0
0.2
0.88

> <PUBCHEM_SHAPE_SELFOVERLAP>
620.803

> <PUBCHEM_SHAPE_VOLUME>
180.3

> <PUBCHEM_COORDINATE_TYPE>
2
5
10

$$$$
