140631
  -OEChem-11012401203D

 21 22  0     1  0  0  0  0  0999 V2000
    1.9236   -1.5035   -0.2389 O   0  0  0  0  0  0  0  0  0  0  0  0
   -0.5490    0.9340    0.5560 C   0  0  2  0  0  0  0  0  0  0  0  0
   -0.0493   -0.5032    0.7507 C   0  0  1  0  0  0  0  0  0  0  0  0
   -1.5469    0.8363   -0.5957 C   0  0  0  0  0  0  0  0  0  0  0  0
   -1.1093   -1.4146    0.1351 C   0  0  0  0  0  0  0  0  0  0  0  0
    0.6885    1.7731    0.2680 C   0  0  0  0  0  0  0  0  0  0  0  0
   -2.2351   -0.4917   -0.3261 C   0  0  0  0  0  0  0  0  0  0  0  0
    1.6235    0.8703   -0.5266 C   0  0  0  0  0  0  0  0  0  0  0  0
    1.2541   -0.5007   -0.0225 C   0  0  0  0  0  0  0  0  0  0  0  0
   -1.0665    1.2920    1.4544 H   0  0  0  0  0  0  0  0  0  0  0  0
    0.1620   -0.7255    1.8011 H   0  0  0  0  0  0  0  0  0  0  0  0
   -1.0469    0.8114   -1.5708 H   0  0  0  0  0  0  0  0  0  0  0  0
   -2.2520    1.6730   -0.6005 H   0  0  0  0  0  0  0  0  0  0  0  0
   -1.4845   -2.1397    0.8651 H   0  0  0  0  0  0  0  0  0  0  0  0
   -0.7135   -1.9823   -0.7149 H   0  0  0  0  0  0  0  0  0  0  0  0
    1.1699    2.0463    1.2154 H   0  0  0  0  0  0  0  0  0  0  0  0
    0.4593    2.6997   -0.2670 H   0  0  0  0  0  0  0  0  0  0  0  0
   -2.7534   -0.8798   -1.2077 H   0  0  0  0  0  0  0  0  0  0  0  0
   -2.9738   -0.3756    0.4762 H   0  0  0  0  0  0  0  0  0  0  0  0
    2.6728    1.0960   -0.3244 H   0  0  0  0  0  0  0  0  0  0  0  0
    1.4184    0.9229   -1.5993 H   0  0  0  0  0  0  0  0  0  0  0  0
  1  9  2  0  0  0  0
  2  3  1  0  0  0  0
  2  4  1  0  0  0  0
  2  6  1  0  0  0  0
  2 10  1  0  0  0  0
  3  5  1  0  0  0  0
  3  9  1  0  0  0  0
  3 11  1  0  0  0  0
  4  7  1  0  0  0  0
  4 12  1  0  0  0  0
  4 13  1  0  0  0  0
  5  7  1  0  0  0  0
  5 14  1  0  0  0  0
  5 15  1  0  0  0  0
  6  8  1  0  0  0  0
  6 16  1  0  0  0  0
  6 17  1  0  0  0  0
  7 18  1  0  0  0  0
  7 19  1  0  0  0  0
  8  9  1  0  0  0  0
  8 20  1  0  0  0  0
  8 21  1  0  0  0  0
M  END
> <PUBCHEM_COMPOUND_CID>
140631

> <PUBCHEM_CONFORMER_RMSD>
0.4

> <PUBCHEM_CONFORMER_DIVERSEORDER>
1
2
3

> <PUBCHEM_MMFF94_PARTIAL_CHARGES>
4
1 -0.57
3 0.06
8 0.06
9 0.45

> <PUBCHEM_EFFECTIVE_ROTOR_COUNT>
1

> <PUBCHEM_PHARMACOPHORE_FEATURES>
3
1 1 acceptor
5 2 3 4 5 7 rings
5 2 3 6 8 9 rings

> <PUBCHEM_HEAVY_ATOM_COUNT>
9

> <PUBCHEM_ATOM_DEF_STEREO_COUNT>
0

> <PUBCHEM_ATOM_UDEF_STEREO_COUNT>
2

> <PUBCHEM_BOND_DEF_STEREO_COUNT>
0

> <PUBCHEM_BOND_UDEF_STEREO_COUNT>
0

> <PUBCHEM_ISOTOPIC_ATOM_COUNT>
0

> <PUBCHEM_COMPONENT_COUNT>
1

> <PUBCHEM_CACTVS_TAUTO_COUNT>
3

> <PUBCHEM_CONFORMER_ID>
0002255700000001

> <PUBCHEM_MMFF94_ENERGY>
13.3724

> <PUBCHEM_FEATURE_SELFOVERLAP>
15.603

> <PUBCHEM_SHAPE_FINGERPRINT>
12423570 1 12579236500132115129
12897270 3 18192993948539844645
13024252 1 16156558544131030306
137420 1 11288319538982992465
14128692 85 18343300362032536630
16945 1 18339081621821309157
18185500 45 18120933910544290218
21040471 1 18190734439296877065
21922407 69 15410612631149849250
23552423 10 18333733506979939630
241688 4 18194399991951991632
2748010 2 18410571738904667429
29004967 10 18272369823136682771
369184 2 14763202438021457550
5084963 1 17530969051149794127

> <PUBCHEM_SHAPE_MULTIPOLES>
179.35
2.48
1.72
0.81
0.42
0.04
0.03
0.32
-0.52
-0.43
0.02
0.03
-0.07
0.13

> <PUBCHEM_SHAPE_SELFOVERLAP>
375.798

> <PUBCHEM_SHAPE_VOLUME>
104.8

> <PUBCHEM_COORDINATE_TYPE>
2
5
10

$$$$
