135406598
  -OEChem-11012400453D

 77 82  0     1  0  0  0  0  0999 V2000
   -2.0475   -5.6038   -0.4704 O   0  0  0  0  0  0  0  0  0  0  0  0
   -7.7518    1.0604    1.1055 O   0  0  0  0  0  0  0  0  0  0  0  0
   -6.1573    0.1048    2.4719 O   0  0  0  0  0  0  0  0  0  0  0  0
   -1.1963    0.4008   -0.6385 N   0  0  0  0  0  0  0  0  0  0  0  0
    0.7269   -1.8752   -0.2262 N   0  0  0  0  0  0  0  0  0  0  0  0
    1.2244    2.0532   -0.3702 N   0  0  0  0  0  0  0  0  0  0  0  0
    2.8998   -0.2760    0.0914 N   0  0  0  0  0  0  0  0  0  0  0  0
   -3.4687   -0.0332   -0.9168 C   0  0  1  0  0  0  0  0  0  0  0  0
   -3.1474    1.4289   -1.3762 C   0  0  1  0  0  0  0  0  0  0  0  0
   -2.0929   -0.6333   -0.6826 C   0  0  0  0  0  0  0  0  0  0  0  0
   -4.2977   -0.0296    0.3692 C   0  0  0  0  0  0  0  0  0  0  0  0
   -1.6942    1.6284   -0.9567 C   0  0  0  0  0  0  0  0  0  0  0  0
   -1.8149   -1.9362   -0.5677 C   0  0  0  0  0  0  0  0  0  0  0  0
   -3.3091    1.5742   -2.8911 C   0  0  0  0  0  0  0  0  0  0  0  0
   -2.6593   -3.1823   -0.6279 C   0  0  0  0  0  0  0  0  0  0  0  0
   -0.4392   -2.4052   -0.3651 C   0  0  0  0  0  0  0  0  0  0  0  0
   -5.6914    0.5333    0.1235 C   0  0  0  0  0  0  0  0  0  0  0  0
   -0.4061   -3.8596   -0.3118 C   0  0  0  0  0  0  0  0  0  0  0  0
   -1.6520   -4.2986   -0.4616 C   0  0  0  0  0  0  0  0  0  0  0  0
   -1.0820    2.8214   -0.9384 C   0  0  0  0  0  0  0  0  0  0  0  0
    0.9667   -4.1794   -0.1201 C   0  0  0  0  0  0  0  0  0  0  0  0
    1.5841   -2.9708   -0.0756 C   0  0  0  0  0  0  0  0  0  0  0  0
    0.3437    2.9943   -0.5540 C   0  0  0  0  0  0  0  0  0  0  0  0
   -6.5263    0.5246    1.3837 C   0  0  0  0  0  0  0  0  0  0  0  0
    1.4749   -5.5664   -0.0087 C   0  0  0  0  0  0  0  0  0  0  0  0
    0.8647    4.3673   -0.3746 C   0  0  0  0  0  0  0  0  0  0  0  0
    2.9977   -2.6974    0.0996 C   0  0  0  0  0  0  0  0  0  0  0  0
    2.1528    4.1413   -0.0621 C   0  0  0  0  0  0  0  0  0  0  0  0
    2.3997    2.6984   -0.0556 C   0  0  0  0  0  0  0  0  0  0  0  0
    3.5683   -1.4791    0.1688 C   0  0  0  0  0  0  0  0  0  0  0  0
    4.9830   -1.1936    0.3433 C   0  0  0  0  0  0  0  0  0  0  0  0
    0.0740    5.6154   -0.5135 C   0  0  0  0  0  0  0  0  0  0  0  0
    3.8072    0.6469    0.2078 C   0  0  0  0  0  0  0  0  0  0  0  0
    5.1844    0.1324    0.3753 C   0  0  0  0  0  0  0  0  0  0  0  0
    3.5818    2.1150    0.2053 C   0  0  0  0  0  0  0  0  0  0  0  0
    6.0097   -2.2696    0.4624 C   0  0  0  0  0  0  0  0  0  0  0  0
    3.0987    5.1943    0.2155 C   0  0  0  0  0  0  0  0  0  0  0  0
    6.4160    0.9402    0.5239 C   0  0  0  0  0  0  0  0  0  0  0  0
   -8.6621    1.1216    2.2082 C   0  0  0  0  0  0  0  0  0  0  0  0
    5.9942   -2.9199    1.8350 C   0  0  0  0  0  0  0  0  0  0  0  0
    3.7436    5.3124    1.3751 C   0  0  0  0  0  0  0  0  0  0  0  0
   -3.9999   -0.5865   -1.7015 H   0  0  0  0  0  0  0  0  0  0  0  0
   -3.7720    2.1772   -0.8794 H   0  0  0  0  0  0  0  0  0  0  0  0
   -3.7946    0.5517    1.1538 H   0  0  0  0  0  0  0  0  0  0  0  0
   -4.3891   -1.0508    0.7600 H   0  0  0  0  0  0  0  0  0  0  0  0
   -0.2206    0.2591   -0.4196 H   0  0  0  0  0  0  0  0  0  0  0  0
   -2.6677    0.8741   -3.4382 H   0  0  0  0  0  0  0  0  0  0  0  0
   -3.0543    2.5879   -3.2189 H   0  0  0  0  0  0  0  0  0  0  0  0
   -4.3467    1.3813   -3.1840 H   0  0  0  0  0  0  0  0  0  0  0  0
   -3.3890   -3.2064    0.1868 H   0  0  0  0  0  0  0  0  0  0  0  0
   -3.1699   -3.2655   -1.5923 H   0  0  0  0  0  0  0  0  0  0  0  0
   -6.2083   -0.0759   -0.6269 H   0  0  0  0  0  0  0  0  0  0  0  0
   -5.6539    1.5678   -0.2279 H   0  0  0  0  0  0  0  0  0  0  0  0
   -1.6421    3.7056   -1.2236 H   0  0  0  0  0  0  0  0  0  0  0  0
    1.2506   -6.1316   -0.9194 H   0  0  0  0  0  0  0  0  0  0  0  0
    1.0066   -6.0798    0.8376 H   0  0  0  0  0  0  0  0  0  0  0  0
    2.5573   -5.6004    0.1432 H   0  0  0  0  0  0  0  0  0  0  0  0
    3.6250   -3.5814    0.1693 H   0  0  0  0  0  0  0  0  0  0  0  0
   -3.0122   -5.6132   -0.5957 H   0  0  0  0  0  0  0  0  0  0  0  0
   -0.2964    5.7251   -1.5376 H   0  0  0  0  0  0  0  0  0  0  0  0
    0.6701    6.5038   -0.2830 H   0  0  0  0  0  0  0  0  0  0  0  0
   -0.7802    5.6094    0.1709 H   0  0  0  0  0  0  0  0  0  0  0  0
    4.4492    2.7285    0.4234 H   0  0  0  0  0  0  0  0  0  0  0  0
    5.8606   -3.0287   -0.3148 H   0  0  0  0  0  0  0  0  0  0  0  0
    7.0127   -1.8672    0.2812 H   0  0  0  0  0  0  0  0  0  0  0  0
    3.2451    5.9449   -0.5562 H   0  0  0  0  0  0  0  0  0  0  0  0
    6.3541    1.5748    1.4137 H   0  0  0  0  0  0  0  0  0  0  0  0
    6.5643    1.5800   -0.3517 H   0  0  0  0  0  0  0  0  0  0  0  0
    7.3086    0.3180    0.6314 H   0  0  0  0  0  0  0  0  0  0  0  0
   -9.5958    1.5665    1.8539 H   0  0  0  0  0  0  0  0  0  0  0  0
   -8.8723    0.1150    2.5820 H   0  0  0  0  0  0  0  0  0  0  0  0
   -8.2522    1.7519    3.0031 H   0  0  0  0  0  0  0  0  0  0  0  0
    6.1904   -2.1832    2.6219 H   0  0  0  0  0  0  0  0  0  0  0  0
    6.7750   -3.6854    1.8943 H   0  0  0  0  0  0  0  0  0  0  0  0
    5.0396   -3.4050    2.0586 H   0  0  0  0  0  0  0  0  0  0  0  0
    4.4282    6.1383    1.5374 H   0  0  0  0  0  0  0  0  0  0  0  0
    3.6079    4.6068    2.1881 H   0  0  0  0  0  0  0  0  0  0  0  0
  1 19  1  0  0  0  0
  1 59  1  0  0  0  0
  2 24  1  0  0  0  0
  2 39  1  0  0  0  0
  3 24  2  0  0  0  0
  4 10  1  0  0  0  0
  4 12  1  0  0  0  0
  4 46  1  0  0  0  0
  5 16  2  0  0  0  0
  5 22  1  0  0  0  0
  6 23  2  0  0  0  0
  6 29  1  0  0  0  0
  7 30  1  0  0  0  0
  7 33  2  0  0  0  0
  8  9  1  0  0  0  0
  8 10  1  0  0  0  0
  8 11  1  0  0  0  0
  8 42  1  0  0  0  0
  9 12  1  0  0  0  0
  9 14  1  0  0  0  0
  9 43  1  0  0  0  0
 10 13  2  0  0  0  0
 11 17  1  0  0  0  0
 11 44  1  0  0  0  0
 11 45  1  0  0  0  0
 12 20  2  0  0  0  0
 13 15  1  0  0  0  0
 13 16  1  0  0  0  0
 14 47  1  0  0  0  0
 14 48  1  0  0  0  0
 14 49  1  0  0  0  0
 15 19  1  0  0  0  0
 15 50  1  0  0  0  0
 15 51  1  0  0  0  0
 16 18  1  0  0  0  0
 17 24  1  0  0  0  0
 17 52  1  0  0  0  0
 17 53  1  0  0  0  0
 18 19  2  0  0  0  0
 18 21  1  0  0  0  0
 20 23  1  0  0  0  0
 20 54  1  0  0  0  0
 21 22  2  0  0  0  0
 21 25  1  0  0  0  0
 22 27  1  0  0  0  0
 23 26  1  0  0  0  0
 25 55  1  0  0  0  0
 25 56  1  0  0  0  0
 25 57  1  0  0  0  0
 26 28  2  0  0  0  0
 26 32  1  0  0  0  0
 27 30  2  0  0  0  0
 27 58  1  0  0  0  0
 28 29  1  0  0  0  0
 28 37  1  0  0  0  0
 29 35  2  0  0  0  0
 30 31  1  0  0  0  0
 31 34  2  0  0  0  0
 31 36  1  0  0  0  0
 32 60  1  0  0  0  0
 32 61  1  0  0  0  0
 32 62  1  0  0  0  0
 33 34  1  0  0  0  0
 33 35  1  0  0  0  0
 34 38  1  0  0  0  0
 35 63  1  0  0  0  0
 36 40  1  0  0  0  0
 36 64  1  0  0  0  0
 36 65  1  0  0  0  0
 37 41  2  0  0  0  0
 37 66  1  0  0  0  0
 38 67  1  0  0  0  0
 38 68  1  0  0  0  0
 38 69  1  0  0  0  0
 39 70  1  0  0  0  0
 39 71  1  0  0  0  0
 39 72  1  0  0  0  0
 40 73  1  0  0  0  0
 40 74  1  0  0  0  0
 40 75  1  0  0  0  0
 41 76  1  0  0  0  0
 41 77  1  0  0  0  0
M  END
> <PUBCHEM_COMPOUND_CID>
135406598

> <PUBCHEM_CONFORMER_RMSD>
1

> <PUBCHEM_CONFORMER_DIVERSEORDER>
1
6
4
7
2
5
3

> <PUBCHEM_MMFF94_PARTIAL_CHARGES>
45
1 -0.53
10 -0.04
12 -0.04
13 -0.12
15 0.28
16 0.42
17 0.06
18 0.01
19 -0.06
2 -0.43
20 -0.14
21 -0.14
22 0.17
23 0.42
24 0.66
25 0.14
26 -0.12
27 -0.15
29 0.17
3 -0.57
30 0.17
31 -0.14
32 0.14
33 0.42
34 -0.12
35 -0.14
36 0.14
37 -0.15
38 0.14
39 0.28
4 -0.6
41 -0.3
46 0.4
5 -0.62
54 0.15
58 0.15
59 0.45
6 -0.62
63 0.15
66 0.15
7 -0.62
76 0.15
77 0.15
8 0.14
9 0.14

> <PUBCHEM_EFFECTIVE_ROTOR_COUNT>
6.6

> <PUBCHEM_PHARMACOPHORE_FEATURES>
14
1 1 donor
1 3 acceptor
1 4 cation
1 4 donor
1 40 hydrophobe
1 41 hydrophobe
1 5 acceptor
1 6 acceptor
1 7 acceptor
5 13 15 16 18 19 rings
5 4 8 9 10 12 rings
5 5 16 18 21 22 rings
5 6 23 26 28 29 rings
5 7 30 31 33 34 rings

> <PUBCHEM_HEAVY_ATOM_COUNT>
41

> <PUBCHEM_ATOM_DEF_STEREO_COUNT>
2

> <PUBCHEM_ATOM_UDEF_STEREO_COUNT>
0

> <PUBCHEM_BOND_DEF_STEREO_COUNT>
0

> <PUBCHEM_BOND_UDEF_STEREO_COUNT>
0

> <PUBCHEM_ISOTOPIC_ATOM_COUNT>
0

> <PUBCHEM_COMPONENT_COUNT>
1

> <PUBCHEM_CACTVS_TAUTO_COUNT>
-1

> <PUBCHEM_CONFORMER_ID>
0812240600000001

> <PUBCHEM_MMFF94_ENERGY>
124.1641

> <PUBCHEM_FEATURE_SELFOVERLAP>
71.331

> <PUBCHEM_SHAPE_FINGERPRINT>
10290309 65 18263916653679153350
10439779 11 18052805138610570496
10581848 127 17761221316049211523
10653451 467 18187369797041774683
10908659 184 18334847295400580018
1100329 8 18410852208985767974
11513181 2 17696756928207523030
12107183 9 18413112779603102833
12422481 6 18261684778450882251
12440605 4 18051137183798454331
12677640 9 18340770468199216463
12758862 65 17896908524677265011
13140716 1 18338797943637119823
13165054 189 18058748965780613007
1361 2 18411141312109324059
14020679 6 17968382337674649867
14394314 77 18411418457733022376
14790565 3 18339926017219621519
14910700 183 18335147445460427163
15320467 1 18338223887335977908
15324884 4 17605808448129723253
15328829 1 17631998798977895829
15347590 135 17970352520661886619
15351339 4 17326304659549833413
15927050 60 18123475148246355244
16112460 7 18343026592517487592
17852330 53 17839227058500619723
19611394 137 18114752533925970371
20642791 268 17985844640298323361
20764821 26 18337376236621831718
20775438 99 17331905932531922134
21133410 38 18198902707491566327
21796203 349 18192175757787123240
22223350 30 18199454635904700779
22311459 1 18411134714870862567
3178227 256 18408891715423924953
3388396 114 17691371172140454198
3882209 13 16244013522668321927
394071 54 18272095950943188823
4149490 64 18262534684597937723
50150288 127 17199135523138477761
5309563 4 18337667495143840605
9961470 85 18198052780028073520

> <PUBCHEM_SHAPE_MULTIPOLES>
806.23
14.88
8.94
1.47
18.45
1.07
-0.22
2.16
-11.3
-7.49
0.47
2.86
0.66
-0.77

> <PUBCHEM_SHAPE_SELFOVERLAP>
1778.882

> <PUBCHEM_SHAPE_VOLUME>
437

> <PUBCHEM_COORDINATE_TYPE>
2
5
10

$$$$
