142050
  -OEChem-10312420302D

 80 80  0     1  0  0  0  0  0999 V2000
    2.5369   -4.7500    0.0000 O   0  0  0  0  0  0  0  0  0  0  0  0
    6.0010   -3.7500    0.0000 O   0  0  0  0  0  0  0  0  0  0  0  0
    6.0010   -4.7500    0.0000 O   0  0  0  0  0  0  0  0  0  0  0  0
    2.5369   -9.7500    0.0000 O   0  5  0  0  0  0  0  0  0  0  0  0
    4.2690   -9.7500    0.0000 O   0  0  0  0  0  0  0  0  0  0  0  0
    4.2690   -3.7500    0.0000 N   0  0  0  0  0  0  0  0  0  0  0  0
    3.4030   -9.2500    0.0000 N   0  3  0  0  0  0  0  0  0  0  0  0
    8.5991    2.7500    0.0000 C   0  0  0  0  0  0  0  0  0  0  0  0
    7.7331    2.2500    0.0000 C   0  0  0  0  0  0  0  0  0  0  0  0
    8.5991    3.7500    0.0000 C   0  0  0  0  0  0  0  0  0  0  0  0
    7.7331    1.2500    0.0000 C   0  0  0  0  0  0  0  0  0  0  0  0
    9.4651    4.2500    0.0000 C   0  0  0  0  0  0  0  0  0  0  0  0
    6.8671    0.7500    0.0000 C   0  0  0  0  0  0  0  0  0  0  0  0
    9.4651    5.2500    0.0000 C   0  0  0  0  0  0  0  0  0  0  0  0
    6.8671   -0.2500    0.0000 C   0  0  0  0  0  0  0  0  0  0  0  0
   10.3312    5.7500    0.0000 C   0  0  0  0  0  0  0  0  0  0  0  0
    6.0010   -0.7500    0.0000 C   0  0  0  0  0  0  0  0  0  0  0  0
   10.3312    6.7500    0.0000 C   0  0  0  0  0  0  0  0  0  0  0  0
   11.1972    7.2500    0.0000 C   0  0  0  0  0  0  0  0  0  0  0  0
    6.0010   -1.7500    0.0000 C   0  0  0  0  0  0  0  0  0  0  0  0
   11.1972    8.2500    0.0000 C   0  0  0  0  0  0  0  0  0  0  0  0
    5.1350   -2.2500    0.0000 C   0  0  0  0  0  0  0  0  0  0  0  0
    4.2690   -4.7500    0.0000 C   0  0  3  0  0  0  0  0  0  0  0  0
   12.0632    8.7500    0.0000 C   0  0  0  0  0  0  0  0  0  0  0  0
    3.4030   -5.2500    0.0000 C   0  0  3  0  0  0  0  0  0  0  0  0
    5.1350   -3.2500    0.0000 C   0  0  0  0  0  0  0  0  0  0  0  0
    5.1350   -5.2500    0.0000 C   0  0  0  0  0  0  0  0  0  0  0  0
    3.4030   -6.2500    0.0000 C   0  0  0  0  0  0  0  0  0  0  0  0
   12.0632    9.7500    0.0000 C   0  0  0  0  0  0  0  0  0  0  0  0
    2.5369   -6.7500    0.0000 C   0  0  0  0  0  0  0  0  0  0  0  0
    4.2690   -6.7500    0.0000 C   0  0  0  0  0  0  0  0  0  0  0  0
    2.5369   -7.7500    0.0000 C   0  0  0  0  0  0  0  0  0  0  0  0
    4.2690   -7.7500    0.0000 C   0  0  0  0  0  0  0  0  0  0  0  0
    3.4030   -8.2500    0.0000 C   0  0  0  0  0  0  0  0  0  0  0  0
    8.8112    2.1674    0.0000 H   0  0  0  0  0  0  0  0  0  0  0  0
    9.2097    2.8577    0.0000 H   0  0  0  0  0  0  0  0  0  0  0  0
    7.5210    2.8326    0.0000 H   0  0  0  0  0  0  0  0  0  0  0  0
    7.1225    2.1423    0.0000 H   0  0  0  0  0  0  0  0  0  0  0  0
    8.3871    4.3326    0.0000 H   0  0  0  0  0  0  0  0  0  0  0  0
    7.9885    3.6423    0.0000 H   0  0  0  0  0  0  0  0  0  0  0  0
    7.9451    0.6674    0.0000 H   0  0  0  0  0  0  0  0  0  0  0  0
    8.3437    1.3577    0.0000 H   0  0  0  0  0  0  0  0  0  0  0  0
    9.6772    3.6674    0.0000 H   0  0  0  0  0  0  0  0  0  0  0  0
   10.0757    4.3577    0.0000 H   0  0  0  0  0  0  0  0  0  0  0  0
    6.6550    1.3326    0.0000 H   0  0  0  0  0  0  0  0  0  0  0  0
    6.2565    0.6423    0.0000 H   0  0  0  0  0  0  0  0  0  0  0  0
    9.2531    5.8326    0.0000 H   0  0  0  0  0  0  0  0  0  0  0  0
    8.8546    5.1423    0.0000 H   0  0  0  0  0  0  0  0  0  0  0  0
    7.0791   -0.8326    0.0000 H   0  0  0  0  0  0  0  0  0  0  0  0
    7.4776   -0.1423    0.0000 H   0  0  0  0  0  0  0  0  0  0  0  0
   10.5432    5.1674    0.0000 H   0  0  0  0  0  0  0  0  0  0  0  0
   10.9417    5.8577    0.0000 H   0  0  0  0  0  0  0  0  0  0  0  0
    5.7890   -0.1674    0.0000 H   0  0  0  0  0  0  0  0  0  0  0  0
    5.3905   -0.8577    0.0000 H   0  0  0  0  0  0  0  0  0  0  0  0
   10.1191    7.3326    0.0000 H   0  0  0  0  0  0  0  0  0  0  0  0
    9.7206    6.6423    0.0000 H   0  0  0  0  0  0  0  0  0  0  0  0
   11.4092    6.6674    0.0000 H   0  0  0  0  0  0  0  0  0  0  0  0
   11.8078    7.3577    0.0000 H   0  0  0  0  0  0  0  0  0  0  0  0
    6.2131   -2.3326    0.0000 H   0  0  0  0  0  0  0  0  0  0  0  0
    6.6116   -1.6423    0.0000 H   0  0  0  0  0  0  0  0  0  0  0  0
   10.9851    8.8326    0.0000 H   0  0  0  0  0  0  0  0  0  0  0  0
   10.5866    8.1423    0.0000 H   0  0  0  0  0  0  0  0  0  0  0  0
    4.9230   -1.6674    0.0000 H   0  0  0  0  0  0  0  0  0  0  0  0
    4.5244   -2.3577    0.0000 H   0  0  0  0  0  0  0  0  0  0  0  0
    5.0051   -4.3250    0.0000 H   0  0  0  0  0  0  0  0  0  0  0  0
   12.2753    8.1674    0.0000 H   0  0  0  0  0  0  0  0  0  0  0  0
   12.6738    8.8577    0.0000 H   0  0  0  0  0  0  0  0  0  0  0  0
    3.4030   -4.4000    0.0000 H   0  0  0  0  0  0  0  0  0  0  0  0
    3.7320   -3.4400    0.0000 H   0  0  0  0  0  0  0  0  0  0  0  0
    4.7365   -5.7250    0.0000 H   0  0  0  0  0  0  0  0  0  0  0  0
    5.5335   -5.7250    0.0000 H   0  0  0  0  0  0  0  0  0  0  0  0
   12.6832    9.7500    0.0000 H   0  0  0  0  0  0  0  0  0  0  0  0
   12.0632   10.3700    0.0000 H   0  0  0  0  0  0  0  0  0  0  0  0
   11.4432    9.7500    0.0000 H   0  0  0  0  0  0  0  0  0  0  0  0
    2.0000   -6.4400    0.0000 H   0  0  0  0  0  0  0  0  0  0  0  0
    4.8059   -6.4400    0.0000 H   0  0  0  0  0  0  0  0  0  0  0  0
    2.0000   -5.0600    0.0000 H   0  0  0  0  0  0  0  0  0  0  0  0
    6.5380   -5.0600    0.0000 H   0  0  0  0  0  0  0  0  0  0  0  0
    2.0000   -8.0600    0.0000 H   0  0  0  0  0  0  0  0  0  0  0  0
    4.8059   -8.0600    0.0000 H   0  0  0  0  0  0  0  0  0  0  0  0
  1 25  1  0  0  0  0
  1 77  1  0  0  0  0
  2 26  2  0  0  0  0
  3 27  1  0  0  0  0
  3 78  1  0  0  0  0
  4  7  1  0  0  0  0
  5  7  2  0  0  0  0
  6 23  1  0  0  0  0
  6 26  1  0  0  0  0
  6 69  1  0  0  0  0
  7 34  1  0  0  0  0
  8  9  1  0  0  0  0
  8 10  1  0  0  0  0
  8 35  1  0  0  0  0
  8 36  1  0  0  0  0
  9 11  1  0  0  0  0
  9 37  1  0  0  0  0
  9 38  1  0  0  0  0
 10 12  1  0  0  0  0
 10 39  1  0  0  0  0
 10 40  1  0  0  0  0
 11 13  1  0  0  0  0
 11 41  1  0  0  0  0
 11 42  1  0  0  0  0
 12 14  1  0  0  0  0
 12 43  1  0  0  0  0
 12 44  1  0  0  0  0
 13 15  1  0  0  0  0
 13 45  1  0  0  0  0
 13 46  1  0  0  0  0
 14 16  1  0  0  0  0
 14 47  1  0  0  0  0
 14 48  1  0  0  0  0
 15 17  1  0  0  0  0
 15 49  1  0  0  0  0
 15 50  1  0  0  0  0
 16 18  1  0  0  0  0
 16 51  1  0  0  0  0
 16 52  1  0  0  0  0
 17 20  1  0  0  0  0
 17 53  1  0  0  0  0
 17 54  1  0  0  0  0
 18 19  1  0  0  0  0
 18 55  1  0  0  0  0
 18 56  1  0  0  0  0
 19 21  1  0  0  0  0
 19 57  1  0  0  0  0
 19 58  1  0  0  0  0
 20 22  1  0  0  0  0
 20 59  1  0  0  0  0
 20 60  1  0  0  0  0
 21 24  1  0  0  0  0
 21 61  1  0  0  0  0
 21 62  1  0  0  0  0
 22 26  1  0  0  0  0
 22 63  1  0  0  0  0
 22 64  1  0  0  0  0
 23 25  1  0  0  0  0
 23 27  1  0  0  0  0
 23 65  1  0  0  0  0
 24 29  1  0  0  0  0
 24 66  1  0  0  0  0
 24 67  1  0  0  0  0
 25 28  1  0  0  0  0
 25 68  1  0  0  0  0
 27 70  1  0  0  0  0
 27 71  1  0  0  0  0
 28 30  2  0  0  0  0
 28 31  1  0  0  0  0
 29 72  1  0  0  0  0
 29 73  1  0  0  0  0
 29 74  1  0  0  0  0
 30 32  1  0  0  0  0
 30 75  1  0  0  0  0
 31 33  2  0  0  0  0
 31 76  1  0  0  0  0
 32 34  2  0  0  0  0
 32 79  1  0  0  0  0
 33 34  1  0  0  0  0
 33 80  1  0  0  0  0
M  CHG  2   4  -1   7   1
M  END
> <PUBCHEM_COMPOUND_CID>
142050

> <PUBCHEM_COMPOUND_CANONICALIZED>
1

> <PUBCHEM_CACTVS_COMPLEXITY>
518

> <PUBCHEM_CACTVS_HBOND_ACCEPTOR>
5

> <PUBCHEM_CACTVS_HBOND_DONOR>
3

> <PUBCHEM_CACTVS_ROTATABLE_BOND>
20

> <PUBCHEM_CACTVS_SUBSKEYS>
AAADcfB7OAAAAAAAAAAAAAAAAAAAAAAAAAAwAAAAAAAAAAABAAAAHgAUCAAADDzhmAYywILQQgCJAiVSUwCCAAAgAgAoiIEIbIoKNjKAkZGEcABl1gGY2AeY2KGOCAAAAAAAAAAQAAAAAAAAAAAAAAAAAA==

> <PUBCHEM_IUPAC_OPENEYE_NAME>
N-[2-hydroxy-1-(hydroxymethyl)-2-(4-nitrophenyl)ethyl]octadecanamide

> <PUBCHEM_IUPAC_CAS_NAME>
N-[1,3-dihydroxy-1-(4-nitrophenyl)propan-2-yl]octadecanamide

> <PUBCHEM_IUPAC_NAME_MARKUP>
<I>N</I>-[1,3-dihydroxy-1-(4-nitrophenyl)propan-2-yl]octadecanamide

> <PUBCHEM_IUPAC_NAME>
N-[1,3-dihydroxy-1-(4-nitrophenyl)propan-2-yl]octadecanamide

> <PUBCHEM_IUPAC_SYSTEMATIC_NAME>
N-[1-(4-nitrophenyl)-1,3-bis(oxidanyl)propan-2-yl]octadecanamide

> <PUBCHEM_IUPAC_TRADITIONAL_NAME>
N-[2-hydroxy-1-methylol-2-(4-nitrophenyl)ethyl]stearamide

> <PUBCHEM_IUPAC_INCHI>
InChI=1S/C27H46N2O5/c1-2-3-4-5-6-7-8-9-10-11-12-13-14-15-16-17-26(31)28-25(22-30)27(32)23-18-20-24(21-19-23)29(33)34/h18-21,25,27,30,32H,2-17,22H2,1H3,(H,28,31)

> <PUBCHEM_IUPAC_INCHIKEY>
ULVKSVBYCYGJMG-UHFFFAOYSA-N

> <PUBCHEM_XLOGP3>
8.5

> <PUBCHEM_EXACT_MASS>
478.34067257

> <PUBCHEM_MOLECULAR_FORMULA>
C27H46N2O5

> <PUBCHEM_MOLECULAR_WEIGHT>
478.7

> <PUBCHEM_OPENEYE_CAN_SMILES>
CCCCCCCCCCCCCCCCCC(=O)NC(CO)C(C1=CC=C(C=C1)[N+](=O)[O-])O

> <PUBCHEM_OPENEYE_ISO_SMILES>
CCCCCCCCCCCCCCCCCC(=O)NC(CO)C(C1=CC=C(C=C1)[N+](=O)[O-])O

> <PUBCHEM_CACTVS_TPSA>
115

> <PUBCHEM_MONOISOTOPIC_WEIGHT>
478.34067257

> <PUBCHEM_TOTAL_CHARGE>
0

> <PUBCHEM_HEAVY_ATOM_COUNT>
34

> <PUBCHEM_ATOM_DEF_STEREO_COUNT>
0

> <PUBCHEM_ATOM_UDEF_STEREO_COUNT>
2

> <PUBCHEM_BOND_DEF_STEREO_COUNT>
0

> <PUBCHEM_BOND_UDEF_STEREO_COUNT>
0

> <PUBCHEM_ISOTOPIC_ATOM_COUNT>
0

> <PUBCHEM_COMPONENT_COUNT>
1

> <PUBCHEM_CACTVS_TAUTO_COUNT>
2

> <PUBCHEM_COORDINATE_TYPE>
1
5
255

> <PUBCHEM_BONDANNOTATIONS>
23  65  3
25  68  3
28  30  8
28  31  8
30  32  8
31  33  8
32  34  8
33  34  8

$$$$
