138811
  -OEChem-10312420332D

 93 93  0     0  0  0  0  0  0999 V2000
    7.1962   -4.0000    0.0000 C   0  0  0  0  0  0  0  0  0  0  0  0
    7.1962   -3.0000    0.0000 C   0  0  0  0  0  0  0  0  0  0  0  0
    6.3301   -4.5000    0.0000 C   0  0  0  0  0  0  0  0  0  0  0  0
    8.0622   -4.5000    0.0000 C   0  0  0  0  0  0  0  0  0  0  0  0
    8.0622   -2.5000    0.0000 C   0  0  0  0  0  0  0  0  0  0  0  0
    6.3301   -2.5000    0.0000 C   0  0  0  0  0  0  0  0  0  0  0  0
    6.3301   -5.5000    0.0000 C   0  0  0  0  0  0  0  0  0  0  0  0
    8.0622   -5.5000    0.0000 C   0  0  0  0  0  0  0  0  0  0  0  0
    7.1962   -6.0000    0.0000 C   0  0  0  0  0  0  0  0  0  0  0  0
    8.0622   -1.5000    0.0000 C   0  0  0  0  0  0  0  0  0  0  0  0
    6.3301   -1.5000    0.0000 C   0  0  0  0  0  0  0  0  0  0  0  0
    8.9282   -1.0000    0.0000 C   0  0  0  0  0  0  0  0  0  0  0  0
    5.4641   -1.0000    0.0000 C   0  0  0  0  0  0  0  0  0  0  0  0
    8.9282    0.0000    0.0000 C   0  0  0  0  0  0  0  0  0  0  0  0
    5.4641    0.0000    0.0000 C   0  0  0  0  0  0  0  0  0  0  0  0
    9.7942    0.5000    0.0000 C   0  0  0  0  0  0  0  0  0  0  0  0
    4.5981    0.5000    0.0000 C   0  0  0  0  0  0  0  0  0  0  0  0
    9.7942    1.5000    0.0000 C   0  0  0  0  0  0  0  0  0  0  0  0
    4.5981    1.5000    0.0000 C   0  0  0  0  0  0  0  0  0  0  0  0
   10.6603    2.0000    0.0000 C   0  0  0  0  0  0  0  0  0  0  0  0
    3.7320    2.0000    0.0000 C   0  0  0  0  0  0  0  0  0  0  0  0
   10.6603    3.0000    0.0000 C   0  0  0  0  0  0  0  0  0  0  0  0
    3.7320    3.0000    0.0000 C   0  0  0  0  0  0  0  0  0  0  0  0
   11.5263    3.5000    0.0000 C   0  0  0  0  0  0  0  0  0  0  0  0
    2.8660    3.5000    0.0000 C   0  0  0  0  0  0  0  0  0  0  0  0
   11.5263    4.5000    0.0000 C   0  0  0  0  0  0  0  0  0  0  0  0
    2.8660    4.5000    0.0000 C   0  0  0  0  0  0  0  0  0  0  0  0
   12.3923    5.0000    0.0000 C   0  0  0  0  0  0  0  0  0  0  0  0
    2.0000    5.0000    0.0000 C   0  0  0  0  0  0  0  0  0  0  0  0
   12.3923    6.0000    0.0000 C   0  0  0  0  0  0  0  0  0  0  0  0
    2.0000    6.0000    0.0000 C   0  0  0  0  0  0  0  0  0  0  0  0
    7.7331   -3.6900    0.0000 H   0  0  0  0  0  0  0  0  0  0  0  0
    6.6592   -3.3100    0.0000 H   0  0  0  0  0  0  0  0  0  0  0  0
    6.1181   -3.9174    0.0000 H   0  0  0  0  0  0  0  0  0  0  0  0
    5.7196   -4.6077    0.0000 H   0  0  0  0  0  0  0  0  0  0  0  0
    8.6728   -4.6077    0.0000 H   0  0  0  0  0  0  0  0  0  0  0  0
    8.2742   -3.9174    0.0000 H   0  0  0  0  0  0  0  0  0  0  0  0
    8.2742   -3.0826    0.0000 H   0  0  0  0  0  0  0  0  0  0  0  0
    8.6728   -2.3923    0.0000 H   0  0  0  0  0  0  0  0  0  0  0  0
    5.7196   -2.3923    0.0000 H   0  0  0  0  0  0  0  0  0  0  0  0
    6.1181   -3.0826    0.0000 H   0  0  0  0  0  0  0  0  0  0  0  0
    5.7196   -5.3923    0.0000 H   0  0  0  0  0  0  0  0  0  0  0  0
    6.1181   -6.0826    0.0000 H   0  0  0  0  0  0  0  0  0  0  0  0
    8.2742   -6.0826    0.0000 H   0  0  0  0  0  0  0  0  0  0  0  0
    8.6728   -5.3923    0.0000 H   0  0  0  0  0  0  0  0  0  0  0  0
    6.7976   -6.4750    0.0000 H   0  0  0  0  0  0  0  0  0  0  0  0
    7.5947   -6.4750    0.0000 H   0  0  0  0  0  0  0  0  0  0  0  0
    7.8501   -0.9174    0.0000 H   0  0  0  0  0  0  0  0  0  0  0  0
    7.4516   -1.6077    0.0000 H   0  0  0  0  0  0  0  0  0  0  0  0
    6.9407   -1.6077    0.0000 H   0  0  0  0  0  0  0  0  0  0  0  0
    6.5422   -0.9174    0.0000 H   0  0  0  0  0  0  0  0  0  0  0  0
    9.1403   -1.5826    0.0000 H   0  0  0  0  0  0  0  0  0  0  0  0
    9.5388   -0.8923    0.0000 H   0  0  0  0  0  0  0  0  0  0  0  0
    4.8535   -0.8923    0.0000 H   0  0  0  0  0  0  0  0  0  0  0  0
    5.2520   -1.5826    0.0000 H   0  0  0  0  0  0  0  0  0  0  0  0
    8.7162    0.5826    0.0000 H   0  0  0  0  0  0  0  0  0  0  0  0
    8.3176   -0.1077    0.0000 H   0  0  0  0  0  0  0  0  0  0  0  0
    6.0747   -0.1077    0.0000 H   0  0  0  0  0  0  0  0  0  0  0  0
    5.6762    0.5826    0.0000 H   0  0  0  0  0  0  0  0  0  0  0  0
   10.0063   -0.0826    0.0000 H   0  0  0  0  0  0  0  0  0  0  0  0
   10.4048    0.6077    0.0000 H   0  0  0  0  0  0  0  0  0  0  0  0
    3.9875    0.6077    0.0000 H   0  0  0  0  0  0  0  0  0  0  0  0
    4.3860   -0.0826    0.0000 H   0  0  0  0  0  0  0  0  0  0  0  0
    9.5822    2.0826    0.0000 H   0  0  0  0  0  0  0  0  0  0  0  0
    9.1836    1.3923    0.0000 H   0  0  0  0  0  0  0  0  0  0  0  0
    5.2087    1.3923    0.0000 H   0  0  0  0  0  0  0  0  0  0  0  0
    4.8101    2.0826    0.0000 H   0  0  0  0  0  0  0  0  0  0  0  0
   10.8723    1.4174    0.0000 H   0  0  0  0  0  0  0  0  0  0  0  0
   11.2708    2.1077    0.0000 H   0  0  0  0  0  0  0  0  0  0  0  0
    3.1215    2.1077    0.0000 H   0  0  0  0  0  0  0  0  0  0  0  0
    3.5200    1.4174    0.0000 H   0  0  0  0  0  0  0  0  0  0  0  0
   10.4482    3.5826    0.0000 H   0  0  0  0  0  0  0  0  0  0  0  0
   10.0497    2.8923    0.0000 H   0  0  0  0  0  0  0  0  0  0  0  0
    4.3426    2.8923    0.0000 H   0  0  0  0  0  0  0  0  0  0  0  0
    3.9441    3.5826    0.0000 H   0  0  0  0  0  0  0  0  0  0  0  0
   11.7383    2.9174    0.0000 H   0  0  0  0  0  0  0  0  0  0  0  0
   12.1369    3.6077    0.0000 H   0  0  0  0  0  0  0  0  0  0  0  0
    2.2554    3.6077    0.0000 H   0  0  0  0  0  0  0  0  0  0  0  0
    2.6540    2.9174    0.0000 H   0  0  0  0  0  0  0  0  0  0  0  0
   11.3142    5.0826    0.0000 H   0  0  0  0  0  0  0  0  0  0  0  0
   10.9157    4.3923    0.0000 H   0  0  0  0  0  0  0  0  0  0  0  0
    3.4766    4.3923    0.0000 H   0  0  0  0  0  0  0  0  0  0  0  0
    3.0781    5.0826    0.0000 H   0  0  0  0  0  0  0  0  0  0  0  0
   12.6044    4.4174    0.0000 H   0  0  0  0  0  0  0  0  0  0  0  0
   13.0029    5.1077    0.0000 H   0  0  0  0  0  0  0  0  0  0  0  0
    1.3894    5.1077    0.0000 H   0  0  0  0  0  0  0  0  0  0  0  0
    1.7880    4.4174    0.0000 H   0  0  0  0  0  0  0  0  0  0  0  0
   13.0123    6.0000    0.0000 H   0  0  0  0  0  0  0  0  0  0  0  0
   12.3923    6.6200    0.0000 H   0  0  0  0  0  0  0  0  0  0  0  0
   11.7723    6.0000    0.0000 H   0  0  0  0  0  0  0  0  0  0  0  0
    2.6200    6.0000    0.0000 H   0  0  0  0  0  0  0  0  0  0  0  0
    2.0000    6.6200    0.0000 H   0  0  0  0  0  0  0  0  0  0  0  0
    1.3800    6.0000    0.0000 H   0  0  0  0  0  0  0  0  0  0  0  0
  1  2  1  0  0  0  0
  1  3  1  0  0  0  0
  1  4  1  0  0  0  0
  1 32  1  0  0  0  0
  2  5  1  0  0  0  0
  2  6  1  0  0  0  0
  2 33  1  0  0  0  0
  3  7  1  0  0  0  0
  3 34  1  0  0  0  0
  3 35  1  0  0  0  0
  4  8  1  0  0  0  0
  4 36  1  0  0  0  0
  4 37  1  0  0  0  0
  5 10  1  0  0  0  0
  5 38  1  0  0  0  0
  5 39  1  0  0  0  0
  6 11  1  0  0  0  0
  6 40  1  0  0  0  0
  6 41  1  0  0  0  0
  7  9  1  0  0  0  0
  7 42  1  0  0  0  0
  7 43  1  0  0  0  0
  8  9  1  0  0  0  0
  8 44  1  0  0  0  0
  8 45  1  0  0  0  0
  9 46  1  0  0  0  0
  9 47  1  0  0  0  0
 10 12  1  0  0  0  0
 10 48  1  0  0  0  0
 10 49  1  0  0  0  0
 11 13  1  0  0  0  0
 11 50  1  0  0  0  0
 11 51  1  0  0  0  0
 12 14  1  0  0  0  0
 12 52  1  0  0  0  0
 12 53  1  0  0  0  0
 13 15  1  0  0  0  0
 13 54  1  0  0  0  0
 13 55  1  0  0  0  0
 14 16  1  0  0  0  0
 14 56  1  0  0  0  0
 14 57  1  0  0  0  0
 15 17  1  0  0  0  0
 15 58  1  0  0  0  0
 15 59  1  0  0  0  0
 16 18  1  0  0  0  0
 16 60  1  0  0  0  0
 16 61  1  0  0  0  0
 17 19  1  0  0  0  0
 17 62  1  0  0  0  0
 17 63  1  0  0  0  0
 18 20  1  0  0  0  0
 18 64  1  0  0  0  0
 18 65  1  0  0  0  0
 19 21  1  0  0  0  0
 19 66  1  0  0  0  0
 19 67  1  0  0  0  0
 20 22  1  0  0  0  0
 20 68  1  0  0  0  0
 20 69  1  0  0  0  0
 21 23  1  0  0  0  0
 21 70  1  0  0  0  0
 21 71  1  0  0  0  0
 22 24  1  0  0  0  0
 22 72  1  0  0  0  0
 22 73  1  0  0  0  0
 23 25  1  0  0  0  0
 23 74  1  0  0  0  0
 23 75  1  0  0  0  0
 24 26  1  0  0  0  0
 24 76  1  0  0  0  0
 24 77  1  0  0  0  0
 25 27  1  0  0  0  0
 25 78  1  0  0  0  0
 25 79  1  0  0  0  0
 26 28  1  0  0  0  0
 26 80  1  0  0  0  0
 26 81  1  0  0  0  0
 27 29  1  0  0  0  0
 27 82  1  0  0  0  0
 27 83  1  0  0  0  0
 28 30  1  0  0  0  0
 28 84  1  0  0  0  0
 28 85  1  0  0  0  0
 29 31  1  0  0  0  0
 29 86  1  0  0  0  0
 29 87  1  0  0  0  0
 30 88  1  0  0  0  0
 30 89  1  0  0  0  0
 30 90  1  0  0  0  0
 31 91  1  0  0  0  0
 31 92  1  0  0  0  0
 31 93  1  0  0  0  0
M  END
> <PUBCHEM_COMPOUND_CID>
138811

> <PUBCHEM_COMPOUND_CANONICALIZED>
1

> <PUBCHEM_CACTVS_COMPLEXITY>
303

> <PUBCHEM_CACTVS_HBOND_ACCEPTOR>
0

> <PUBCHEM_CACTVS_HBOND_DONOR>
0

> <PUBCHEM_CACTVS_ROTATABLE_BOND>
23

> <PUBCHEM_CACTVS_SUBSKEYS>
AAADcfB4AAAAAAAAAAAAAAAAAAAAAAAAAAAwAAAAAAAAAAAAAAAAGAAAAAAADQCAAAACAAAAAAAAAAAAAAAAAAAAAAAAAAAAAAAAAAIAAAAAAAAAAAAAAAEAgMAOgAAAAAAAAAAAAAAAAAAAAAAAAAAAAA==

> <PUBCHEM_IUPAC_OPENEYE_NAME>
1-dodecyltridecylcyclohexane

> <PUBCHEM_IUPAC_CAS_NAME>
pentacosan-13-ylcyclohexane

> <PUBCHEM_IUPAC_NAME_MARKUP>
pentacosan-13-ylcyclohexane

> <PUBCHEM_IUPAC_NAME>
pentacosan-13-ylcyclohexane

> <PUBCHEM_IUPAC_SYSTEMATIC_NAME>
pentacosan-13-ylcyclohexane

> <PUBCHEM_IUPAC_TRADITIONAL_NAME>
1-lauryltridecylcyclohexane

> <PUBCHEM_IUPAC_INCHI>
InChI=1S/C31H62/c1-3-5-7-9-11-13-15-17-19-22-26-30(31-28-24-21-25-29-31)27-23-20-18-16-14-12-10-8-6-4-2/h30-31H,3-29H2,1-2H3

> <PUBCHEM_IUPAC_INCHIKEY>
DLFCYTDOKTZLIJ-UHFFFAOYSA-N

> <PUBCHEM_XLOGP3_AA>
16.2

> <PUBCHEM_EXACT_MASS>
434.485151978

> <PUBCHEM_MOLECULAR_FORMULA>
C31H62

> <PUBCHEM_MOLECULAR_WEIGHT>
434.8

> <PUBCHEM_OPENEYE_CAN_SMILES>
CCCCCCCCCCCCC(CCCCCCCCCCCC)C1CCCCC1

> <PUBCHEM_OPENEYE_ISO_SMILES>
CCCCCCCCCCCCC(CCCCCCCCCCCC)C1CCCCC1

> <PUBCHEM_CACTVS_TPSA>
0

> <PUBCHEM_MONOISOTOPIC_WEIGHT>
434.485151978

> <PUBCHEM_TOTAL_CHARGE>
0

> <PUBCHEM_HEAVY_ATOM_COUNT>
31

> <PUBCHEM_ATOM_DEF_STEREO_COUNT>
0

> <PUBCHEM_ATOM_UDEF_STEREO_COUNT>
0

> <PUBCHEM_BOND_DEF_STEREO_COUNT>
0

> <PUBCHEM_BOND_UDEF_STEREO_COUNT>
0

> <PUBCHEM_ISOTOPIC_ATOM_COUNT>
0

> <PUBCHEM_COMPONENT_COUNT>
1

> <PUBCHEM_CACTVS_TAUTO_COUNT>
-1

> <PUBCHEM_COORDINATE_TYPE>
1
5
255

$$$$
