138146
  -OEChem-11012400323D

 30 31  0     0  0  0  0  0  0999 V2000
    0.0009   -0.9754    1.1065 O   0  0  0  0  0  0  0  0  0  0  0  0
    0.0099   -2.4150    0.9334 O   0  0  0  0  0  0  0  0  0  0  0  0
   -0.0001   -0.4488   -0.2267 C   0  0  0  0  0  0  0  0  0  0  0  0
   -0.0021    1.0948   -0.1547 C   0  0  0  0  0  0  0  0  0  0  0  0
    1.2698   -0.9452   -0.9376 C   0  0  0  0  0  0  0  0  0  0  0  0
   -1.2689   -0.9481   -0.9372 C   0  0  0  0  0  0  0  0  0  0  0  0
    1.2630    1.6224    0.5383 C   0  0  0  0  0  0  0  0  0  0  0  0
   -1.2680    1.6192    0.5390 C   0  0  0  0  0  0  0  0  0  0  0  0
    2.5415   -0.4086   -0.2752 C   0  0  0  0  0  0  0  0  0  0  0  0
   -2.5416   -0.4150   -0.2741 C   0  0  0  0  0  0  0  0  0  0  0  0
    2.5248    1.1131   -0.1566 C   0  0  0  0  0  0  0  0  0  0  0  0
   -2.5290    1.1066   -0.1552 C   0  0  0  0  0  0  0  0  0  0  0  0
   -0.0028    1.4869   -1.1825 H   0  0  0  0  0  0  0  0  0  0  0  0
    1.2539   -0.6093   -1.9830 H   0  0  0  0  0  0  0  0  0  0  0  0
    1.3289   -2.0388   -0.9721 H   0  0  0  0  0  0  0  0  0  0  0  0
   -1.3251   -2.0417   -0.9757 H   0  0  0  0  0  0  0  0  0  0  0  0
   -1.2543   -0.6099   -1.9820 H   0  0  0  0  0  0  0  0  0  0  0  0
    1.2771    1.3176    1.5921 H   0  0  0  0  0  0  0  0  0  0  0  0
    1.2649    2.7190    0.5272 H   0  0  0  0  0  0  0  0  0  0  0  0
   -1.2728    2.7157    0.5278 H   0  0  0  0  0  0  0  0  0  0  0  0
   -1.2809    1.3143    1.5927 H   0  0  0  0  0  0  0  0  0  0  0  0
    3.4157   -0.7192   -0.8588 H   0  0  0  0  0  0  0  0  0  0  0  0
    2.6547   -0.8514    0.7217 H   0  0  0  0  0  0  0  0  0  0  0  0
   -2.6544   -0.8579    0.7228 H   0  0  0  0  0  0  0  0  0  0  0  0
   -3.4152   -0.7277   -0.8577 H   0  0  0  0  0  0  0  0  0  0  0  0
    3.4100    1.4490    0.3953 H   0  0  0  0  0  0  0  0  0  0  0  0
    2.5891    1.5546   -1.1589 H   0  0  0  0  0  0  0  0  0  0  0  0
   -2.5951    1.5481   -1.1573 H   0  0  0  0  0  0  0  0  0  0  0  0
   -3.4147    1.4401    0.3974 H   0  0  0  0  0  0  0  0  0  0  0  0
   -0.8891   -2.5626    1.2733 H   0  0  0  0  0  0  0  0  0  0  0  0
  1  2  1  0  0  0  0
  1  3  1  0  0  0  0
  2 30  1  0  0  0  0
  3  4  1  0  0  0  0
  3  5  1  0  0  0  0
  3  6  1  0  0  0  0
  4  7  1  0  0  0  0
  4  8  1  0  0  0  0
  4 13  1  0  0  0  0
  5  9  1  0  0  0  0
  5 14  1  0  0  0  0
  5 15  1  0  0  0  0
  6 10  1  0  0  0  0
  6 16  1  0  0  0  0
  6 17  1  0  0  0  0
  7 11  1  0  0  0  0
  7 18  1  0  0  0  0
  7 19  1  0  0  0  0
  8 12  1  0  0  0  0
  8 20  1  0  0  0  0
  8 21  1  0  0  0  0
  9 11  1  0  0  0  0
  9 22  1  0  0  0  0
  9 23  1  0  0  0  0
 10 12  1  0  0  0  0
 10 24  1  0  0  0  0
 10 25  1  0  0  0  0
 11 26  1  0  0  0  0
 11 27  1  0  0  0  0
 12 28  1  0  0  0  0
 12 29  1  0  0  0  0
M  END
> <PUBCHEM_COMPOUND_CID>
138146

> <PUBCHEM_CONFORMER_RMSD>
0.6

> <PUBCHEM_CONFORMER_DIVERSEORDER>
1

> <PUBCHEM_MMFF94_PARTIAL_CHARGES>
4
1 -0.28
2 -0.4
3 0.28
30 0.4

> <PUBCHEM_EFFECTIVE_ROTOR_COUNT>
2.6

> <PUBCHEM_PHARMACOPHORE_FEATURES>
2
6 3 4 5 7 9 11 rings
6 3 4 6 8 10 12 rings

> <PUBCHEM_HEAVY_ATOM_COUNT>
12

> <PUBCHEM_ATOM_DEF_STEREO_COUNT>
0

> <PUBCHEM_ATOM_UDEF_STEREO_COUNT>
0

> <PUBCHEM_BOND_DEF_STEREO_COUNT>
0

> <PUBCHEM_BOND_UDEF_STEREO_COUNT>
0

> <PUBCHEM_ISOTOPIC_ATOM_COUNT>
0

> <PUBCHEM_COMPONENT_COUNT>
1

> <PUBCHEM_CACTVS_TAUTO_COUNT>
1

> <PUBCHEM_CONFORMER_ID>
00021BA200000001

> <PUBCHEM_MMFF94_ENERGY>
18.5963

> <PUBCHEM_FEATURE_SELFOVERLAP>
10.165

> <PUBCHEM_SHAPE_FINGERPRINT>
12138202 97 17971188364104344446
12423570 1 10443760270737300586
12491281 212 17917165930331847337
12897270 3 18131349734539264325
13024252 1 18189616218754668988
13380535 76 18340203106876369884
137420 1 15672329658739928314
15775835 57 18336834082525738333
16945 1 18131633387037955228
18185500 45 17905042556267987387
20653085 51 18130242483422547228
21040471 1 18336546126575097276
21501502 16 18342459274392226908
22344851 341 18340484448228897296
23552423 10 18410292480141689597
241688 4 18412545370877405744
2748010 2 17116065348905878981
353137 74 18341326704432984369
369184 2 18260265261051016276
5084963 1 18334575745734833925
528886 8 17988637527605752973
63268167 104 18341615875769471976
68250623 7 18272090487069665798

> <PUBCHEM_SHAPE_MULTIPOLES>
235.22
3.41
2.01
0.95
0.01
0.16
0.09
-0.71
-0.53
0
0.45
0
0.34
0

> <PUBCHEM_SHAPE_SELFOVERLAP>
477.969

> <PUBCHEM_SHAPE_VOLUME>
135.4

> <PUBCHEM_COORDINATE_TYPE>
2
5
10

$$$$
