10909483
  -OEChem-10312420302D

  7  5  0     0  0  0  0  0  0999 V2000
    5.1350   -0.0600    0.0000 Na  0  3  0  0  0  0  0  0  0  0  0  0
    4.2690    0.4400    0.0000 O   0  5  0  0  0  0  0  0  0  0  0  0
    3.4030   -1.0600    0.0000 O   0  0  0  0  0  0  0  0  0  0  0  0
    2.5369    0.4400    0.0000 N   0  0  0  0  0  0  0  0  0  0  0  0
    3.4030   -0.0600    0.0000 C   0  0  0  0  0  0  0  0  0  0  0  0
    2.0000    0.1300    0.0000 H   0  0  0  0  0  0  0  0  0  0  0  0
    2.5369    1.0600    0.0000 H   0  0  0  0  0  0  0  0  0  0  0  0
  2  5  1  0  0  0  0
  3  5  2  0  0  0  0
  4  5  1  0  0  0  0
  4  6  1  0  0  0  0
  4  7  1  0  0  0  0
M  CHG  2   1   1   2  -1
M  END
> <PUBCHEM_COMPOUND_CID>
10909483

> <PUBCHEM_COMPOUND_CANONICALIZED>
1

> <PUBCHEM_CACTVS_COMPLEXITY>
27.5

> <PUBCHEM_CACTVS_HBOND_ACCEPTOR>
2

> <PUBCHEM_CACTVS_HBOND_DONOR>
1

> <PUBCHEM_CACTVS_ROTATABLE_BOND>
0

> <PUBCHEM_CACTVS_SUBSKEYS>
AAADcQACMCAAAAAAAAAAAAAAAAAAAAAAAAAAAAAAAAAAAAAAAAAABgAQAAAAAAAAAAAACABAAAAIAAAAGAAAAAAAAAAAAAAAAAEAAAAAAAAAAAAAAAAAAAAAAAAAAAAAAAAAAAAAAAAAAAAAAAAAAAAAAA==

> <PUBCHEM_IUPAC_OPENEYE_NAME>
sodium;carbamate

> <PUBCHEM_IUPAC_CAS_NAME>
sodium;carbamate

> <PUBCHEM_IUPAC_NAME_MARKUP>
sodium;carbamate

> <PUBCHEM_IUPAC_NAME>
sodium;carbamate

> <PUBCHEM_IUPAC_SYSTEMATIC_NAME>
sodium;carbamate

> <PUBCHEM_IUPAC_TRADITIONAL_NAME>
sodium;carbamate

> <PUBCHEM_IUPAC_INCHI>
InChI=1S/CH3NO2.Na/c2-1(3)4;/h2H2,(H,3,4);/q;+1/p-1

> <PUBCHEM_IUPAC_INCHIKEY>
KFDFYCRDUBAKHD-UHFFFAOYSA-M

> <PUBCHEM_EXACT_MASS>
82.99832259

> <PUBCHEM_MOLECULAR_FORMULA>
CH2NNaO2

> <PUBCHEM_MOLECULAR_WEIGHT>
83.022

> <PUBCHEM_OPENEYE_CAN_SMILES>
C(=O)(N)[O-].[Na+]

> <PUBCHEM_OPENEYE_ISO_SMILES>
C(=O)(N)[O-].[Na+]

> <PUBCHEM_CACTVS_TPSA>
66.2

> <PUBCHEM_MONOISOTOPIC_WEIGHT>
82.99832259

> <PUBCHEM_TOTAL_CHARGE>
0

> <PUBCHEM_HEAVY_ATOM_COUNT>
5

> <PUBCHEM_ATOM_DEF_STEREO_COUNT>
0

> <PUBCHEM_ATOM_UDEF_STEREO_COUNT>
0

> <PUBCHEM_BOND_DEF_STEREO_COUNT>
0

> <PUBCHEM_BOND_UDEF_STEREO_COUNT>
0

> <PUBCHEM_ISOTOPIC_ATOM_COUNT>
0

> <PUBCHEM_COMPONENT_COUNT>
2

> <PUBCHEM_CACTVS_TAUTO_COUNT>
-1

> <PUBCHEM_COORDINATE_TYPE>
1
5
255

$$$$
