86056
  -OEChem-11012401043D

 29 30  0     1  0  0  0  0  0999 V2000
   -2.3322   -1.6621    0.3954 O   0  0  0  0  0  0  0  0  0  0  0  0
    0.7800    0.5804    0.8017 C   0  0  2  0  0  0  0  0  0  0  0  0
    1.9430    0.0518    0.0102 C   0  0  0  0  0  0  0  0  0  0  0  0
    0.8053   -0.8647    0.3808 C   0  0  2  0  0  0  0  0  0  0  0  0
   -0.3024    1.4108    0.1804 C   0  0  0  0  0  0  0  0  0  0  0  0
   -0.1886   -1.2935   -0.6594 C   0  0  0  0  0  0  0  0  0  0  0  0
   -1.6334    0.6547    0.3097 C   0  0  2  0  0  0  0  0  0  0  0  0
   -1.5931   -0.7261   -0.3947 C   0  0  2  0  0  0  0  0  0  0  0  0
    3.2919   -0.1221    0.6188 C   0  0  0  0  0  0  0  0  0  0  0  0
    2.0218    0.4709   -1.4223 C   0  0  0  0  0  0  0  0  0  0  0  0
   -2.7924    1.4998   -0.2206 C   0  0  0  0  0  0  0  0  0  0  0  0
    0.9113    0.7870    1.8571 H   0  0  0  0  0  0  0  0  0  0  0  0
    0.9466   -1.6028    1.1603 H   0  0  0  0  0  0  0  0  0  0  0  0
   -0.3680    2.3518    0.7419 H   0  0  0  0  0  0  0  0  0  0  0  0
   -0.1321    1.7092   -0.8548 H   0  0  0  0  0  0  0  0  0  0  0  0
    0.1078   -1.0442   -1.6793 H   0  0  0  0  0  0  0  0  0  0  0  0
   -0.2246   -2.3907   -0.6475 H   0  0  0  0  0  0  0  0  0  0  0  0
   -1.8261    0.4897    1.3796 H   0  0  0  0  0  0  0  0  0  0  0  0
   -2.1162   -0.6698   -1.3574 H   0  0  0  0  0  0  0  0  0  0  0  0
    3.8652   -0.8872    0.0848 H   0  0  0  0  0  0  0  0  0  0  0  0
    3.8567    0.8157    0.5892 H   0  0  0  0  0  0  0  0  0  0  0  0
    3.2219   -0.4324    1.6671 H   0  0  0  0  0  0  0  0  0  0  0  0
    2.5654   -0.2883   -1.9980 H   0  0  0  0  0  0  0  0  0  0  0  0
    1.0924    0.6544   -1.9612 H   0  0  0  0  0  0  0  0  0  0  0  0
    2.5990    1.4008   -1.4985 H   0  0  0  0  0  0  0  0  0  0  0  0
   -2.8597    2.4492    0.3208 H   0  0  0  0  0  0  0  0  0  0  0  0
   -2.6650    1.7263   -1.2846 H   0  0  0  0  0  0  0  0  0  0  0  0
   -3.7452    0.9747   -0.0958 H   0  0  0  0  0  0  0  0  0  0  0  0
   -2.3851   -2.4939   -0.1056 H   0  0  0  0  0  0  0  0  0  0  0  0
  1  8  1  0  0  0  0
  1 29  1  0  0  0  0
  2  3  1  0  0  0  0
  2  4  1  0  0  0  0
  2  5  1  0  0  0  0
  2 12  1  0  0  0  0
  3  4  1  0  0  0  0
  3  9  1  0  0  0  0
  3 10  1  0  0  0  0
  4  6  1  0  0  0  0
  4 13  1  0  0  0  0
  5  7  1  0  0  0  0
  5 14  1  0  0  0  0
  5 15  1  0  0  0  0
  6  8  1  0  0  0  0
  6 16  1  0  0  0  0
  6 17  1  0  0  0  0
  7  8  1  0  0  0  0
  7 11  1  0  0  0  0
  7 18  1  0  0  0  0
  8 19  1  0  0  0  0
  9 20  1  0  0  0  0
  9 21  1  0  0  0  0
  9 22  1  0  0  0  0
 10 23  1  0  0  0  0
 10 24  1  0  0  0  0
 10 25  1  0  0  0  0
 11 26  1  0  0  0  0
 11 27  1  0  0  0  0
 11 28  1  0  0  0  0
M  END
> <PUBCHEM_COMPOUND_CID>
86056

> <PUBCHEM_CONFORMER_RMSD>
0.4

> <PUBCHEM_CONFORMER_DIVERSEORDER>
1
20
27
26
12
16
19
23
14
7
8
4
24
17
13
6
25
15
21
5
9
18
3
22
10
2
11

> <PUBCHEM_MMFF94_PARTIAL_CHARGES>
12
1 -0.68
10 0.09
12 0.1
13 0.1
2 -0.19
29 0.4
3 -0.19
4 -0.19
5 0.09
6 0.09
8 0.28
9 0.09

> <PUBCHEM_EFFECTIVE_ROTOR_COUNT>
1

> <PUBCHEM_PHARMACOPHORE_FEATURES>
4
1 1 acceptor
1 1 donor
3 3 9 10 hydrophobe
7 2 3 4 5 6 7 8 rings

> <PUBCHEM_HEAVY_ATOM_COUNT>
11

> <PUBCHEM_ATOM_DEF_STEREO_COUNT>
0

> <PUBCHEM_ATOM_UDEF_STEREO_COUNT>
4

> <PUBCHEM_BOND_DEF_STEREO_COUNT>
0

> <PUBCHEM_BOND_UDEF_STEREO_COUNT>
0

> <PUBCHEM_ISOTOPIC_ATOM_COUNT>
0

> <PUBCHEM_COMPONENT_COUNT>
1

> <PUBCHEM_CACTVS_TAUTO_COUNT>
1

> <PUBCHEM_CONFORMER_ID>
0001502800000001

> <PUBCHEM_MMFF94_ENERGY>
37.5833

> <PUBCHEM_FEATURE_SELFOVERLAP>
20.297

> <PUBCHEM_SHAPE_FINGERPRINT>
10353120 184 18266186217192640503
11206711 2 18340766035270364189
12138202 97 17846489340336582372
12423570 1 15320284787722305124
12716758 59 18200320918039238102
13380535 76 18268984298291884951
15219456 202 17632579353521876878
15775835 57 18408604729930430680
161256 15 17982173627816830569
16945 1 18339369556333971960
20645464 45 17561080319532485370
20645476 183 18187941563819535686
20653085 51 17897191137324215268
20871998 184 18201998867188251815
21040471 1 18268991994720240113
21922407 69 17095517422350298897
22802520 49 17773616934999203782
23235685 24 18270391681707460985
23402539 116 17916002599764096333
23402655 69 17913188894597520901
23552423 10 18261115145074784274
23559900 14 18202003188927508910
241688 4 16110370019111192587
2748010 2 18199741599870766049
29004967 10 16128661859796823194
369184 2 18272926133376652058
5084963 1 17531235218794606894
528886 8 18340198600970295393

> <PUBCHEM_SHAPE_MULTIPOLES>
220.51
4.06
1.55
0.99
0.57
0.2
0.23
-0.54
-0.14
-1.1
0.01
0.47
-0.06
0.01

> <PUBCHEM_SHAPE_SELFOVERLAP>
448.382

> <PUBCHEM_SHAPE_VOLUME>
130.7

> <PUBCHEM_COORDINATE_TYPE>
2
5
10

$$$$
