141480
  -OEChem-11012401223D

 28 32  0     0  0  0  0  0  0999 V2000
   -3.3693    0.9252    0.4095 O   0  0  0  0  0  0  0  0  0  0  0  0
    3.3693    0.9251   -0.4096 O   0  0  0  0  0  0  0  0  0  0  0  0
   -3.4869   -1.0569   -0.7466 O   0  0  0  0  0  0  0  0  0  0  0  0
    3.4868   -1.0567    0.7468 O   0  0  0  0  0  0  0  0  0  0  0  0
   -1.3266   -0.1776   -0.0906 C   0  0  0  0  0  0  0  0  0  0  0  0
    1.3266   -0.1778    0.0905 C   0  0  0  0  0  0  0  0  0  0  0  0
    0.4848   -1.2633   -0.5951 C   0  0  0  0  0  0  0  0  0  0  0  0
   -0.4849   -1.2634    0.5952 C   0  0  0  0  0  0  0  0  0  0  0  0
   -0.3569   -0.1777   -1.2809 C   0  0  0  0  0  0  0  0  0  0  0  0
   -0.4848    0.9081    0.5951 C   0  0  0  0  0  0  0  0  0  0  0  0
    0.4849    0.9080   -0.5952 C   0  0  0  0  0  0  0  0  0  0  0  0
    0.3569   -0.1777    1.2808 C   0  0  0  0  0  0  0  0  0  0  0  0
   -2.8267   -0.1777   -0.1930 C   0  0  0  0  0  0  0  0  0  0  0  0
    2.8267   -0.1778    0.1930 C   0  0  0  0  0  0  0  0  0  0  0  0
   -4.7974    1.0201    0.3689 C   0  0  0  0  0  0  0  0  0  0  0  0
    4.7974    1.0201   -0.3688 C   0  0  0  0  0  0  0  0  0  0  0  0
    0.8737   -2.1491   -1.0812 H   0  0  0  0  0  0  0  0  0  0  0  0
   -0.8739   -2.1491    1.0813 H   0  0  0  0  0  0  0  0  0  0  0  0
   -0.6410   -0.1780   -2.3256 H   0  0  0  0  0  0  0  0  0  0  0  0
   -0.8597    1.7979    1.0848 H   0  0  0  0  0  0  0  0  0  0  0  0
    0.8600    1.7977   -1.0849 H   0  0  0  0  0  0  0  0  0  0  0  0
    0.6411   -0.1778    2.3254 H   0  0  0  0  0  0  0  0  0  0  0  0
   -5.1440    1.0700   -0.6677 H   0  0  0  0  0  0  0  0  0  0  0  0
   -5.0913    1.9396    0.8819 H   0  0  0  0  0  0  0  0  0  0  0  0
   -5.2481    0.1688    0.8880 H   0  0  0  0  0  0  0  0  0  0  0  0
    5.2482    0.1689   -0.8877 H   0  0  0  0  0  0  0  0  0  0  0  0
    5.1438    1.0703    0.6678 H   0  0  0  0  0  0  0  0  0  0  0  0
    5.0912    1.9397   -0.8819 H   0  0  0  0  0  0  0  0  0  0  0  0
  1 13  1  0  0  0  0
  1 15  1  0  0  0  0
  2 14  1  0  0  0  0
  2 16  1  0  0  0  0
  3 13  2  0  0  0  0
  4 14  2  0  0  0  0
  5  8  1  0  0  0  0
  5  9  1  0  0  0  0
  5 10  1  0  0  0  0
  5 13  1  0  0  0  0
  6  7  1  0  0  0  0
  6 11  1  0  0  0  0
  6 12  1  0  0  0  0
  6 14  1  0  0  0  0
  7  8  1  0  0  0  0
  7  9  1  0  0  0  0
  7 17  1  0  0  0  0
  8 12  1  0  0  0  0
  8 18  1  0  0  0  0
  9 11  1  0  0  0  0
  9 19  1  0  0  0  0
 10 11  1  0  0  0  0
 10 12  1  0  0  0  0
 10 20  1  0  0  0  0
 11 21  1  0  0  0  0
 12 22  1  0  0  0  0
 15 23  1  0  0  0  0
 15 24  1  0  0  0  0
 15 25  1  0  0  0  0
 16 26  1  0  0  0  0
 16 27  1  0  0  0  0
 16 28  1  0  0  0  0
M  END
> <PUBCHEM_COMPOUND_CID>
141480

> <PUBCHEM_CONFORMER_RMSD>
0.6

> <PUBCHEM_CONFORMER_DIVERSEORDER>
1
3
2

> <PUBCHEM_MMFF94_PARTIAL_CHARGES>
10
1 -0.43
13 0.67
14 0.67
15 0.28
16 0.28
2 -0.43
3 -0.57
4 -0.57
5 0.05
6 0.05

> <PUBCHEM_EFFECTIVE_ROTOR_COUNT>
4

> <PUBCHEM_PHARMACOPHORE_FEATURES>
3
1 3 acceptor
1 4 acceptor
8 5 6 7 8 9 10 11 12 rings

> <PUBCHEM_HEAVY_ATOM_COUNT>
16

> <PUBCHEM_ATOM_DEF_STEREO_COUNT>
0

> <PUBCHEM_ATOM_UDEF_STEREO_COUNT>
0

> <PUBCHEM_BOND_DEF_STEREO_COUNT>
0

> <PUBCHEM_BOND_UDEF_STEREO_COUNT>
0

> <PUBCHEM_ISOTOPIC_ATOM_COUNT>
0

> <PUBCHEM_COMPONENT_COUNT>
1

> <PUBCHEM_CACTVS_TAUTO_COUNT>
1

> <PUBCHEM_CONFORMER_ID>
000228A800000001

> <PUBCHEM_MMFF94_ENERGY>
69.4894

> <PUBCHEM_FEATURE_SELFOVERLAP>
15.223

> <PUBCHEM_SHAPE_FINGERPRINT>
10219947 1 17821728316877590447
12491281 212 18343028778433983169
13024252 1 14635142460758198054
13675066 3 16805325470283834453
13760787 19 18343863320523274935
13760787 5 18260259737638736087
14911166 2 15841834451533704712
14943859 89 18342458136352312097
14993402 34 18342453785297220820
15048467 5 18410857659151891557
16945 1 18410848863058505575
18186145 218 18113616772546862134
19026448 5 18410569591400089218
21501502 16 15624562046112367787
23402539 116 18342171176407121413
23402655 69 17417243214185071393
23559900 14 16917351450811868220
296302 2 18408326591984767613
369184 2 17603578643343842602
528886 8 18343015601305513690

> <PUBCHEM_SHAPE_MULTIPOLES>
305.8
7.35
1.26
1
0
0.07
0
-2.66
0
0
0
0
0.09
-0.62

> <PUBCHEM_SHAPE_SELFOVERLAP>
712.48

> <PUBCHEM_SHAPE_VOLUME>
169.1

> <PUBCHEM_COORDINATE_TYPE>
2
5
10

$$$$
