7016
  -OEChem-11012401273D

 33 34  0     1  0  0  0  0  0999 V2000
   -1.5713   -2.1809    0.7574 O   0  0  0  0  0  0  0  0  0  0  0  0
    0.6361    0.1153    0.0238 C   0  0  0  0  0  0  0  0  0  0  0  0
   -0.6552    0.0385    0.8362 C   0  0  1  0  0  0  0  0  0  0  0  0
    1.5425    1.2359    0.5513 C   0  0  0  0  0  0  0  0  0  0  0  0
    1.3682   -1.2332    0.0410 C   0  0  0  0  0  0  0  0  0  0  0  0
   -1.4030    1.3740    0.8914 C   0  0  0  0  0  0  0  0  0  0  0  0
    2.8639    1.2981   -0.2114 C   0  0  0  0  0  0  0  0  0  0  0  0
    2.6901   -1.1669   -0.7207 C   0  0  0  0  0  0  0  0  0  0  0  0
    3.5844   -0.0464   -0.1994 C   0  0  0  0  0  0  0  0  0  0  0  0
   -1.5554   -1.0494    0.2721 C   0  0  0  0  0  0  0  0  0  0  0  0
   -2.1044    1.7260   -0.4192 C   0  0  0  0  0  0  0  0  0  0  0  0
   -2.3391   -0.7225   -0.9811 C   0  0  0  0  0  0  0  0  0  0  0  0
   -3.0569    0.6114   -0.8414 C   0  0  0  0  0  0  0  0  0  0  0  0
    0.3986    0.3424   -1.0243 H   0  0  0  0  0  0  0  0  0  0  0  0
   -0.4165   -0.2447    1.8707 H   0  0  0  0  0  0  0  0  0  0  0  0
    1.7439    1.0899    1.6199 H   0  0  0  0  0  0  0  0  0  0  0  0
    1.0754    2.2181    0.4363 H   0  0  0  0  0  0  0  0  0  0  0  0
    0.7602   -2.0188   -0.4201 H   0  0  0  0  0  0  0  0  0  0  0  0
    1.5635   -1.5422    1.0759 H   0  0  0  0  0  0  0  0  0  0  0  0
   -0.7819    2.2063    1.2301 H   0  0  0  0  0  0  0  0  0  0  0  0
   -2.1831    1.2824    1.6612 H   0  0  0  0  0  0  0  0  0  0  0  0
    3.5094    2.0654    0.2309 H   0  0  0  0  0  0  0  0  0  0  0  0
    2.6734    1.6004   -1.2486 H   0  0  0  0  0  0  0  0  0  0  0  0
    2.4892   -1.0073   -1.7873 H   0  0  0  0  0  0  0  0  0  0  0  0
    3.2136   -2.1258   -0.6345 H   0  0  0  0  0  0  0  0  0  0  0  0
    4.4920    0.0158   -0.8104 H   0  0  0  0  0  0  0  0  0  0  0  0
    3.9030   -0.2803    0.8238 H   0  0  0  0  0  0  0  0  0  0  0  0
   -1.3669    1.9112   -1.2083 H   0  0  0  0  0  0  0  0  0  0  0  0
   -2.6708    2.6554   -0.2897 H   0  0  0  0  0  0  0  0  0  0  0  0
   -1.6458   -0.7082   -1.8285 H   0  0  0  0  0  0  0  0  0  0  0  0
   -3.0710   -1.5177   -1.1592 H   0  0  0  0  0  0  0  0  0  0  0  0
   -3.5352    0.8738   -1.7916 H   0  0  0  0  0  0  0  0  0  0  0  0
   -3.8562    0.5194   -0.0953 H   0  0  0  0  0  0  0  0  0  0  0  0
  1 10  2  0  0  0  0
  2  3  1  0  0  0  0
  2  4  1  0  0  0  0
  2  5  1  0  0  0  0
  2 14  1  0  0  0  0
  3  6  1  0  0  0  0
  3 10  1  0  0  0  0
  3 15  1  0  0  0  0
  4  7  1  0  0  0  0
  4 16  1  0  0  0  0
  4 17  1  0  0  0  0
  5  8  1  0  0  0  0
  5 18  1  0  0  0  0
  5 19  1  0  0  0  0
  6 11  1  0  0  0  0
  6 20  1  0  0  0  0
  6 21  1  0  0  0  0
  7  9  1  0  0  0  0
  7 22  1  0  0  0  0
  7 23  1  0  0  0  0
  8  9  1  0  0  0  0
  8 24  1  0  0  0  0
  8 25  1  0  0  0  0
  9 26  1  0  0  0  0
  9 27  1  0  0  0  0
 10 12  1  0  0  0  0
 11 13  1  0  0  0  0
 11 28  1  0  0  0  0
 11 29  1  0  0  0  0
 12 13  1  0  0  0  0
 12 30  1  0  0  0  0
 12 31  1  0  0  0  0
 13 32  1  0  0  0  0
 13 33  1  0  0  0  0
M  END
> <PUBCHEM_COMPOUND_CID>
7016

> <PUBCHEM_CONFORMER_RMSD>
0.6

> <PUBCHEM_CONFORMER_DIVERSEORDER>
1
6
5
9
8
4
7
3
2

> <PUBCHEM_MMFF94_PARTIAL_CHARGES>
4
1 -0.57
10 0.45
12 0.06
3 0.06

> <PUBCHEM_EFFECTIVE_ROTOR_COUNT>
3.2

> <PUBCHEM_PHARMACOPHORE_FEATURES>
3
1 1 acceptor
6 2 4 5 7 8 9 rings
6 3 6 10 11 12 13 rings

> <PUBCHEM_HEAVY_ATOM_COUNT>
13

> <PUBCHEM_ATOM_DEF_STEREO_COUNT>
0

> <PUBCHEM_ATOM_UDEF_STEREO_COUNT>
1

> <PUBCHEM_BOND_DEF_STEREO_COUNT>
0

> <PUBCHEM_BOND_UDEF_STEREO_COUNT>
0

> <PUBCHEM_ISOTOPIC_ATOM_COUNT>
0

> <PUBCHEM_COMPONENT_COUNT>
1

> <PUBCHEM_CACTVS_TAUTO_COUNT>
3

> <PUBCHEM_CONFORMER_ID>
00001B6800000001

> <PUBCHEM_MMFF94_ENERGY>
13.9497

> <PUBCHEM_FEATURE_SELFOVERLAP>
15.223

> <PUBCHEM_SHAPE_FINGERPRINT>
10608611 8 18410008866503711716
11206711 2 18341055198022347604
12138202 97 18187919607899024647
12716758 59 18408316700843890203
12897270 3 18341328993497331980
12932764 1 17894921719522870618
13024252 1 13262399977355845601
13299463 15 18271523186356571425
13380535 76 18410569557167016370
15219456 202 18339361967147670632
15775835 57 18042403534666887365
15906896 17 16915685595768774745
16945 1 18409448063806715000
17844478 74 18189629395899040563
18186145 218 18337102346494172461
18534176 82 18188486994627548163
19973954 147 18337114561270359772
200 152 17561078116182640004
20201158 50 18343299258278643582
20361792 2 15195277642547410977
20653085 51 18113620058239229821
21501502 16 18412545396857952624
22802520 49 18412261774313198025
23402539 116 18335968831546802757
23402655 69 18270675364218455181
23552423 10 18411416193926041650
23557571 272 18116161154106880638
23559900 14 18340770348187844126
25 1 18192429671557599221
2748010 2 17404579369119081176
3248919 1 18342177760976912984
353137 74 18410285887630692729
6333449 129 18334577949168815213
74978 22 18261112954751882410
8030462 33 18131357409978111864
8809292 202 18408889559345197370
93112 12 18408605859707081916

> <PUBCHEM_SHAPE_MULTIPOLES>
261.66
5.23
1.89
0.98
2.26
0.18
0
-0.44
1.48
-0.4
-0.2
-0.4
0.03
0.31

> <PUBCHEM_SHAPE_SELFOVERLAP>
528.85

> <PUBCHEM_SHAPE_VOLUME>
150.2

> <PUBCHEM_COORDINATE_TYPE>
2
5
10

$$$$
