5463282
  -OEChem-11012400563D

 44 45  0     0  0  0  0  0  0999 V2000
    6.0501   -0.2162   -0.0253 N   0  0  0  0  0  0  0  0  0  0  0  0
    0.3909    2.5832    1.2167 N   0  0  0  0  0  0  0  0  0  0  0  0
   -6.1505   -0.2952   -0.3756 C   0  0  0  0  0  0  0  0  0  0  0  0
   -4.6760   -0.1137   -0.2445 C   0  0  0  0  0  0  0  0  0  0  0  0
   -6.9363    0.4656    0.7092 C   0  0  0  0  0  0  0  0  0  0  0  0
   -6.5636   -1.7793   -0.3756 C   0  0  0  0  0  0  0  0  0  0  0  0
   -3.9554    0.5008   -1.2686 C   0  0  0  0  0  0  0  0  0  0  0  0
   -4.0175   -0.5590    0.9016 C   0  0  0  0  0  0  0  0  0  0  0  0
   -1.9388    0.2219   -0.0024 C   0  0  0  0  0  0  0  0  0  0  0  0
   -2.5761    0.6698   -1.1467 C   0  0  0  0  0  0  0  0  0  0  0  0
   -2.6383   -0.3898    1.0237 C   0  0  0  0  0  0  0  0  0  0  0  0
   -0.4795    0.4010    0.1267 C   0  0  0  0  0  0  0  0  0  0  0  0
    1.8615   -0.4471   -0.2355 C   0  0  0  0  0  0  0  0  0  0  0  0
    4.6435   -0.2941   -0.0960 C   0  0  0  0  0  0  0  0  0  0  0  0
    0.4110   -0.5268   -0.3079 C   0  0  0  0  0  0  0  0  0  0  0  0
    2.5827    0.1139   -1.2894 C   0  0  0  0  0  0  0  0  0  0  0  0
    2.5312   -0.9315    0.8882 C   0  0  0  0  0  0  0  0  0  0  0  0
    3.9738    0.1903   -1.2196 C   0  0  0  0  0  0  0  0  0  0  0  0
    3.9222   -0.8550    0.9579 C   0  0  0  0  0  0  0  0  0  0  0  0
    6.7604    0.8551   -0.6949 C   0  0  0  0  0  0  0  0  0  0  0  0
    6.8024   -1.1986    0.7296 C   0  0  0  0  0  0  0  0  0  0  0  0
    0.0024    1.6048    0.7282 C   0  0  0  0  0  0  0  0  0  0  0  0
   -6.4741    0.1175   -1.3409 H   0  0  0  0  0  0  0  0  0  0  0  0
   -6.7383    0.0705    1.7114 H   0  0  0  0  0  0  0  0  0  0  0  0
   -8.0138    0.3886    0.5275 H   0  0  0  0  0  0  0  0  0  0  0  0
   -6.6702    1.5284    0.7088 H   0  0  0  0  0  0  0  0  0  0  0  0
   -6.0291   -2.3319   -1.1563 H   0  0  0  0  0  0  0  0  0  0  0  0
   -7.6373   -1.8787   -0.5683 H   0  0  0  0  0  0  0  0  0  0  0  0
   -6.3510   -2.2638    0.5835 H   0  0  0  0  0  0  0  0  0  0  0  0
   -4.4526    0.8533   -2.1683 H   0  0  0  0  0  0  0  0  0  0  0  0
   -4.5588   -1.0402    1.7114 H   0  0  0  0  0  0  0  0  0  0  0  0
   -2.0258    1.1498   -1.9516 H   0  0  0  0  0  0  0  0  0  0  0  0
   -2.1367   -0.7411    1.9215 H   0  0  0  0  0  0  0  0  0  0  0  0
    0.0401   -1.4416   -0.7682 H   0  0  0  0  0  0  0  0  0  0  0  0
    2.0750    0.4932   -2.1731 H   0  0  0  0  0  0  0  0  0  0  0  0
    1.9826   -1.3695    1.7187 H   0  0  0  0  0  0  0  0  0  0  0  0
    4.5060    0.6221   -2.0624 H   0  0  0  0  0  0  0  0  0  0  0  0
    4.4114   -1.2303    1.8522 H   0  0  0  0  0  0  0  0  0  0  0  0
    6.8608    0.6449   -1.7648 H   0  0  0  0  0  0  0  0  0  0  0  0
    7.7705    0.9753   -0.2872 H   0  0  0  0  0  0  0  0  0  0  0  0
    6.2517    1.8170   -0.5638 H   0  0  0  0  0  0  0  0  0  0  0  0
    7.8547   -1.2100    0.4241 H   0  0  0  0  0  0  0  0  0  0  0  0
    6.4171   -2.2115    0.5666 H   0  0  0  0  0  0  0  0  0  0  0  0
    6.7730   -0.9710    1.8003 H   0  0  0  0  0  0  0  0  0  0  0  0
  1 14  1  0  0  0  0
  1 20  1  0  0  0  0
  1 21  1  0  0  0  0
  2 22  3  0  0  0  0
  3  4  1  0  0  0  0
  3  5  1  0  0  0  0
  3  6  1  0  0  0  0
  3 23  1  0  0  0  0
  4  7  2  0  0  0  0
  4  8  1  0  0  0  0
  5 24  1  0  0  0  0
  5 25  1  0  0  0  0
  5 26  1  0  0  0  0
  6 27  1  0  0  0  0
  6 28  1  0  0  0  0
  6 29  1  0  0  0  0
  7 10  1  0  0  0  0
  7 30  1  0  0  0  0
  8 11  2  0  0  0  0
  8 31  1  0  0  0  0
  9 10  2  0  0  0  0
  9 11  1  0  0  0  0
  9 12  1  0  0  0  0
 10 32  1  0  0  0  0
 11 33  1  0  0  0  0
 12 15  2  0  0  0  0
 12 22  1  0  0  0  0
 13 15  1  0  0  0  0
 13 16  2  0  0  0  0
 13 17  1  0  0  0  0
 14 18  2  0  0  0  0
 14 19  1  0  0  0  0
 15 34  1  0  0  0  0
 16 18  1  0  0  0  0
 16 35  1  0  0  0  0
 17 19  2  0  0  0  0
 17 36  1  0  0  0  0
 18 37  1  0  0  0  0
 19 38  1  0  0  0  0
 20 39  1  0  0  0  0
 20 40  1  0  0  0  0
 20 41  1  0  0  0  0
 21 42  1  0  0  0  0
 21 43  1  0  0  0  0
 21 44  1  0  0  0  0
M  END
> <PUBCHEM_COMPOUND_CID>
5463282

> <PUBCHEM_CONFORMER_RMSD>
0.6

> <PUBCHEM_CONFORMER_DIVERSEORDER>
1
9
14
4
11
8
2
12
5
13
3
7
6
10

> <PUBCHEM_MMFF94_PARTIAL_CHARGES>
29
1 -0.84
10 -0.15
11 -0.15
12 0.04
13 0.03
14 0.1
15 -0.18
16 -0.15
17 -0.15
18 -0.15
19 -0.15
2 -0.56
20 0.37
21 0.37
22 0.49
3 0.14
30 0.15
31 0.15
32 0.15
33 0.15
34 0.15
35 0.15
36 0.15
37 0.15
38 0.15
4 -0.14
7 -0.15
8 -0.15
9 0.03

> <PUBCHEM_EFFECTIVE_ROTOR_COUNT>
4

> <PUBCHEM_PHARMACOPHORE_FEATURES>
5
1 1 cation
1 2 acceptor
3 3 5 6 hydrophobe
6 13 14 16 17 18 19 rings
6 4 7 8 9 10 11 rings

> <PUBCHEM_HEAVY_ATOM_COUNT>
22

> <PUBCHEM_ATOM_DEF_STEREO_COUNT>
0

> <PUBCHEM_ATOM_UDEF_STEREO_COUNT>
0

> <PUBCHEM_BOND_DEF_STEREO_COUNT>
1

> <PUBCHEM_BOND_UDEF_STEREO_COUNT>
0

> <PUBCHEM_ISOTOPIC_ATOM_COUNT>
0

> <PUBCHEM_COMPONENT_COUNT>
1

> <PUBCHEM_CACTVS_TAUTO_COUNT>
1

> <PUBCHEM_CONFORMER_ID>
00535CF200000001

> <PUBCHEM_MMFF94_ENERGY>
80.3898

> <PUBCHEM_FEATURE_SELFOVERLAP>
25.371

> <PUBCHEM_SHAPE_FINGERPRINT>
10 15 15554436397922863018
10299344 5 18334296470445945363
10354089 29 13758355566415939610
106641 1 17632572790263560346
10968037 39 17675925408992772543
11089746 13 9295282842165024919
11315181 36 16950006932871091013
11719270 70 17676482835708331906
12091667 2 17748545936088907431
12107183 9 16375763697630954512
12166972 35 18186803578323290540
12236239 1 18260547805912401070
12516196 113 18131069337630928377
13073987 5 16732976471262719885
13288520 33 18411980274352621687
13533116 47 18335979771377619162
13668630 136 18410577279428888415
13685833 64 18202283623625315611
13899415 154 17775288296032544664
14170010 4 16950566597374965244
14251764 18 17603870004813016415
14251764 46 18335137583307465103
15183329 4 16298099878470434811
15716309 27 18409446981554408935
15849732 13 16630526237424906653
1813 80 17704082784455941032
18222031 100 17989210347431002113
19489759 90 17313103038077067373
200 152 18187363208013257836
20157964 124 17313107462800568222
20281389 69 11887955445358613610
21049683 271 18335705000238553181
21267235 1 17988928881049533172
21521721 280 18261397779597505344
22224240 67 16200143296857161318
23035841 295 18272930518248487622
23402539 116 18060134315390669156
23522609 53 18190770620708793909
23536379 177 17095240302343884205
23559900 14 17313670463618740597
23622692 88 15123789591554279721
29717793 49 17894354358786086782
3004659 81 17167860859573517802
3411729 13 17986380303639504224
34797466 226 18333739013839942734
3545911 37 16732703843749853495
4073 2 15575008294547620616
4325135 7 17967532376267714239
5486654 2 18411704300886385586
59682541 35 18130780201260633274
59755656 215 14418127405134370674
67856867 119 16733558233188605804
7495541 125 18335140942488731885

> <PUBCHEM_SHAPE_MULTIPOLES>
442.79
18.71
1.4
1.22
0.79
0.22
0.06
-4.52
-1.47
0.15
0.37
-0.18
0.32
-0.7

> <PUBCHEM_SHAPE_SELFOVERLAP>
934.462

> <PUBCHEM_SHAPE_VOLUME>
247.7

> <PUBCHEM_COORDINATE_TYPE>
2
5
10

$$$$
