10946499
  -OEChem-10312420592D

 28 24  0     0  0  0  0  0  0999 V2000
    2.2690    2.0000    0.0000 Mo  0  0  0  0  0  0  0  0  0  0  0  0
    0.5369    3.0000    0.0000 O   0  3  0  0  0  0  0  0  0  0  0  0
    2.2690    0.0000    0.0000 O   0  3  0  0  0  0  0  0  0  0  0  0
    4.0010    3.0000    0.0000 O   0  3  0  0  0  0  0  0  0  0  0  0
    2.2690    7.6200    0.0000 C   0  0  0  0  0  0  0  0  0  0  0  0
    1.4030    6.1200    0.0000 C   0  0  0  0  0  0  0  0  0  0  0  0
    3.1350    6.1200    0.0000 C   0  0  0  0  0  0  0  0  0  0  0  0
    1.4030    7.1200    0.0000 C   0  0  0  0  0  0  0  0  0  0  0  0
    3.1350    7.1200    0.0000 C   0  0  0  0  0  0  0  0  0  0  0  0
    2.2690    5.6200    0.0000 C   0  0  0  0  0  0  0  0  0  0  0  0
    2.2690    8.6200    0.0000 C   0  0  0  0  0  0  0  0  0  0  0  0
    0.5369    5.6200    0.0000 C   0  0  0  0  0  0  0  0  0  0  0  0
    4.0010    5.6200    0.0000 C   0  0  0  0  0  0  0  0  0  0  0  0
    1.4030    2.5000    0.0000 C   0  5  0  0  0  0  0  0  0  0  0  0
    2.2690    1.0000    0.0000 C   0  5  0  0  0  0  0  0  0  0  0  0
    3.1350    2.5000    0.0000 C   0  5  0  0  0  0  0  0  0  0  0  0
    0.8660    7.4300    0.0000 H   0  0  0  0  0  0  0  0  0  0  0  0
    3.6720    7.4300    0.0000 H   0  0  0  0  0  0  0  0  0  0  0  0
    2.2690    5.0000    0.0000 H   0  0  0  0  0  0  0  0  0  0  0  0
    2.8890    8.6200    0.0000 H   0  0  0  0  0  0  0  0  0  0  0  0
    2.2690    9.2400    0.0000 H   0  0  0  0  0  0  0  0  0  0  0  0
    1.6490    8.6200    0.0000 H   0  0  0  0  0  0  0  0  0  0  0  0
    0.2269    6.1569    0.0000 H   0  0  0  0  0  0  0  0  0  0  0  0
    0.0000    5.3100    0.0000 H   0  0  0  0  0  0  0  0  0  0  0  0
    0.8469    5.0831    0.0000 H   0  0  0  0  0  0  0  0  0  0  0  0
    3.6910    5.0831    0.0000 H   0  0  0  0  0  0  0  0  0  0  0  0
    4.5380    5.3100    0.0000 H   0  0  0  0  0  0  0  0  0  0  0  0
    4.3110    6.1569    0.0000 H   0  0  0  0  0  0  0  0  0  0  0  0
  2 14  3  0  0  0  0
  3 15  3  0  0  0  0
  4 16  3  0  0  0  0
  5  8  2  0  0  0  0
  5  9  1  0  0  0  0
  5 11  1  0  0  0  0
  6  8  1  0  0  0  0
  6 10  2  0  0  0  0
  6 12  1  0  0  0  0
  7  9  2  0  0  0  0
  7 10  1  0  0  0  0
  7 13  1  0  0  0  0
  8 17  1  0  0  0  0
  9 18  1  0  0  0  0
 10 19  1  0  0  0  0
 11 20  1  0  0  0  0
 11 21  1  0  0  0  0
 11 22  1  0  0  0  0
 12 23  1  0  0  0  0
 12 24  1  0  0  0  0
 12 25  1  0  0  0  0
 13 26  1  0  0  0  0
 13 27  1  0  0  0  0
 13 28  1  0  0  0  0
M  CHG  6   2   1   3   1   4   1  14  -1  15  -1  16  -1
M  END
> <PUBCHEM_COMPOUND_CID>
10946499

> <PUBCHEM_COMPOUND_CANONICALIZED>
1

> <PUBCHEM_CACTVS_COMPLEXITY>
65

> <PUBCHEM_CACTVS_HBOND_ACCEPTOR>
3

> <PUBCHEM_CACTVS_HBOND_DONOR>
0

> <PUBCHEM_CACTVS_ROTATABLE_BOND>
0

> <PUBCHEM_CACTVS_SUBSKEYS>
AAADccBwMAAAAAAAAEAAAAAAAAAAAAAAAAAwAAAAAAAAAAABAAAAGgAAAAAADACAGAAyAIAAAACAAiBCAAACAAAgAAAAiAAAAIgIICKAERCAIAAggAAIiAcAgEAOAAACAAAAAAAAAAQAAAAAAAAAAAAAAA==

> <PUBCHEM_IUPAC_OPENEYE_NAME>
carbon monoxide;mesitylene;molybdenum

> <PUBCHEM_IUPAC_CAS_NAME>
carbon monoxide;molybdenum;1,3,5-trimethylbenzene

> <PUBCHEM_IUPAC_NAME_MARKUP>
carbon monoxide;molybdenum;1,3,5-trimethylbenzene

> <PUBCHEM_IUPAC_NAME>
carbon monoxide;molybdenum;1,3,5-trimethylbenzene

> <PUBCHEM_IUPAC_SYSTEMATIC_NAME>
carbon monoxide;molybdenum;1,3,5-trimethylbenzene

> <PUBCHEM_IUPAC_TRADITIONAL_NAME>
carbon monoxide;mesitylene;molybdenum

> <PUBCHEM_IUPAC_INCHI>
InChI=1S/C9H12.3CO.Mo/c1-7-4-8(2)6-9(3)5-7;3*1-2;/h4-6H,1-3H3;;;;

> <PUBCHEM_IUPAC_INCHIKEY>
IQUCQSPNTYHKKW-UHFFFAOYSA-N

> <PUBCHEM_EXACT_MASS>
301.984048

> <PUBCHEM_MOLECULAR_FORMULA>
C12H12MoO3

> <PUBCHEM_MOLECULAR_WEIGHT>
300.17

> <PUBCHEM_OPENEYE_CAN_SMILES>
CC1=CC(=CC(=C1)C)C.[C-]#[O+].[C-]#[O+].[C-]#[O+].[Mo]

> <PUBCHEM_OPENEYE_ISO_SMILES>
CC1=CC(=CC(=C1)C)C.[C-]#[O+].[C-]#[O+].[C-]#[O+].[Mo]

> <PUBCHEM_CACTVS_TPSA>
3

> <PUBCHEM_MONOISOTOPIC_WEIGHT>
301.984048

> <PUBCHEM_TOTAL_CHARGE>
0

> <PUBCHEM_HEAVY_ATOM_COUNT>
16

> <PUBCHEM_ATOM_DEF_STEREO_COUNT>
0

> <PUBCHEM_ATOM_UDEF_STEREO_COUNT>
0

> <PUBCHEM_BOND_DEF_STEREO_COUNT>
0

> <PUBCHEM_BOND_UDEF_STEREO_COUNT>
0

> <PUBCHEM_ISOTOPIC_ATOM_COUNT>
0

> <PUBCHEM_COMPONENT_COUNT>
5

> <PUBCHEM_CACTVS_TAUTO_COUNT>
-1

> <PUBCHEM_COORDINATE_TYPE>
1
5
255

> <PUBCHEM_BONDANNOTATIONS>
5  8  8
5  9  8
6  10  8
6  8  8
7  10  8
7  9  8

$$$$
