143860
  -OEChem-11012400533D

 27 27  0     1  0  0  0  0  0999 V2000
    2.5002   -1.8161   -1.1552 O   0  0  0  0  0  0  0  0  0  0  0  0
    2.9549    1.6400    0.1264 O   0  5  0  0  0  0  0  0  0  0  0  0
    3.1659   -0.3020    1.1455 O   0  0  0  0  0  0  0  0  0  0  0  0
    2.5826    0.5009    0.4144 N   0  3  0  0  0  0  0  0  0  0  0  0
    1.2776    0.0519   -0.1646 C   0  0  2  0  0  0  0  0  0  0  0  0
    0.2116    0.4649    0.8757 C   0  0  0  0  0  0  0  0  0  0  0  0
    1.3801   -1.4700   -0.3457 C   0  0  0  0  0  0  0  0  0  0  0  0
    1.1464    0.7943   -1.4967 C   0  0  0  0  0  0  0  0  0  0  0  0
   -1.2251    0.2336    0.4704 C   0  0  0  0  0  0  0  0  0  0  0  0
   -1.9121    1.2365   -0.1944 C   0  0  0  0  0  0  0  0  0  0  0  0
   -1.8283   -0.9769    0.7707 C   0  0  0  0  0  0  0  0  0  0  0  0
   -3.2387    1.0231   -0.5689 C   0  0  0  0  0  0  0  0  0  0  0  0
   -3.1550   -1.1901    0.3961 C   0  0  0  0  0  0  0  0  0  0  0  0
   -3.8601   -0.1901   -0.2737 C   0  0  0  0  0  0  0  0  0  0  0  0
    0.3935   -0.0552    1.8279 H   0  0  0  0  0  0  0  0  0  0  0  0
    0.3236    1.5303    1.1278 H   0  0  0  0  0  0  0  0  0  0  0  0
    0.4914   -1.8482   -0.8619 H   0  0  0  0  0  0  0  0  0  0  0  0
    1.4514   -2.0157    0.6029 H   0  0  0  0  0  0  0  0  0  0  0  0
    2.0252    0.6567   -2.1390 H   0  0  0  0  0  0  0  0  0  0  0  0
    0.9948    1.8727   -1.3663 H   0  0  0  0  0  0  0  0  0  0  0  0
    0.2858    0.4188   -2.0625 H   0  0  0  0  0  0  0  0  0  0  0  0
   -1.4394    2.1863   -0.4270 H   0  0  0  0  0  0  0  0  0  0  0  0
   -1.2889   -1.7616    1.2931 H   0  0  0  0  0  0  0  0  0  0  0  0
    3.3022   -1.7082   -0.6168 H   0  0  0  0  0  0  0  0  0  0  0  0
   -3.7879    1.8019   -1.0899 H   0  0  0  0  0  0  0  0  0  0  0  0
   -3.6391   -2.1348    0.6261 H   0  0  0  0  0  0  0  0  0  0  0  0
   -4.8930   -0.3562   -0.5652 H   0  0  0  0  0  0  0  0  0  0  0  0
  1  7  1  0  0  0  0
  1 24  1  0  0  0  0
  2  4  1  0  0  0  0
  3  4  2  0  0  0  0
  4  5  1  0  0  0  0
  5  6  1  0  0  0  0
  5  7  1  0  0  0  0
  5  8  1  0  0  0  0
  6  9  1  0  0  0  0
  6 15  1  0  0  0  0
  6 16  1  0  0  0  0
  7 17  1  0  0  0  0
  7 18  1  0  0  0  0
  8 19  1  0  0  0  0
  8 20  1  0  0  0  0
  8 21  1  0  0  0  0
  9 10  2  0  0  0  0
  9 11  1  0  0  0  0
 10 12  1  0  0  0  0
 10 22  1  0  0  0  0
 11 13  2  0  0  0  0
 11 23  1  0  0  0  0
 12 14  2  0  0  0  0
 12 25  1  0  0  0  0
 13 14  1  0  0  0  0
 13 26  1  0  0  0  0
 14 27  1  0  0  0  0
M  CHG  2   2  -1   4   1
M  END
> <PUBCHEM_COMPOUND_CID>
143860

> <PUBCHEM_CONFORMER_RMSD>
0.6

> <PUBCHEM_CONFORMER_DIVERSEORDER>
1
15
13
6
14
10
7
2
11
8
9
3
4
12
5

> <PUBCHEM_MMFF94_PARTIAL_CHARGES>
19
1 -0.68
10 -0.15
11 -0.15
12 -0.15
13 -0.15
14 -0.15
2 -0.52
22 0.15
23 0.15
24 0.4
25 0.15
26 0.15
27 0.15
3 -0.52
4 0.8
5 0.24
6 0.14
7 0.28
9 -0.14

> <PUBCHEM_EFFECTIVE_ROTOR_COUNT>
4

> <PUBCHEM_PHARMACOPHORE_FEATURES>
6
1 1 acceptor
1 1 donor
1 2 acceptor
1 2 anion
1 3 acceptor
6 9 10 11 12 13 14 rings

> <PUBCHEM_HEAVY_ATOM_COUNT>
14

> <PUBCHEM_ATOM_DEF_STEREO_COUNT>
0

> <PUBCHEM_ATOM_UDEF_STEREO_COUNT>
1

> <PUBCHEM_BOND_DEF_STEREO_COUNT>
0

> <PUBCHEM_BOND_UDEF_STEREO_COUNT>
0

> <PUBCHEM_ISOTOPIC_ATOM_COUNT>
0

> <PUBCHEM_COMPONENT_COUNT>
1

> <PUBCHEM_CACTVS_TAUTO_COUNT>
1

> <PUBCHEM_CONFORMER_ID>
000231F400000001

> <PUBCHEM_MMFF94_ENERGY>
41.6773

> <PUBCHEM_FEATURE_SELFOVERLAP>
30.528

> <PUBCHEM_SHAPE_FINGERPRINT>
10608611 8 18409443674577368361
107287 299 17846505858659457142
10922523 26 18333733490195534159
12716758 59 18335143034143008369
12932764 1 17822580408387649401
13296908 3 18202006503808792087
14144814 61 17530681004915422657
14350558 41 18412832373566430759
15219456 202 18341614797969810603
15775835 57 17918273181785992463
15852999 172 18411693279552008747
16945 1 17632291315218115552
18186145 218 18264489490647159725
200 152 17704066283486436699
20201158 50 18413669119279608387
20279233 1 18342457045515105787
204376 136 17630874088201759960
20645477 56 18334294232821063045
20645477 70 17988923315209897951
20671657 53 17985841332403697174
21730867 7 18272655644783983094
22802520 49 18337964376600511679
23402539 116 18188472649626592821
23557571 272 18334297599811308705
23559900 14 18340481145874027538
2748010 2 18337119998714826271
3248919 1 18342458119067077913
57812782 119 18410006624440690163
581208 293 18130785676531733662
69090 78 18409158914351349631
8030462 33 17632024069452258273
9709674 26 18410294718136557963

> <PUBCHEM_SHAPE_MULTIPOLES>
265.52
6.09
1.57
1.1
1.42
0.18
-0.17
0.14
-0.04
-0.29
-0.27
-0.58
0.05
0.6

> <PUBCHEM_SHAPE_SELFOVERLAP>
546.463

> <PUBCHEM_SHAPE_VOLUME>
153.2

> <PUBCHEM_COORDINATE_TYPE>
2
5
10

$$$$
