139685
  -OEChem-11012400493D

 20 19  0     0  0  0  0  0  0999 V2000
    0.9073   -0.1930   -0.0002 S   0  0  0  0  0  0  0  0  0  0  0  0
    1.2637   -0.8026    1.2614 O   0  0  0  0  0  0  0  0  0  0  0  0
    1.2636   -0.8002   -1.2628 O   0  0  0  0  0  0  0  0  0  0  0  0
   -0.8677    0.0334    0.0000 C   0  0  0  0  0  0  0  0  0  0  0  0
   -1.2673    0.8159   -1.2541 C   0  0  0  0  0  0  0  0  0  0  0  0
   -1.5423   -1.3413   -0.0011 C   0  0  0  0  0  0  0  0  0  0  0  0
   -1.2671    0.8135    1.2557 C   0  0  0  0  0  0  0  0  0  0  0  0
    1.5097    1.4743    0.0013 C   0  0  0  0  0  0  0  0  0  0  0  0
   -0.8997    0.3420   -2.1706 H   0  0  0  0  0  0  0  0  0  0  0  0
   -2.3595    0.8725   -1.3361 H   0  0  0  0  0  0  0  0  0  0  0  0
   -0.9065    1.8482   -1.2413 H   0  0  0  0  0  0  0  0  0  0  0  0
   -1.2600   -1.9267    0.8811 H   0  0  0  0  0  0  0  0  0  0  0  0
   -1.2601   -1.9251   -0.8844 H   0  0  0  0  0  0  0  0  0  0  0  0
   -2.6339   -1.2465   -0.0010 H   0  0  0  0  0  0  0  0  0  0  0  0
   -0.9064    1.8459    1.2448 H   0  0  0  0  0  0  0  0  0  0  0  0
   -2.3593    0.8701    1.3379 H   0  0  0  0  0  0  0  0  0  0  0  0
   -0.8994    0.3379    2.1711 H   0  0  0  0  0  0  0  0  0  0  0  0
    2.6022    1.4156    0.0011 H   0  0  0  0  0  0  0  0  0  0  0  0
    1.1983    1.9984   -0.9010 H   0  0  0  0  0  0  0  0  0  0  0  0
    1.1983    1.9967    0.9044 H   0  0  0  0  0  0  0  0  0  0  0  0
  1  2  2  0  0  0  0
  1  3  2  0  0  0  0
  1  4  1  0  0  0  0
  1  8  1  0  0  0  0
  4  5  1  0  0  0  0
  4  6  1  0  0  0  0
  4  7  1  0  0  0  0
  5  9  1  0  0  0  0
  5 10  1  0  0  0  0
  5 11  1  0  0  0  0
  6 12  1  0  0  0  0
  6 13  1  0  0  0  0
  6 14  1  0  0  0  0
  7 15  1  0  0  0  0
  7 16  1  0  0  0  0
  7 17  1  0  0  0  0
  8 18  1  0  0  0  0
  8 19  1  0  0  0  0
  8 20  1  0  0  0  0
M  END
> <PUBCHEM_COMPOUND_CID>
139685

> <PUBCHEM_CONFORMER_RMSD>
0.4

> <PUBCHEM_CONFORMER_DIVERSEORDER>
1
2

> <PUBCHEM_MMFF94_PARTIAL_CHARGES>
5
1 1.09
2 -0.65
3 -0.65
4 0.11
8 0.11

> <PUBCHEM_EFFECTIVE_ROTOR_COUNT>
1

> <PUBCHEM_PHARMACOPHORE_FEATURES>
3
1 2 acceptor
1 3 acceptor
4 4 5 6 7 hydrophobe

> <PUBCHEM_HEAVY_ATOM_COUNT>
8

> <PUBCHEM_ATOM_DEF_STEREO_COUNT>
0

> <PUBCHEM_ATOM_UDEF_STEREO_COUNT>
0

> <PUBCHEM_BOND_DEF_STEREO_COUNT>
0

> <PUBCHEM_BOND_UDEF_STEREO_COUNT>
0

> <PUBCHEM_ISOTOPIC_ATOM_COUNT>
0

> <PUBCHEM_COMPONENT_COUNT>
1

> <PUBCHEM_CACTVS_TAUTO_COUNT>
1

> <PUBCHEM_CONFORMER_ID>
000221A500000001

> <PUBCHEM_MMFF94_ENERGY>
14.4298

> <PUBCHEM_FEATURE_SELFOVERLAP>
15.24

> <PUBCHEM_SHAPE_FINGERPRINT>
21040471 1 18050285869149279181
23552333 60 18263920098026523299
24536 1 18131628963232040225
29004967 10 17701830009816197643
5084963 1 18118964934685996004

> <PUBCHEM_SHAPE_MULTIPOLES>
156.75
2.17
1.42
1.32
0.14
0.05
0
0.04
0
0.03
0
-0.11
0.09
0

> <PUBCHEM_SHAPE_SELFOVERLAP>
279.287

> <PUBCHEM_SHAPE_VOLUME>
104.8

> <PUBCHEM_COORDINATE_TYPE>
2
5
10

$$$$
