76095
  -OEChem-10312420462D

 40 40  0     0  0  0  0  0  0999 V2000
    7.8648    1.8867    0.0000 O   0  5  0  0  0  0  0  0  0  0  0  0
    3.7436    6.7981    0.0000 O   0  5  0  0  0  0  0  0  0  0  0  0
    3.0739    3.0000    0.0000 O   0  5  0  0  0  0  0  0  0  0  0  0
    8.6264    5.0209    0.0000 O   0  5  0  0  0  0  0  0  0  0  0  0
    8.1656    3.5924    0.0000 O   0  0  0  0  0  0  0  0  0  0  0  0
    4.0444    5.0924    0.0000 O   0  0  0  0  0  0  0  0  0  0  0  0
    3.9399    4.5000    0.0000 O   0  0  0  0  0  0  0  0  0  0  0  0
    7.2995    3.9076    0.0000 O   0  0  0  0  0  0  0  0  0  0  0  0
    4.8059    0.0000    0.0000 O   0  5  0  0  0  0  0  0  0  0  0  0
    6.3972    9.0248    0.0000 O   0  5  0  0  0  0  0  0  0  0  0  0
    6.5380    0.0000    0.0000 O   0  0  0  0  0  0  0  0  0  0  0  0
    8.0248    8.4324    0.0000 O   0  0  0  0  0  0  0  0  0  0  0  0
    5.6720    4.5000    0.0000 N   0  0  0  0  0  0  0  0  0  0  0  0
    7.5228    2.8264    0.0000 N   0  3  0  0  0  0  0  0  0  0  0  0
    4.3864    6.0321    0.0000 N   0  3  0  0  0  0  0  0  0  0  0  0
    3.9399    3.5000    0.0000 N   0  3  0  0  0  0  0  0  0  0  0  0
    7.6416    4.8473    0.0000 N   0  3  0  0  0  0  0  0  0  0  0  0
    5.6720    0.5000    0.0000 N   0  3  0  0  0  0  0  0  0  0  0  0
    7.0400    8.2588    0.0000 N   0  3  0  0  0  0  0  0  0  0  0  0
    0.5369    4.6674    0.0000 N   0  0  0  0  0  0  0  0  0  0  0  0
    5.6720    3.5000    0.0000 C   0  0  0  0  0  0  0  0  0  0  0  0
    6.0140    5.4397    0.0000 C   0  0  0  0  0  0  0  0  0  0  0  0
    6.5380    3.0000    0.0000 C   0  0  0  0  0  0  0  0  0  0  0  0
    5.3712    6.2057    0.0000 C   0  0  0  0  0  0  0  0  0  0  0  0
    4.8059    3.0000    0.0000 C   0  0  0  0  0  0  0  0  0  0  0  0
    6.9988    5.6133    0.0000 C   0  0  0  0  0  0  0  0  0  0  0  0
    6.5380    2.0000    0.0000 C   0  0  0  0  0  0  0  0  0  0  0  0
    5.7132    7.1454    0.0000 C   0  0  0  0  0  0  0  0  0  0  0  0
    4.8059    2.0000    0.0000 C   0  0  0  0  0  0  0  0  0  0  0  0
    7.3408    6.5530    0.0000 C   0  0  0  0  0  0  0  0  0  0  0  0
    5.6720    1.5000    0.0000 C   0  0  0  0  0  0  0  0  0  0  0  0
    6.6980    7.3191    0.0000 C   0  0  0  0  0  0  0  0  0  0  0  0
    5.1350    4.8100    0.0000 H   0  0  0  0  0  0  0  0  0  0  0  0
    7.0749    1.6900    0.0000 H   0  0  0  0  0  0  0  0  0  0  0  0
    5.3147    7.6204    0.0000 H   0  0  0  0  0  0  0  0  0  0  0  0
    4.2690    1.6900    0.0000 H   0  0  0  0  0  0  0  0  0  0  0  0
    7.9514    6.6607    0.0000 H   0  0  0  0  0  0  0  0  0  0  0  0
    1.0739    4.9774    0.0000 H   0  0  0  0  0  0  0  0  0  0  0  0
    0.0000    4.9774    0.0000 H   0  0  0  0  0  0  0  0  0  0  0  0
    0.5369    4.0474    0.0000 H   0  0  0  0  0  0  0  0  0  0  0  0
  1 14  1  0  0  0  0
  2 15  1  0  0  0  0
  3 16  1  0  0  0  0
  4 17  1  0  0  0  0
  5 14  2  0  0  0  0
  6 15  2  0  0  0  0
  7 16  2  0  0  0  0
  8 17  2  0  0  0  0
  9 18  1  0  0  0  0
 10 19  1  0  0  0  0
 11 18  2  0  0  0  0
 12 19  2  0  0  0  0
 13 21  1  0  0  0  0
 13 22  1  0  0  0  0
 13 33  1  0  0  0  0
 14 23  1  0  0  0  0
 15 24  1  0  0  0  0
 16 25  1  0  0  0  0
 17 26  1  0  0  0  0
 18 31  1  0  0  0  0
 19 32  1  0  0  0  0
 20 38  1  0  0  0  0
 20 39  1  0  0  0  0
 20 40  1  0  0  0  0
 21 23  2  0  0  0  0
 21 25  1  0  0  0  0
 22 24  2  0  0  0  0
 22 26  1  0  0  0  0
 23 27  1  0  0  0  0
 24 28  1  0  0  0  0
 25 29  2  0  0  0  0
 26 30  2  0  0  0  0
 27 31  2  0  0  0  0
 27 34  1  0  0  0  0
 28 32  2  0  0  0  0
 28 35  1  0  0  0  0
 29 31  1  0  0  0  0
 29 36  1  0  0  0  0
 30 32  1  0  0  0  0
 30 37  1  0  0  0  0
M  CHG  8   1  -1   2  -1   3  -1   4  -1   9  -1  10  -1  14   1  15   1
M  CHG  4  16   1  17   1  18   1  19   1
M  END
> <PUBCHEM_COMPOUND_CID>
76095

> <PUBCHEM_COMPOUND_CANONICALIZED>
1

> <PUBCHEM_CACTVS_COMPLEXITY>
662

> <PUBCHEM_CACTVS_HBOND_ACCEPTOR>
14

> <PUBCHEM_CACTVS_HBOND_DONOR>
2

> <PUBCHEM_CACTVS_ROTATABLE_BOND>
2

> <PUBCHEM_CACTVS_SUBSKEYS>
AAADccBz/AAAAAAAAAAAAAAAAAAAAAAAAAAwYAAAAAAAAAABQAAAHAAUAAAACAiBEAAwwILQQACBACRCQwCCAAAhAgAgiAAAdIoIYGLA0dGUIAhggIDIyAcQAAAAAACAAAQAACAAAQAACAAAQAAAAAAAAA==

> <PUBCHEM_IUPAC_OPENEYE_NAME>
ammonia;2,4,6-trinitro-N-(2,4,6-trinitrophenyl)aniline

> <PUBCHEM_IUPAC_CAS_NAME>
ammonia;2,4,6-trinitro-N-(2,4,6-trinitrophenyl)aniline

> <PUBCHEM_IUPAC_NAME_MARKUP>
azane;2,4,6-trinitro-<I>N</I>-(2,4,6-trinitrophenyl)aniline

> <PUBCHEM_IUPAC_NAME>
azane;2,4,6-trinitro-N-(2,4,6-trinitrophenyl)aniline

> <PUBCHEM_IUPAC_SYSTEMATIC_NAME>
azane;2,4,6-trinitro-N-(2,4,6-trinitrophenyl)aniline

> <PUBCHEM_IUPAC_TRADITIONAL_NAME>
ammonia;dipicrylamine

> <PUBCHEM_IUPAC_INCHI>
InChI=1S/C12H5N7O12.H3N/c20-14(21)5-1-7(16(24)25)11(8(2-5)17(26)27)13-12-9(18(28)29)3-6(15(22)23)4-10(12)19(30)31;/h1-4,13H;1H3

> <PUBCHEM_IUPAC_INCHIKEY>
UPNJFQPILRHLPT-UHFFFAOYSA-N

> <PUBCHEM_EXACT_MASS>
456.02616772

> <PUBCHEM_MOLECULAR_FORMULA>
C12H8N8O12

> <PUBCHEM_MOLECULAR_WEIGHT>
456.24

> <PUBCHEM_OPENEYE_CAN_SMILES>
C1=C(C=C(C(=C1[N+](=O)[O-])NC2=C(C=C(C=C2[N+](=O)[O-])[N+](=O)[O-])[N+](=O)[O-])[N+](=O)[O-])[N+](=O)[O-].N

> <PUBCHEM_OPENEYE_ISO_SMILES>
C1=C(C=C(C(=C1[N+](=O)[O-])NC2=C(C=C(C=C2[N+](=O)[O-])[N+](=O)[O-])[N+](=O)[O-])[N+](=O)[O-])[N+](=O)[O-].N

> <PUBCHEM_CACTVS_TPSA>
288

> <PUBCHEM_MONOISOTOPIC_WEIGHT>
456.02616772

> <PUBCHEM_TOTAL_CHARGE>
0

> <PUBCHEM_HEAVY_ATOM_COUNT>
32

> <PUBCHEM_ATOM_DEF_STEREO_COUNT>
0

> <PUBCHEM_ATOM_UDEF_STEREO_COUNT>
0

> <PUBCHEM_BOND_DEF_STEREO_COUNT>
0

> <PUBCHEM_BOND_UDEF_STEREO_COUNT>
0

> <PUBCHEM_ISOTOPIC_ATOM_COUNT>
0

> <PUBCHEM_COMPONENT_COUNT>
2

> <PUBCHEM_CACTVS_TAUTO_COUNT>
-1

> <PUBCHEM_COORDINATE_TYPE>
1
5
255

> <PUBCHEM_BONDANNOTATIONS>
21  23  8
21  25  8
22  24  8
22  26  8
23  27  8
24  28  8
25  29  8
26  30  8
27  31  8
28  32  8
29  31  8
30  32  8

$$$$
