15899
  -OEChem-11012400393D

 29 28  0     0  0  0  0  0  0999 V2000
    0.0104    0.8506   -0.0001 S   0  0  0  0  0  0  0  0  0  0  0  0
    0.0000    1.5558    1.2620 O   0  0  0  0  0  0  0  0  0  0  0  0
    0.0000    1.5555   -1.2622 O   0  0  0  0  0  0  0  0  0  0  0  0
   -1.3904   -0.2627    0.0000 C   0  0  0  0  0  0  0  0  0  0  0  0
    1.3896   -0.2634    0.0000 C   0  0  0  0  0  0  0  0  0  0  0  0
   -1.3272   -1.1380    1.2549 C   0  0  0  0  0  0  0  0  0  0  0  0
   -2.6796    0.5635    0.0000 C   0  0  0  0  0  0  0  0  0  0  0  0
   -1.3273   -1.1380   -1.2548 C   0  0  0  0  0  0  0  0  0  0  0  0
    0.9863   -1.5508   -0.7244 C   0  0  0  0  0  0  0  0  0  0  0  0
    2.5633    0.4017   -0.7246 C   0  0  0  0  0  0  0  0  0  0  0  0
    1.7749   -0.5743    1.4490 C   0  0  0  0  0  0  0  0  0  0  0  0
   -1.2513   -0.5298    2.1639 H   0  0  0  0  0  0  0  0  0  0  0  0
   -2.2777   -1.6820    1.3489 H   0  0  0  0  0  0  0  0  0  0  0  0
   -0.5782   -1.9194    1.3121 H   0  0  0  0  0  0  0  0  0  0  0  0
   -2.7470    1.2003   -0.8894 H   0  0  0  0  0  0  0  0  0  0  0  0
   -2.7311    1.2217    0.8748 H   0  0  0  0  0  0  0  0  0  0  0  0
   -3.5681   -0.0777    0.0200 H   0  0  0  0  0  0  0  0  0  0  0  0
   -1.1717   -2.2129   -1.1299 H   0  0  0  0  0  0  0  0  0  0  0  0
   -2.3649   -1.1957   -1.6302 H   0  0  0  0  0  0  0  0  0  0  0  0
   -0.8509   -0.6807   -2.1277 H   0  0  0  0  0  0  0  0  0  0  0  0
    0.8365   -1.4501   -1.8014 H   0  0  0  0  0  0  0  0  0  0  0  0
    1.9374   -2.1175   -0.7730 H   0  0  0  0  0  0  0  0  0  0  0  0
    0.4304   -2.3116   -0.1888 H   0  0  0  0  0  0  0  0  0  0  0  0
    2.8111    1.3711   -0.2768 H   0  0  0  0  0  0  0  0  0  0  0  0
    2.3438    0.5748   -1.7841 H   0  0  0  0  0  0  0  0  0  0  0  0
    3.4619   -0.2237   -0.6765 H   0  0  0  0  0  0  0  0  0  0  0  0
    0.9771   -0.9158    2.1026 H   0  0  0  0  0  0  0  0  0  0  0  0
    2.5577   -1.3423    1.4771 H   0  0  0  0  0  0  0  0  0  0  0  0
    2.2016    0.3138    1.9327 H   0  0  0  0  0  0  0  0  0  0  0  0
  1  2  2  0  0  0  0
  1  3  2  0  0  0  0
  1  4  1  0  0  0  0
  1  5  1  0  0  0  0
  4  6  1  0  0  0  0
  4  7  1  0  0  0  0
  4  8  1  0  0  0  0
  5  9  1  0  0  0  0
  5 10  1  0  0  0  0
  5 11  1  0  0  0  0
  6 12  1  0  0  0  0
  6 13  1  0  0  0  0
  6 14  1  0  0  0  0
  7 15  1  0  0  0  0
  7 16  1  0  0  0  0
  7 17  1  0  0  0  0
  8 18  1  0  0  0  0
  8 19  1  0  0  0  0
  8 20  1  0  0  0  0
  9 21  1  0  0  0  0
  9 22  1  0  0  0  0
  9 23  1  0  0  0  0
 10 24  1  0  0  0  0
 10 25  1  0  0  0  0
 10 26  1  0  0  0  0
 11 27  1  0  0  0  0
 11 28  1  0  0  0  0
 11 29  1  0  0  0  0
M  END
> <PUBCHEM_COMPOUND_CID>
15899

> <PUBCHEM_CONFORMER_RMSD>
0.4

> <PUBCHEM_CONFORMER_DIVERSEORDER>
1

> <PUBCHEM_MMFF94_PARTIAL_CHARGES>
5
1 1.09
2 -0.65
3 -0.65
4 0.11
5 0.11

> <PUBCHEM_EFFECTIVE_ROTOR_COUNT>
2

> <PUBCHEM_PHARMACOPHORE_FEATURES>
4
1 2 acceptor
1 3 acceptor
4 4 6 7 8 hydrophobe
4 5 9 10 11 hydrophobe

> <PUBCHEM_HEAVY_ATOM_COUNT>
11

> <PUBCHEM_ATOM_DEF_STEREO_COUNT>
0

> <PUBCHEM_ATOM_UDEF_STEREO_COUNT>
0

> <PUBCHEM_BOND_DEF_STEREO_COUNT>
0

> <PUBCHEM_BOND_UDEF_STEREO_COUNT>
0

> <PUBCHEM_ISOTOPIC_ATOM_COUNT>
0

> <PUBCHEM_COMPONENT_COUNT>
1

> <PUBCHEM_CACTVS_TAUTO_COUNT>
1

> <PUBCHEM_CONFORMER_ID>
00003E1B00000001

> <PUBCHEM_MMFF94_ENERGY>
68.0202

> <PUBCHEM_FEATURE_SELFOVERLAP>
20.314

> <PUBCHEM_SHAPE_FINGERPRINT>
12423570 1 17904795466804898686
13024252 1 13767934541370263270
16945 1 18272360950003378365
18185500 45 18059856202893511279
21040471 1 18059852827096578839
21922407 69 16985472938549834219
23235685 24 18411142419799240991
23552333 60 18187085005690954568
241688 4 17256813295553883098
29004967 10 17749398082499961872
369184 2 17313101942918390034
5084963 1 17905328424901335242
528886 8 17967816088858939508

> <PUBCHEM_SHAPE_MULTIPOLES>
218.49
2.99
1.57
1.42
0.05
0.09
-0.21
-0.01
0.08
0.09
0.13
-0.13
-0.14
-0.11

> <PUBCHEM_SHAPE_SELFOVERLAP>
410.639

> <PUBCHEM_SHAPE_VOLUME>
139

> <PUBCHEM_COORDINATE_TYPE>
2
5
10

$$$$
