143775
  -OEChem-11012401033D

 18 17  0     0  0  0  0  0  0999 V2000
    0.3534    2.5092    0.8272 Cl  0  0  0  0  0  0  0  0  0  0  0  0
    0.7815    1.4014   -1.8365 Cl  0  0  0  0  0  0  0  0  0  0  0  0
    1.2720   -2.3375    0.1743 Cl  0  0  0  0  0  0  0  0  0  0  0  0
   -2.4175   -2.1694   -0.6881 Cl  0  0  0  0  0  0  0  0  0  0  0  0
   -2.8206   -0.9056    1.9067 Cl  0  0  0  0  0  0  0  0  0  0  0  0
    2.9473    1.2303    0.2106 F   0  0  0  0  0  0  0  0  0  0  0  0
    1.8303    0.2006    1.7667 F   0  0  0  0  0  0  0  0  0  0  0  0
   -2.1542    1.6150    0.3567 F   0  0  0  0  0  0  0  0  0  0  0  0
   -1.8080    0.6377   -1.5649 F   0  0  0  0  0  0  0  0  0  0  0  0
    2.5679   -0.8949   -1.5029 F   0  0  0  0  0  0  0  0  0  0  0  0
    3.5878   -1.2945    0.3702 F   0  0  0  0  0  0  0  0  0  0  0  0
   -4.0203   -0.2249   -0.2495 F   0  0  0  0  0  0  0  0  0  0  0  0
   -0.4612    0.0851    0.1621 O   0  0  0  0  0  0  0  0  0  0  0  0
    1.9230    0.3471    0.4116 C   0  0  0  0  0  0  0  0  0  0  0  0
    0.6161    0.9878   -0.1042 C   0  0  0  0  0  0  0  0  0  0  0  0
   -1.7846    0.4455   -0.2208 C   0  0  0  0  0  0  0  0  0  0  0  0
    2.3720   -0.9928   -0.1651 C   0  0  0  0  0  0  0  0  0  0  0  0
   -2.7847   -0.6400    0.1460 C   0  0  0  0  0  0  0  0  0  0  0  0
  1 15  1  0  0  0  0
  2 15  1  0  0  0  0
  3 17  1  0  0  0  0
  4 18  1  0  0  0  0
  5 18  1  0  0  0  0
  6 14  1  0  0  0  0
  7 14  1  0  0  0  0
  8 16  1  0  0  0  0
  9 16  1  0  0  0  0
 10 17  1  0  0  0  0
 11 17  1  0  0  0  0
 12 18  1  0  0  0  0
 13 15  1  0  0  0  0
 13 16  1  0  0  0  0
 14 15  1  0  0  0  0
 14 17  1  0  0  0  0
 16 18  1  0  0  0  0
M  END
> <PUBCHEM_COMPOUND_CID>
143775

> <PUBCHEM_CONFORMER_RMSD>
0.6

> <PUBCHEM_CONFORMER_DIVERSEORDER>
1
53
30
35
43
9
48
37
20
57
40
4
55
33
3
38
28
14
34
58
17
31
29
21
41
5
36
8
32
7
39
42
16
27
6
51
11
54
2
44
22
15
45
18
13
46
19
47
24
59
10
12
52
23
50
25
49
26
56

> <PUBCHEM_MMFF94_PARTIAL_CHARGES>
18
1 -0.29
10 -0.34
11 -0.34
12 -0.34
13 -0.56
14 0.68
15 0.86
16 0.96
17 0.97
18 0.92
2 -0.29
3 -0.29
4 -0.29
5 -0.29
6 -0.34
7 -0.34
8 -0.34
9 -0.34

> <PUBCHEM_EFFECTIVE_ROTOR_COUNT>
5

> <PUBCHEM_PHARMACOPHORE_FEATURES>
1
1 13 acceptor

> <PUBCHEM_HEAVY_ATOM_COUNT>
18

> <PUBCHEM_ATOM_DEF_STEREO_COUNT>
0

> <PUBCHEM_ATOM_UDEF_STEREO_COUNT>
0

> <PUBCHEM_BOND_DEF_STEREO_COUNT>
0

> <PUBCHEM_BOND_UDEF_STEREO_COUNT>
0

> <PUBCHEM_ISOTOPIC_ATOM_COUNT>
0

> <PUBCHEM_COMPONENT_COUNT>
1

> <PUBCHEM_CACTVS_TAUTO_COUNT>
1

> <PUBCHEM_CONFORMER_ID>
0002319F00000001

> <PUBCHEM_MMFF94_ENERGY>
19.2965

> <PUBCHEM_FEATURE_SELFOVERLAP>
5.074

> <PUBCHEM_SHAPE_FINGERPRINT>
10618630 7 18408887351800286535
12251169 10 15841545275669933468
12382932 28 18201437021073099891
12596599 1 17917445249377802887
13296908 3 18411697673160802793
14350558 41 18408606976198092733
14787075 74 16265148863637309387
14817 1 17555469331360618044
15375358 24 18261381287039028977
15775835 57 18200598115186499231
16945 1 18196937656415183080
18186145 218 11891335292488559456
19766037 51 18115046163432937091
19868273 293 16226875654401642973
20201158 50 18334011670668883491
20361792 2 17676201368603533021
20442098 301 18343299309855375775
20645477 70 18343297055081844279
20711985 344 17751349582421685004
21061003 4 18413392042101541113
21069387 34 17703774938917512613
21730867 7 18272651298266393602
21731516 1 18341346560050703187
22721475 48 18334019371597862627
23402539 116 17023466348695348438
23419403 2 13859298305625245201
23557571 272 17604136069674331820
2748010 2 18410848854674299356
568465 68 18408322215555615698
7364860 26 18198341947222476784
74978 22 18201444735176982033
81228 2 18121769535118795928

> <PUBCHEM_SHAPE_MULTIPOLES>
322.99
5.33
2.37
1.5
1.66
0.14
-0.02
1.93
0.44
-0.51
0.01
0.18
-0.2
0.08

> <PUBCHEM_SHAPE_SELFOVERLAP>
613.525

> <PUBCHEM_SHAPE_VOLUME>
201.8

> <PUBCHEM_COORDINATE_TYPE>
2
5
10

$$$$
