141336
  -OEChem-11012400293D

 27 26  0     0  0  0  0  0  0999 V2000
    1.9810    1.4858   -1.1908 F   0  0  0  0  0  0  0  0  0  0  0  0
    3.0036    1.8800    0.7886 F   0  0  0  0  0  0  0  0  0  0  0  0
    2.6388   -2.1755    0.5777 F   0  0  0  0  0  0  0  0  0  0  0  0
    2.9176   -0.8689   -1.2324 F   0  0  0  0  0  0  0  0  0  0  0  0
    1.8969    1.3479    0.1724 N   0  0  0  0  0  0  0  0  0  0  0  0
    2.7884   -0.8805    0.1369 N   0  0  0  0  0  0  0  0  0  0  0  0
   -0.9104    0.1436    0.4303 C   0  0  0  0  0  0  0  0  0  0  0  0
   -2.1681   -0.4599   -0.2017 C   0  0  0  0  0  0  0  0  0  0  0  0
    0.3482   -0.6156   -0.0084 C   0  0  0  0  0  0  0  0  0  0  0  0
   -3.4601    0.2455    0.2212 C   0  0  0  0  0  0  0  0  0  0  0  0
    1.6602   -0.0428    0.5690 C   0  0  0  0  0  0  0  0  0  0  0  0
   -4.7220   -0.4018   -0.3508 C   0  0  0  0  0  0  0  0  0  0  0  0
   -5.9741    0.3423    0.0880 C   0  0  0  0  0  0  0  0  0  0  0  0
   -0.8369    1.1979    0.1401 H   0  0  0  0  0  0  0  0  0  0  0  0
   -0.9939    0.1120    1.5231 H   0  0  0  0  0  0  0  0  0  0  0  0
   -2.0811   -0.4221   -1.2946 H   0  0  0  0  0  0  0  0  0  0  0  0
   -2.2347   -1.5198    0.0741 H   0  0  0  0  0  0  0  0  0  0  0  0
    0.2434   -1.6642    0.3003 H   0  0  0  0  0  0  0  0  0  0  0  0
    0.3948   -0.6185   -1.1059 H   0  0  0  0  0  0  0  0  0  0  0  0
   -3.5237    0.2484    1.3166 H   0  0  0  0  0  0  0  0  0  0  0  0
   -3.4133    1.2949   -0.0953 H   0  0  0  0  0  0  0  0  0  0  0  0
    1.6070   -0.0774    1.6628 H   0  0  0  0  0  0  0  0  0  0  0  0
   -4.7864   -1.4450   -0.0207 H   0  0  0  0  0  0  0  0  0  0  0  0
   -4.6709   -0.4095   -1.4456 H   0  0  0  0  0  0  0  0  0  0  0  0
   -6.0691    0.3415    1.1786 H   0  0  0  0  0  0  0  0  0  0  0  0
   -5.9533    1.3817   -0.2548 H   0  0  0  0  0  0  0  0  0  0  0  0
   -6.8650   -0.1358   -0.3309 H   0  0  0  0  0  0  0  0  0  0  0  0
  1  5  1  0  0  0  0
  2  5  1  0  0  0  0
  3  6  1  0  0  0  0
  4  6  1  0  0  0  0
  5 11  1  0  0  0  0
  6 11  1  0  0  0  0
  7  8  1  0  0  0  0
  7  9  1  0  0  0  0
  7 14  1  0  0  0  0
  7 15  1  0  0  0  0
  8 10  1  0  0  0  0
  8 16  1  0  0  0  0
  8 17  1  0  0  0  0
  9 11  1  0  0  0  0
  9 18  1  0  0  0  0
  9 19  1  0  0  0  0
 10 12  1  0  0  0  0
 10 20  1  0  0  0  0
 10 21  1  0  0  0  0
 11 22  1  0  0  0  0
 12 13  1  0  0  0  0
 12 23  1  0  0  0  0
 12 24  1  0  0  0  0
 13 25  1  0  0  0  0
 13 26  1  0  0  0  0
 13 27  1  0  0  0  0
M  END
> <PUBCHEM_COMPOUND_CID>
141336

> <PUBCHEM_CONFORMER_RMSD>
0.8

> <PUBCHEM_CONFORMER_DIVERSEORDER>
1
69
82
34
87
18
84
77
10
65
2
4
83
64
3
79
75
44
72
39
76
70
41
73
15
17
68
86
46
6
78
29
54
80
22
56
30
59
27
12
40
35
49
28
81
66
20
57
67
36
52
47
60
85
74
26
51
31
43
8
61
55
71
62
58
21
25
11
24
37
50
32
42
5
16
63
45
7
9
13
38
14
48
23
33
19
53

> <PUBCHEM_MMFF94_PARTIAL_CHARGES>
7
1 -0.06
11 0.54
2 -0.06
3 -0.06
4 -0.06
5 -0.14
6 -0.14

> <PUBCHEM_EFFECTIVE_ROTOR_COUNT>
7

> <PUBCHEM_PHARMACOPHORE_FEATURES>
2
1 13 hydrophobe
5 7 8 9 10 12 hydrophobe

> <PUBCHEM_HEAVY_ATOM_COUNT>
13

> <PUBCHEM_ATOM_DEF_STEREO_COUNT>
0

> <PUBCHEM_ATOM_UDEF_STEREO_COUNT>
0

> <PUBCHEM_BOND_DEF_STEREO_COUNT>
0

> <PUBCHEM_BOND_UDEF_STEREO_COUNT>
0

> <PUBCHEM_ISOTOPIC_ATOM_COUNT>
0

> <PUBCHEM_COMPONENT_COUNT>
1

> <PUBCHEM_CACTVS_TAUTO_COUNT>
1

> <PUBCHEM_CONFORMER_ID>
0002281800000001

> <PUBCHEM_MMFF94_ENERGY>
-4.0465

> <PUBCHEM_FEATURE_SELFOVERLAP>
10.149

> <PUBCHEM_SHAPE_FINGERPRINT>
12932764 1 17023172834598337379
14123238 8 11241976975810130203
15477762 27 18337954493659600802
17834072 33 18271802454674926143
18186145 218 18186234031268024859
20645477 70 18272652342160088351
22485316 2 18342734148542189219
23048698 100 18273497879607666627
23380061 81 18334579053223343241
23402655 69 18343301487656736045
23532345 1 18338234980778009465
23532345 12 17631741456456770985
23557571 272 15554171372063695683
449060 62 18336830882980779037
522135 26 18335139778389116275

> <PUBCHEM_SHAPE_MULTIPOLES>
228.48
9.87
1.48
0.86
14.66
0.09
0.16
0.35
0.31
-2.18
-0.11
-0.53
0.06
-0.1

> <PUBCHEM_SHAPE_SELFOVERLAP>
415.29

> <PUBCHEM_SHAPE_VOLUME>
146.9

> <PUBCHEM_COORDINATE_TYPE>
2
5
10

$$$$
