86494
  -OEChem-11012400503D

 32 32  0     1  0  0  0  0  0999 V2000
    2.6936   -1.6898   -1.0012 O   0  0  0  0  0  0  0  0  0  0  0  0
   -3.7085    0.0343   -0.7177 O   0  0  0  0  0  0  0  0  0  0  0  0
   -2.6936   -0.7373    1.2053 O   0  0  0  0  0  0  0  0  0  0  0  0
    1.0813    1.0291   -0.0129 C   0  0  0  0  0  0  0  0  0  0  0  0
   -0.2678    0.5393    0.5530 C   0  0  2  0  0  0  0  0  0  0  0  0
    1.7253   -0.1951    0.6708 C   0  0  1  0  0  0  0  0  0  0  0  0
    0.3441   -0.8768    0.5782 C   0  0  0  0  0  0  0  0  0  0  0  0
    1.2061    1.0232   -1.5199 C   0  0  0  0  0  0  0  0  0  0  0  0
    1.5015    2.3793    0.5371 C   0  0  0  0  0  0  0  0  0  0  0  0
   -1.4793    0.6616   -0.3691 C   0  0  0  0  0  0  0  0  0  0  0  0
    2.8961   -0.8937   -0.0857 C   0  0  0  0  0  0  0  0  0  0  0  0
   -2.6705   -0.1025    0.1599 C   0  0  0  0  0  0  0  0  0  0  0  0
    4.2896   -0.5335    0.3534 C   0  0  0  0  0  0  0  0  0  0  0  0
   -4.9177   -0.6381   -0.3514 C   0  0  0  0  0  0  0  0  0  0  0  0
   -0.4819    0.9219    1.5617 H   0  0  0  0  0  0  0  0  0  0  0  0
    1.9976   -0.0004    1.7194 H   0  0  0  0  0  0  0  0  0  0  0  0
    0.1752   -1.4757   -0.3242 H   0  0  0  0  0  0  0  0  0  0  0  0
    0.0727   -1.4855    1.4463 H   0  0  0  0  0  0  0  0  0  0  0  0
    0.9149    0.0726   -1.9788 H   0  0  0  0  0  0  0  0  0  0  0  0
    0.5835    1.8043   -1.9720 H   0  0  0  0  0  0  0  0  0  0  0  0
    2.2376    1.2262   -1.8318 H   0  0  0  0  0  0  0  0  0  0  0  0
    1.4377    2.4101    1.6305 H   0  0  0  0  0  0  0  0  0  0  0  0
    2.5372    2.6112    0.2656 H   0  0  0  0  0  0  0  0  0  0  0  0
    0.8635    3.1808    0.1485 H   0  0  0  0  0  0  0  0  0  0  0  0
   -1.7632    1.7161   -0.4570 H   0  0  0  0  0  0  0  0  0  0  0  0
   -1.2724    0.2658   -1.3686 H   0  0  0  0  0  0  0  0  0  0  0  0
    4.4451    0.5406    0.2275 H   0  0  0  0  0  0  0  0  0  0  0  0
    4.4275   -0.8164    1.3996 H   0  0  0  0  0  0  0  0  0  0  0  0
    5.0194   -1.0708   -0.2582 H   0  0  0  0  0  0  0  0  0  0  0  0
   -5.6609   -0.4500   -1.1308 H   0  0  0  0  0  0  0  0  0  0  0  0
   -4.7456   -1.7165   -0.2831 H   0  0  0  0  0  0  0  0  0  0  0  0
   -5.2966   -0.2458    0.5972 H   0  0  0  0  0  0  0  0  0  0  0  0
  1 11  2  0  0  0  0
  2 12  1  0  0  0  0
  2 14  1  0  0  0  0
  3 12  2  0  0  0  0
  4  5  1  0  0  0  0
  4  6  1  0  0  0  0
  4  8  1  0  0  0  0
  4  9  1  0  0  0  0
  5  7  1  0  0  0  0
  5 10  1  0  0  0  0
  5 15  1  0  0  0  0
  6  7  1  0  0  0  0
  6 11  1  0  0  0  0
  6 16  1  0  0  0  0
  7 17  1  0  0  0  0
  7 18  1  0  0  0  0
  8 19  1  0  0  0  0
  8 20  1  0  0  0  0
  8 21  1  0  0  0  0
  9 22  1  0  0  0  0
  9 23  1  0  0  0  0
  9 24  1  0  0  0  0
 10 12  1  0  0  0  0
 10 25  1  0  0  0  0
 10 26  1  0  0  0  0
 11 13  1  0  0  0  0
 13 27  1  0  0  0  0
 13 28  1  0  0  0  0
 13 29  1  0  0  0  0
 14 30  1  0  0  0  0
 14 31  1  0  0  0  0
 14 32  1  0  0  0  0
M  END
> <PUBCHEM_COMPOUND_CID>
86494

> <PUBCHEM_CONFORMER_RMSD>
0.6

> <PUBCHEM_CONFORMER_DIVERSEORDER>
1
59
61
7
63
42
68
37
67
23
69
16
24
54
51
43
57
40
19
65
39
66
47
62
9
32
52
56
53
2
29
60
58
38
12
36
15
22
49
5
48
21
41
34
8
11
4
27
35
44
45
3
20
64
50
18
25
17
26
30
55
10
13
31
46
33
6
14
28

> <PUBCHEM_MMFF94_PARTIAL_CHARGES>
9
1 -0.57
10 0.06
11 0.46
12 0.66
13 0.06
14 0.28
2 -0.43
3 -0.57
6 0.05

> <PUBCHEM_EFFECTIVE_ROTOR_COUNT>
4.8

> <PUBCHEM_PHARMACOPHORE_FEATURES>
4
1 1 acceptor
1 3 acceptor
3 4 8 9 hydrophobe
4 4 5 6 7 rings

> <PUBCHEM_HEAVY_ATOM_COUNT>
14

> <PUBCHEM_ATOM_DEF_STEREO_COUNT>
0

> <PUBCHEM_ATOM_UDEF_STEREO_COUNT>
2

> <PUBCHEM_BOND_DEF_STEREO_COUNT>
0

> <PUBCHEM_BOND_UDEF_STEREO_COUNT>
0

> <PUBCHEM_ISOTOPIC_ATOM_COUNT>
0

> <PUBCHEM_COMPONENT_COUNT>
1

> <PUBCHEM_CACTVS_TAUTO_COUNT>
3

> <PUBCHEM_CONFORMER_ID>
000151DE00000001

> <PUBCHEM_MMFF94_ENERGY>
26.4898

> <PUBCHEM_FEATURE_SELFOVERLAP>
20.297

> <PUBCHEM_SHAPE_FINGERPRINT>
10219947 1 18202563964873065330
10465860 71 17968674717420025470
11769659 78 18058449811657734310
11806522 49 18411415115978869162
12032990 46 18340488863861634650
12251169 10 14979947077718751386
13581323 91 16272205284403740711
14251717 144 18341893000118346166
14252887 29 18131354077110052346
14350558 41 18202567271681547743
14911166 2 17821727226061522259
14993402 34 18410859854280814206
15477762 27 18343300366369662870
16945 1 18271811237286862928
18186145 218 17894620462364670381
200 152 18201714059759803595
20201158 50 18334014969172098843
20233049 118 15647044958687649580
20279233 1 18259705596737221995
20645477 70 18412259575669835175
20671657 53 18408602526548806881
20711985 327 17917998260813421728
20820808 20 12107795103077185076
20871998 22 18201159836958375230
21119208 17 15430037630058282906
21256008 61 18412823586131797978
21296965 67 18341610365669212200
21501925 9 18202280303409893504
231179 274 10881396534604615343
23402539 116 17968087569826463190
23402655 69 17895744120198286549
23557571 272 17968653805572362500
2748010 2 17897174726069521843
3060560 45 18040707069882705787
7364860 26 18270397320994414904
81228 2 18049452439610167160

> <PUBCHEM_SHAPE_MULTIPOLES>
270.51
7.33
1.6
1.07
6.44
0.66
0.19
-3.04
0.66
-1.24
-0.01
-0.13
0.05
0.33

> <PUBCHEM_SHAPE_SELFOVERLAP>
538.521

> <PUBCHEM_SHAPE_VOLUME>
162.7

> <PUBCHEM_COORDINATE_TYPE>
2
5
10

$$$$
