76972
  -OEChem-11012401133D

 33 34  0     0  0  0  0  0  0999 V2000
   -0.0006   -2.0101   -0.0111 Si  0  0  0  0  0  0  0  0  0  0  0  0
    1.1003   -1.0366   -0.8048 O   0  0  0  0  0  0  0  0  0  0  0  0
   -1.1208   -1.0651    0.7899 O   0  0  0  0  0  0  0  0  0  0  0  0
    0.8868   -3.1267    1.2184 C   0  0  0  0  0  0  0  0  0  0  0  0
   -0.8656   -3.1343   -1.2499 C   0  0  0  0  0  0  0  0  0  0  0  0
    2.0043   -0.0927   -0.3943 C   0  0  0  0  0  0  0  0  0  0  0  0
   -2.0146   -0.1063    0.3915 C   0  0  0  0  0  0  0  0  0  0  0  0
    2.1213    0.2064    0.9585 C   0  0  0  0  0  0  0  0  0  0  0  0
   -2.0984    0.2413   -0.9521 C   0  0  0  0  0  0  0  0  0  0  0  0
    2.7956    0.5574   -1.3348 C   0  0  0  0  0  0  0  0  0  0  0  0
   -2.8288    0.5101    1.3352 C   0  0  0  0  0  0  0  0  0  0  0  0
    3.0412    1.1680    1.3763 C   0  0  0  0  0  0  0  0  0  0  0  0
   -3.0080    1.2180   -1.3574 C   0  0  0  0  0  0  0  0  0  0  0  0
    3.7156    1.5190   -0.9169 C   0  0  0  0  0  0  0  0  0  0  0  0
   -3.7386    1.4868    0.9297 C   0  0  0  0  0  0  0  0  0  0  0  0
    3.8383    1.8242    0.4386 C   0  0  0  0  0  0  0  0  0  0  0  0
   -3.8280    1.8407   -0.4167 C   0  0  0  0  0  0  0  0  0  0  0  0
    0.1814   -3.8370    1.6602 H   0  0  0  0  0  0  0  0  0  0  0  0
    1.6752   -3.6953    0.7164 H   0  0  0  0  0  0  0  0  0  0  0  0
    1.3402   -2.5538    2.0309 H   0  0  0  0  0  0  0  0  0  0  0  0
   -1.3532   -2.5582   -2.0404 H   0  0  0  0  0  0  0  0  0  0  0  0
   -0.1425   -3.8085   -1.7188 H   0  0  0  0  0  0  0  0  0  0  0  0
   -1.6251   -3.7413   -0.7483 H   0  0  0  0  0  0  0  0  0  0  0  0
    1.5144   -0.2630    1.7240 H   0  0  0  0  0  0  0  0  0  0  0  0
   -1.4762   -0.2052   -1.7194 H   0  0  0  0  0  0  0  0  0  0  0  0
    2.7029    0.3230   -2.3915 H   0  0  0  0  0  0  0  0  0  0  0  0
   -2.7621    0.2377    2.3846 H   0  0  0  0  0  0  0  0  0  0  0  0
    3.1345    1.4089    2.4313 H   0  0  0  0  0  0  0  0  0  0  0  0
   -3.0763    1.4960   -2.4052 H   0  0  0  0  0  0  0  0  0  0  0  0
    4.3362    2.0303   -1.6469 H   0  0  0  0  0  0  0  0  0  0  0  0
   -4.3769    1.9719    1.6622 H   0  0  0  0  0  0  0  0  0  0  0  0
    4.5539    2.5738    0.7638 H   0  0  0  0  0  0  0  0  0  0  0  0
   -4.5357    2.6018   -0.7322 H   0  0  0  0  0  0  0  0  0  0  0  0
  1  2  1  0  0  0  0
  1  3  1  0  0  0  0
  1  4  1  0  0  0  0
  1  5  1  0  0  0  0
  2  6  1  0  0  0  0
  3  7  1  0  0  0  0
  4 18  1  0  0  0  0
  4 19  1  0  0  0  0
  4 20  1  0  0  0  0
  5 21  1  0  0  0  0
  5 22  1  0  0  0  0
  5 23  1  0  0  0  0
  6  8  2  0  0  0  0
  6 10  1  0  0  0  0
  7  9  2  0  0  0  0
  7 11  1  0  0  0  0
  8 12  1  0  0  0  0
  8 24  1  0  0  0  0
  9 13  1  0  0  0  0
  9 25  1  0  0  0  0
 10 14  2  0  0  0  0
 10 26  1  0  0  0  0
 11 15  2  0  0  0  0
 11 27  1  0  0  0  0
 12 16  2  0  0  0  0
 12 28  1  0  0  0  0
 13 17  2  0  0  0  0
 13 29  1  0  0  0  0
 14 16  1  0  0  0  0
 14 30  1  0  0  0  0
 15 17  1  0  0  0  0
 15 31  1  0  0  0  0
 16 32  1  0  0  0  0
 17 33  1  0  0  0  0
M  END
> <PUBCHEM_COMPOUND_CID>
76972

> <PUBCHEM_CONFORMER_RMSD>
0.6

> <PUBCHEM_CONFORMER_DIVERSEORDER>
2
17
9
4
6
19
3
18
16
13
21
15
1
14
20
7
11
5
12
8
10

> <PUBCHEM_MMFF94_PARTIAL_CHARGES>
27
1 0.76
10 -0.15
11 -0.15
12 -0.15
13 -0.15
14 -0.15
15 -0.15
16 -0.15
17 -0.15
2 -0.38
24 0.15
25 0.15
26 0.15
27 0.15
28 0.15
29 0.15
3 -0.38
30 0.15
31 0.15
32 0.15
33 0.15
4 -0.08
5 -0.08
6 0.08
7 0.08
8 -0.15
9 -0.15

> <PUBCHEM_EFFECTIVE_ROTOR_COUNT>
4

> <PUBCHEM_PHARMACOPHORE_FEATURES>
2
6 6 8 10 12 14 16 rings
6 7 9 11 13 15 17 rings

> <PUBCHEM_HEAVY_ATOM_COUNT>
17

> <PUBCHEM_ATOM_DEF_STEREO_COUNT>
0

> <PUBCHEM_ATOM_UDEF_STEREO_COUNT>
0

> <PUBCHEM_BOND_DEF_STEREO_COUNT>
0

> <PUBCHEM_BOND_UDEF_STEREO_COUNT>
0

> <PUBCHEM_ISOTOPIC_ATOM_COUNT>
0

> <PUBCHEM_COMPONENT_COUNT>
1

> <PUBCHEM_CACTVS_TAUTO_COUNT>
1

> <PUBCHEM_CONFORMER_ID>
00012CAC00000002

> <PUBCHEM_MMFF94_ENERGY>
42.1775

> <PUBCHEM_FEATURE_SELFOVERLAP>
10.149

> <PUBCHEM_SHAPE_FINGERPRINT>
10165383 225 18050888551639356031
10498660 4 18413670214428255633
11640471 11 18198884985844378223
12173636 292 18202571678734601261
12363563 72 9511462203799460424
12633257 1 15791725282802974169
12788726 201 17976811313755908978
12892183 10 15719393944755894020
13134695 92 17612860509477766799
13294875 104 18271235041870825754
13681431 1 17691692181774756591
14957384 54 18114731733351830492
15342168 16 18410300185846236197
1741750 31 18342175600344703394
1798214 55 18410578374624358617
1813 80 17266382375242115662
18186145 218 18202009810727933580
19765921 60 18272362058152452835
20291156 8 9295289464635083240
20361792 2 9295288343685477419
20671657 1 18338796684985205707
21524375 3 18410856563940499331
21731228 192 18113900485196278786
21731516 1 9223231879187141870
23419403 2 17186227049969706446
23557571 272 17768804617528541502
23559900 14 16734972020991392995
25 1 18130238081228644984
474 4 18339358565813374385
49207404 50 17895208666330114713
495365 180 18119800318936602629
633830 44 17917160402935894417
6442390 28 18267324147530096555
7808743 9 18191316081312545772
81228 2 17906174301562542578
84936 182 18128816348132505265

> <PUBCHEM_SHAPE_MULTIPOLES>
356.33
7.08
3.15
1.53
0.02
2.87
0
-7.33
0.09
0
-0.04
-0.01
0.03
-0.2

> <PUBCHEM_SHAPE_SELFOVERLAP>
731.914

> <PUBCHEM_SHAPE_VOLUME>
205.4

> <PUBCHEM_COORDINATE_TYPE>
2
5
10

$$$$
