6432255
  -OEChem-11012401113D

 24 24  0     1  0  0  0  0  0999 V2000
    3.5125    0.4801   -0.7164 O   0  0  0  0  0  0  0  0  0  0  0  0
   -2.9191    1.4060   -0.9747 O   0  0  0  0  0  0  0  0  0  0  0  0
    2.4508    1.4177    1.0695 O   0  0  0  0  0  0  0  0  0  0  0  0
   -3.0571    0.4220    1.0768 O   0  0  0  0  0  0  0  0  0  0  0  0
    1.2605   -0.0987   -0.3878 C   0  0  2  0  0  0  0  0  0  0  0  0
   -1.2658   -0.1713   -0.4327 C   0  0  1  0  0  0  0  0  0  0  0  0
   -0.0315    0.6478   -0.0509 C   0  0  0  0  0  0  0  0  0  0  0  0
    1.2879   -1.4888    0.2494 C   0  0  0  0  0  0  0  0  0  0  0  0
   -1.2361   -1.5598    0.2070 C   0  0  0  0  0  0  0  0  0  0  0  0
    0.0538   -2.3035   -0.1291 C   0  0  0  0  0  0  0  0  0  0  0  0
    2.4429    0.6869    0.0901 C   0  0  0  0  0  0  0  0  0  0  0  0
   -2.4988    0.5615   -0.0012 C   0  0  0  0  0  0  0  0  0  0  0  0
    1.3215   -0.1899   -1.4805 H   0  0  0  0  0  0  0  0  0  0  0  0
   -1.3020   -0.3023   -1.5225 H   0  0  0  0  0  0  0  0  0  0  0  0
   -0.0682    0.8848    1.0217 H   0  0  0  0  0  0  0  0  0  0  0  0
   -0.0477    1.6159   -0.5690 H   0  0  0  0  0  0  0  0  0  0  0  0
    1.3438   -1.4009    1.3425 H   0  0  0  0  0  0  0  0  0  0  0  0
    2.1904   -2.0288   -0.0621 H   0  0  0  0  0  0  0  0  0  0  0  0
   -2.0979   -2.1485   -0.1309 H   0  0  0  0  0  0  0  0  0  0  0  0
   -1.3238   -1.4817    1.2988 H   0  0  0  0  0  0  0  0  0  0  0  0
    0.0782   -2.5252   -1.2031 H   0  0  0  0  0  0  0  0  0  0  0  0
    0.0722   -3.2654    0.3955 H   0  0  0  0  0  0  0  0  0  0  0  0
    4.2983    0.9872   -0.4202 H   0  0  0  0  0  0  0  0  0  0  0  0
   -3.7273    1.8955   -0.7112 H   0  0  0  0  0  0  0  0  0  0  0  0
  1 11  1  0  0  0  0
  1 23  1  0  0  0  0
  2 12  1  0  0  0  0
  2 24  1  0  0  0  0
  3 11  2  0  0  0  0
  4 12  2  0  0  0  0
  5  7  1  0  0  0  0
  5  8  1  0  0  0  0
  5 11  1  0  0  0  0
  5 13  1  0  0  0  0
  6  7  1  0  0  0  0
  6  9  1  0  0  0  0
  6 12  1  0  0  0  0
  6 14  1  0  0  0  0
  7 15  1  0  0  0  0
  7 16  1  0  0  0  0
  8 10  1  0  0  0  0
  8 17  1  0  0  0  0
  8 18  1  0  0  0  0
  9 10  1  0  0  0  0
  9 19  1  0  0  0  0
  9 20  1  0  0  0  0
 10 21  1  0  0  0  0
 10 22  1  0  0  0  0
M  END
> <PUBCHEM_COMPOUND_CID>
6432255

> <PUBCHEM_CONFORMER_RMSD>
0.6

> <PUBCHEM_CONFORMER_DIVERSEORDER>
1
3
10
13
2
6
5
4
14
11
12
7
8
9

> <PUBCHEM_MMFF94_PARTIAL_CHARGES>
10
1 -0.65
11 0.66
12 0.66
2 -0.65
23 0.5
24 0.5
3 -0.57
4 -0.57
5 0.06
6 0.06

> <PUBCHEM_EFFECTIVE_ROTOR_COUNT>
3.2

> <PUBCHEM_PHARMACOPHORE_FEATURES>
7
1 1 acceptor
1 2 acceptor
1 3 acceptor
1 4 acceptor
3 1 3 11 anion
3 2 4 12 anion
6 5 6 7 8 9 10 rings

> <PUBCHEM_HEAVY_ATOM_COUNT>
12

> <PUBCHEM_ATOM_DEF_STEREO_COUNT>
2

> <PUBCHEM_ATOM_UDEF_STEREO_COUNT>
0

> <PUBCHEM_BOND_DEF_STEREO_COUNT>
0

> <PUBCHEM_BOND_UDEF_STEREO_COUNT>
0

> <PUBCHEM_ISOTOPIC_ATOM_COUNT>
0

> <PUBCHEM_COMPONENT_COUNT>
1

> <PUBCHEM_CACTVS_TAUTO_COUNT>
1

> <PUBCHEM_CONFORMER_ID>
006225FF00000001

> <PUBCHEM_MMFF94_ENERGY>
14.3219

> <PUBCHEM_FEATURE_SELFOVERLAP>
35.634

> <PUBCHEM_SHAPE_FINGERPRINT>
10857977 72 17386301921422337915
12716758 59 18270119148942240442
12932764 1 18411698789846947061
13380535 21 18337685164771340374
13380535 76 18409725157896152295
14325111 11 18409166610278447478
15775835 57 18410578383203243491
16945 1 18125721188640888391
18186145 218 18202566180870650184
20645464 45 18200877378307553098
20653085 51 17275112759600930769
20715346 28 18041004977625330335
20871998 184 18196100068967933231
21028194 46 18409731767866222795
21040471 1 18409165545332500742
21524375 3 18411416215390679399
23235685 24 18408323293550215092
23559900 14 18272942648528381148
241688 4 16826713986279530819
25 1 18271534108611243054
2748010 2 18410017636610723959
305870 269 18261384516680576706
528862 383 18189330186712357154
53812653 166 18413112770675064258
63268167 104 18270119002665257267
6333449 129 18341612684603346886
7364860 26 18198060270472032582
81228 2 17906449188017184250

> <PUBCHEM_SHAPE_MULTIPOLES>
223.48
4.68
1.9
0.87
0.24
1.04
-0.07
-2.58
-0.02
-0.01
-0.05
-0.11
-0.21
0.34

> <PUBCHEM_SHAPE_SELFOVERLAP>
450.989

> <PUBCHEM_SHAPE_VOLUME>
128.7

> <PUBCHEM_COORDINATE_TYPE>
2
5
10

$$$$
