69104
  -OEChem-11012401093D

 20 19  0     0  0  0  0  0  0999 V2000
    2.3547   -0.5595    0.3073 O   0  0  0  0  0  0  0  0  0  0  0  0
   -2.3581   -0.5657    0.3011 O   0  0  0  0  0  0  0  0  0  0  0  0
    1.3305    1.4204   -0.2758 O   0  0  0  0  0  0  0  0  0  0  0  0
   -1.3389    1.4138   -0.2879 O   0  0  0  0  0  0  0  0  0  0  0  0
   -0.0008   -0.5567    0.2458 C   0  0  0  0  0  0  0  0  0  0  0  0
    0.0220   -1.7490   -0.7062 C   0  0  0  0  0  0  0  0  0  0  0  0
    1.2769    0.2448    0.0594 C   0  0  0  0  0  0  0  0  0  0  0  0
   -1.2815    0.2375    0.0436 C   0  0  0  0  0  0  0  0  0  0  0  0
    3.6357    0.0594    0.1515 C   0  0  0  0  0  0  0  0  0  0  0  0
   -3.6403    0.0549    0.1612 C   0  0  0  0  0  0  0  0  0  0  0  0
   -0.0066   -0.8948    1.2901 H   0  0  0  0  0  0  0  0  0  0  0  0
    0.8937   -2.3900   -0.5375 H   0  0  0  0  0  0  0  0  0  0  0  0
    0.0533   -1.4154   -1.7501 H   0  0  0  0  0  0  0  0  0  0  0  0
   -0.8659   -2.3793   -0.5889 H   0  0  0  0  0  0  0  0  0  0  0  0
    3.7404    0.8945    0.8506 H   0  0  0  0  0  0  0  0  0  0  0  0
    3.7690    0.3989   -0.8801 H   0  0  0  0  0  0  0  0  0  0  0  0
    4.4029   -0.6858    0.3775 H   0  0  0  0  0  0  0  0  0  0  0  0
   -3.7363    0.8882    0.8637 H   0  0  0  0  0  0  0  0  0  0  0  0
   -4.4058   -0.6902    0.3939 H   0  0  0  0  0  0  0  0  0  0  0  0
   -3.7848    0.3972   -0.8679 H   0  0  0  0  0  0  0  0  0  0  0  0
  1  7  1  0  0  0  0
  1  9  1  0  0  0  0
  2  8  1  0  0  0  0
  2 10  1  0  0  0  0
  3  7  2  0  0  0  0
  4  8  2  0  0  0  0
  5  6  1  0  0  0  0
  5  7  1  0  0  0  0
  5  8  1  0  0  0  0
  5 11  1  0  0  0  0
  6 12  1  0  0  0  0
  6 13  1  0  0  0  0
  6 14  1  0  0  0  0
  9 15  1  0  0  0  0
  9 16  1  0  0  0  0
  9 17  1  0  0  0  0
 10 18  1  0  0  0  0
 10 19  1  0  0  0  0
 10 20  1  0  0  0  0
M  END
> <PUBCHEM_COMPOUND_CID>
69104

> <PUBCHEM_CONFORMER_RMSD>
0.6

> <PUBCHEM_CONFORMER_DIVERSEORDER>
1
9
2
6
3
7
5
8
4

> <PUBCHEM_MMFF94_PARTIAL_CHARGES>
9
1 -0.43
10 0.28
2 -0.43
3 -0.57
4 -0.57
5 0.12
7 0.66
8 0.66
9 0.28

> <PUBCHEM_EFFECTIVE_ROTOR_COUNT>
4

> <PUBCHEM_PHARMACOPHORE_FEATURES>
4
1 3 acceptor
1 4 acceptor
1 5 anion
1 6 hydrophobe

> <PUBCHEM_HEAVY_ATOM_COUNT>
10

> <PUBCHEM_ATOM_DEF_STEREO_COUNT>
0

> <PUBCHEM_ATOM_UDEF_STEREO_COUNT>
0

> <PUBCHEM_BOND_DEF_STEREO_COUNT>
0

> <PUBCHEM_BOND_UDEF_STEREO_COUNT>
0

> <PUBCHEM_ISOTOPIC_ATOM_COUNT>
0

> <PUBCHEM_COMPONENT_COUNT>
1

> <PUBCHEM_CACTVS_TAUTO_COUNT>
1

> <PUBCHEM_CONFORMER_ID>
00010DF000000001

> <PUBCHEM_MMFF94_ENERGY>
14.9024

> <PUBCHEM_FEATURE_SELFOVERLAP>
20.305

> <PUBCHEM_SHAPE_FINGERPRINT>
10219947 1 18412547591385761346
11062470 55 13190339067270901243
12932764 1 17131255892607360386
14325111 11 18412825776412125128
14993402 34 18411703196842076094
21040471 1 18270963577840129646
23235685 24 18272929414467947938
23402655 69 18197200466181970365
23552423 10 18045216304585848214
2748010 2 18123470471011061046
5084963 1 18410573989446483640

> <PUBCHEM_SHAPE_MULTIPOLES>
182.32
5.12
1.34
0.67
0.04
0.17
-0.02
-0.43
0.66
-0.01
-0.31
0
0.07
0.01

> <PUBCHEM_SHAPE_SELFOVERLAP>
346.378

> <PUBCHEM_SHAPE_VOLUME>
113.1

> <PUBCHEM_COORDINATE_TYPE>
2
5
10

$$$$
