8679
  -OEChem-11012401243D

 30 32  0     0  0  0  0  0  0999 V2000
    1.3979    1.2939   -0.2454 N   0  0  0  0  0  0  0  0  0  0  0  0
   -1.8936   -0.4386   -0.2234 C   0  0  0  0  0  0  0  0  0  0  0  0
   -2.7465    0.6205    0.1690 C   0  0  0  0  0  0  0  0  0  0  0  0
    0.0122    1.0690   -0.1076 C   0  0  0  0  0  0  0  0  0  0  0  0
   -0.5165   -0.1977   -0.3572 C   0  0  0  0  0  0  0  0  0  0  0  0
   -2.1971    1.8891    0.4160 C   0  0  0  0  0  0  0  0  0  0  0  0
   -0.8265    2.1104    0.2783 C   0  0  0  0  0  0  0  0  0  0  0  0
   -2.4430   -1.7072   -0.4703 C   0  0  0  0  0  0  0  0  0  0  0  0
   -4.1236    0.3797    0.3031 C   0  0  0  0  0  0  0  0  0  0  0  0
    2.5205    0.4601   -0.0789 C   0  0  0  0  0  0  0  0  0  0  0  0
   -3.8135   -1.9287   -0.3321 C   0  0  0  0  0  0  0  0  0  0  0  0
   -4.6522   -0.8873    0.0538 C   0  0  0  0  0  0  0  0  0  0  0  0
    3.6752    0.6826   -0.8313 C   0  0  0  0  0  0  0  0  0  0  0  0
    2.4812   -0.5911    0.8388 C   0  0  0  0  0  0  0  0  0  0  0  0
    4.7869   -0.1437   -0.6667 C   0  0  0  0  0  0  0  0  0  0  0  0
    3.5929   -1.4174    1.0033 C   0  0  0  0  0  0  0  0  0  0  0  0
    4.7457   -1.1936    0.2505 C   0  0  0  0  0  0  0  0  0  0  0  0
    0.1306   -1.0104   -0.6817 H   0  0  0  0  0  0  0  0  0  0  0  0
   -2.8339    2.7178    0.7190 H   0  0  0  0  0  0  0  0  0  0  0  0
   -0.4258    3.1013    0.4766 H   0  0  0  0  0  0  0  0  0  0  0  0
    1.6314    2.2441   -0.5201 H   0  0  0  0  0  0  0  0  0  0  0  0
   -1.8065   -2.5362   -0.7728 H   0  0  0  0  0  0  0  0  0  0  0  0
   -4.7980    1.1789    0.6036 H   0  0  0  0  0  0  0  0  0  0  0  0
   -4.2257   -2.9147   -0.5259 H   0  0  0  0  0  0  0  0  0  0  0  0
   -5.7190   -1.0604    0.1611 H   0  0  0  0  0  0  0  0  0  0  0  0
    3.7196    1.4969   -1.5501 H   0  0  0  0  0  0  0  0  0  0  0  0
    1.6052   -0.7756    1.4547 H   0  0  0  0  0  0  0  0  0  0  0  0
    5.6846    0.0304   -1.2527 H   0  0  0  0  0  0  0  0  0  0  0  0
    3.5629   -2.2319    1.7212 H   0  0  0  0  0  0  0  0  0  0  0  0
    5.6117   -1.8362    0.3797 H   0  0  0  0  0  0  0  0  0  0  0  0
  1  4  1  0  0  0  0
  1 10  1  0  0  0  0
  1 21  1  0  0  0  0
  2  3  1  0  0  0  0
  2  5  1  0  0  0  0
  2  8  2  0  0  0  0
  3  6  1  0  0  0  0
  3  9  2  0  0  0  0
  4  5  2  0  0  0  0
  4  7  1  0  0  0  0
  5 18  1  0  0  0  0
  6  7  2  0  0  0  0
  6 19  1  0  0  0  0
  7 20  1  0  0  0  0
  8 11  1  0  0  0  0
  8 22  1  0  0  0  0
  9 12  1  0  0  0  0
  9 23  1  0  0  0  0
 10 13  2  0  0  0  0
 10 14  1  0  0  0  0
 11 12  2  0  0  0  0
 11 24  1  0  0  0  0
 12 25  1  0  0  0  0
 13 15  1  0  0  0  0
 13 26  1  0  0  0  0
 14 16  2  0  0  0  0
 14 27  1  0  0  0  0
 15 17  2  0  0  0  0
 15 28  1  0  0  0  0
 16 17  1  0  0  0  0
 16 29  1  0  0  0  0
 17 30  1  0  0  0  0
M  END
> <PUBCHEM_COMPOUND_CID>
8679

> <PUBCHEM_CONFORMER_RMSD>
0.6

> <PUBCHEM_CONFORMER_DIVERSEORDER>
1
4
5
3
2
6

> <PUBCHEM_MMFF94_PARTIAL_CHARGES>
28
1 -0.6
10 0.1
11 -0.15
12 -0.15
13 -0.15
14 -0.15
15 -0.15
16 -0.15
17 -0.15
18 0.15
19 0.15
20 0.15
21 0.4
22 0.15
23 0.15
24 0.15
25 0.15
26 0.15
27 0.15
28 0.15
29 0.15
30 0.15
4 0.1
5 -0.15
6 -0.15
7 -0.15
8 -0.15
9 -0.15

> <PUBCHEM_EFFECTIVE_ROTOR_COUNT>
2

> <PUBCHEM_PHARMACOPHORE_FEATURES>
5
1 1 cation
1 1 donor
6 10 13 14 15 16 17 rings
6 2 3 4 5 6 7 rings
6 2 3 8 9 11 12 rings

> <PUBCHEM_HEAVY_ATOM_COUNT>
17

> <PUBCHEM_ATOM_DEF_STEREO_COUNT>
0

> <PUBCHEM_ATOM_UDEF_STEREO_COUNT>
0

> <PUBCHEM_BOND_DEF_STEREO_COUNT>
0

> <PUBCHEM_BOND_UDEF_STEREO_COUNT>
0

> <PUBCHEM_ISOTOPIC_ATOM_COUNT>
0

> <PUBCHEM_COMPONENT_COUNT>
1

> <PUBCHEM_CACTVS_TAUTO_COUNT>
1

> <PUBCHEM_CONFORMER_ID>
000021E700000001

> <PUBCHEM_MMFF94_ENERGY>
65.6094

> <PUBCHEM_FEATURE_SELFOVERLAP>
25.398

> <PUBCHEM_SHAPE_FINGERPRINT>
10062212 137 18412824711798546367
10616163 171 18411983542089998086
11045515 52 17749105599728326853
11046707 91 18412825789487008993
11578080 2 18116128087149349500
12107183 9 17688026418950471280
12236239 1 18259989258274064932
12553582 1 18411129260003797147
13103583 49 18050882024170580947
13167823 11 18335140886300716110
13288520 33 18341615910144794372
13862211 1 18271523187200817791
14576447 43 18260267447848791794
15196674 1 18410574002331320322
15242433 33 18334015003573820710
15375462 189 18334012800165790858
15536298 74 18270396212882173168
16752209 62 18338498760689562985
17804303 29 18201719569912888985
17834072 33 18334580157209409892
1798214 20 18260824921059566734
1813 80 17895205375947387751
18186145 218 14129061417299070596
18222031 100 17988354979303936831
18915474 69 18334577962343977966
19422 9 18335140869389820296
200 152 18113618984396971176
20261772 1 17917989511870263494
20281475 54 18335979779608292050
20291156 8 18409445907738504408
21033648 29 15625935392128375514
21267235 1 18410020943819775323
22646028 1 18334574637880918310
22646028 28 18335419062832292242
22950370 63 18409172142491938219
2297311 6 18059306400140840724
23366157 5 18120370123210169233
23402539 116 18131346406714992053
23463225 33 18410856585678696797
235170 7 15719385140104702819
23559900 14 18342730849427466720
2871803 45 18040712567625123178
3004659 81 18187362125729147470
335352 9 18413108360376959589
351380 3 18408605872275803851
4214541 1 18410575050409173444
465052 167 18341338898003542951
474 4 17605567750263317900
5104073 3 18343304790112171025
559249 180 18190173494956046002
573450 72 18411135801249460672
67856867 119 18334855082630558564
76465 3 18200586029581097271
7970288 3 18340763857454069455

> <PUBCHEM_SHAPE_MULTIPOLES>
344.87
10.27
1.99
0.84
4.56
0.17
0.04
-4.31
-0.15
-1.18
0.11
0.51
-0.09
-1.02

> <PUBCHEM_SHAPE_SELFOVERLAP>
762.931

> <PUBCHEM_SHAPE_VOLUME>
184.1

> <PUBCHEM_COORDINATE_TYPE>
2
5
10

$$$$
