76431
  -OEChem-11012401053D

 34 35  0     0  0  0  0  0  0999 V2000
   -0.6247   -0.3098   -0.2332 O   0  0  0  0  0  0  0  0  0  0  0  0
    0.7078    0.2212    0.0292 O   0  0  0  0  0  0  0  0  0  0  0  0
   -1.2352    1.5424    0.9977 O   0  0  0  0  0  0  0  0  0  0  0  0
    1.3188   -1.6388   -1.1892 O   0  0  0  0  0  0  0  0  0  0  0  0
   -3.9622    0.9629    0.0745 C   0  0  0  0  0  0  0  0  0  0  0  0
    3.6862   -0.5711    0.7679 C   0  0  0  0  0  0  0  0  0  0  0  0
   -2.8969    0.0649    0.1388 C   0  0  0  0  0  0  0  0  0  0  0  0
    2.9803   -0.1538   -0.3430 C   0  0  0  0  0  0  0  0  0  0  0  0
   -5.2587    0.4931   -0.1357 C   0  0  0  0  0  0  0  0  0  0  0  0
    4.9912   -0.1140    0.9515 C   0  0  0  0  0  0  0  0  0  0  0  0
   -3.1280   -1.3029   -0.0072 C   0  0  0  0  0  0  0  0  0  0  0  0
    3.5277    0.7033   -1.2785 C   0  0  0  0  0  0  0  0  0  0  0  0
   -3.7429    2.4330    0.2277 C   0  0  0  0  0  0  0  0  0  0  0  0
    3.0965   -1.4978    1.7809 C   0  0  0  0  0  0  0  0  0  0  0  0
   -5.4898   -0.8748   -0.2816 C   0  0  0  0  0  0  0  0  0  0  0  0
    5.5644    0.7519    0.0202 C   0  0  0  0  0  0  0  0  0  0  0  0
   -4.4245   -1.7728   -0.2173 C   0  0  0  0  0  0  0  0  0  0  0  0
    4.8327    1.1604   -1.0948 C   0  0  0  0  0  0  0  0  0  0  0  0
   -1.5331    0.5282    0.3561 C   0  0  0  0  0  0  0  0  0  0  0  0
    1.5905   -0.6255   -0.5641 C   0  0  0  0  0  0  0  0  0  0  0  0
   -6.1004    1.1785   -0.1869 H   0  0  0  0  0  0  0  0  0  0  0  0
    5.5756   -0.4220    1.8145 H   0  0  0  0  0  0  0  0  0  0  0  0
   -2.3231   -2.0310    0.0520 H   0  0  0  0  0  0  0  0  0  0  0  0
    2.9637    1.0253   -2.1492 H   0  0  0  0  0  0  0  0  0  0  0  0
   -2.9658    2.7919   -0.4551 H   0  0  0  0  0  0  0  0  0  0  0  0
   -4.6500    2.9974   -0.0181 H   0  0  0  0  0  0  0  0  0  0  0  0
   -3.4828    2.6812    1.2615 H   0  0  0  0  0  0  0  0  0  0  0  0
    3.8064   -1.7317    2.5818 H   0  0  0  0  0  0  0  0  0  0  0  0
    2.2159   -1.0447    2.2481 H   0  0  0  0  0  0  0  0  0  0  0  0
    2.8108   -2.4458    1.3132 H   0  0  0  0  0  0  0  0  0  0  0  0
   -6.4993   -1.2409   -0.4441 H   0  0  0  0  0  0  0  0  0  0  0  0
    6.5805    1.1080    0.1630 H   0  0  0  0  0  0  0  0  0  0  0  0
   -4.6053   -2.8381   -0.3275 H   0  0  0  0  0  0  0  0  0  0  0  0
    5.2791    1.8346   -1.8199 H   0  0  0  0  0  0  0  0  0  0  0  0
  1  2  1  0  0  0  0
  1 19  1  0  0  0  0
  2 20  1  0  0  0  0
  3 19  2  0  0  0  0
  4 20  2  0  0  0  0
  5  7  1  0  0  0  0
  5  9  2  0  0  0  0
  5 13  1  0  0  0  0
  6  8  1  0  0  0  0
  6 10  2  0  0  0  0
  6 14  1  0  0  0  0
  7 11  2  0  0  0  0
  7 19  1  0  0  0  0
  8 12  2  0  0  0  0
  8 20  1  0  0  0  0
  9 15  1  0  0  0  0
  9 21  1  0  0  0  0
 10 16  1  0  0  0  0
 10 22  1  0  0  0  0
 11 17  1  0  0  0  0
 11 23  1  0  0  0  0
 12 18  1  0  0  0  0
 12 24  1  0  0  0  0
 13 25  1  0  0  0  0
 13 26  1  0  0  0  0
 13 27  1  0  0  0  0
 14 28  1  0  0  0  0
 14 29  1  0  0  0  0
 14 30  1  0  0  0  0
 15 17  2  0  0  0  0
 15 31  1  0  0  0  0
 16 18  2  0  0  0  0
 16 32  1  0  0  0  0
 17 33  1  0  0  0  0
 18 34  1  0  0  0  0
M  END
> <PUBCHEM_COMPOUND_CID>
76431

> <PUBCHEM_CONFORMER_RMSD>
0.8

> <PUBCHEM_CONFORMER_DIVERSEORDER>
1
34
105
92
8
52
28
73
31
101
43
10
48
7
76
29
57
86
24
21
69
2
53
13
40
33
96
66
84
91
82
36
60
5
106
54
17
78
98
9
64
58
15
14
20
62
3
41
46
32
74
37
56
12
6
49
42
51
18
4
104
38
90
83
63
26
71
67
27
25
103
75
23
70
81
16
102
47
95
80
45
30
19
107
22
87
44
11
35
99
55
100
93
65
97
50
85
39
94
59
88
68
72
79
89
77
61

> <PUBCHEM_MMFF94_PARTIAL_CHARGES>
28
1 -0.15
10 -0.15
11 -0.15
12 -0.15
13 0.14
14 0.14
15 -0.15
16 -0.15
17 -0.15
18 -0.15
19 0.63
2 -0.15
20 0.63
21 0.15
22 0.15
23 0.15
24 0.15
3 -0.57
31 0.15
32 0.15
33 0.15
34 0.15
4 -0.57
5 -0.14
6 -0.14
7 0.09
8 0.09
9 -0.15

> <PUBCHEM_EFFECTIVE_ROTOR_COUNT>
5

> <PUBCHEM_PHARMACOPHORE_FEATURES>
4
1 3 acceptor
1 4 acceptor
6 5 7 9 11 15 17 rings
6 6 8 10 12 16 18 rings

> <PUBCHEM_HEAVY_ATOM_COUNT>
20

> <PUBCHEM_ATOM_DEF_STEREO_COUNT>
0

> <PUBCHEM_ATOM_UDEF_STEREO_COUNT>
0

> <PUBCHEM_BOND_DEF_STEREO_COUNT>
0

> <PUBCHEM_BOND_UDEF_STEREO_COUNT>
0

> <PUBCHEM_ISOTOPIC_ATOM_COUNT>
0

> <PUBCHEM_COMPONENT_COUNT>
1

> <PUBCHEM_CACTVS_TAUTO_COUNT>
1

> <PUBCHEM_CONFORMER_ID>
00012A8F00000001

> <PUBCHEM_MMFF94_ENERGY>
61.9976

> <PUBCHEM_FEATURE_SELFOVERLAP>
20.298

> <PUBCHEM_SHAPE_FINGERPRINT>
10366900 7 17561081406175315139
10498660 4 17988366979358588032
10595046 47 18259703419188581745
10670039 82 18130241367491186452
10912923 1 18259984859795082777
11488393 25 16342321072282973614
12107183 9 17611736808577875360
12236239 1 18259701202959187274
12516196 113 17418094343173628049
12596602 18 17821728364270125507
12670546 56 17603862273808703396
12730499 353 16056602084253288350
128620 24 17989489614736500500
13167823 11 18187643583178024379
13533116 47 17749383737836759970
13631057 29 17970071260407140539
1420 363 17275390918820729927
14341114 328 18260829293631510904
14386348 63 17275106141140814559
14528608 73 18260834838534744372
15788980 27 18113902645374820466
16988056 13 15091405259070728261
17834072 33 18187644725628483064
17844677 252 14908188542343276329
18681886 176 18271809068597546804
19377110 9 18261684713862660793
19489759 90 18408885135623626561
200 152 17894628166834346847
20511986 3 18114728404487879791
20645477 70 16660355961963626754
21033648 29 16343693301390646569
21033650 10 18121245132723332828
21065198 48 18260827068759408298
221357 26 14405190551601500898
23402539 116 18113050541338601581
23536379 177 17385719197423667991
23557571 272 17845948350546034349
23559900 14 17913773812406418678
300161 21 18186796985062687383
3004659 81 18334856074461802106
341906 21 18342735187375739944
34797466 226 17774731951596477564
4214541 1 18410011014129680581
4325135 7 18408323297940069637
474 4 17531537580556117268
474229 33 18273215326162096190
5104073 3 18129949961943244483
5281201 14 14979965748543091136
542803 24 18408887334319730532
573450 72 18334850581166585867
67856867 119 18261676003210581125
7495541 125 18341327885538337744
8272917 22 17894349948028649490
9971528 1 15936410031224568798

> <PUBCHEM_SHAPE_MULTIPOLES>
388.11
14.22
1.77
1.13
0.24
0.25
-0.09
1.12
0.24
1.38
-0.16
-1.26
-0.16
-1.51

> <PUBCHEM_SHAPE_SELFOVERLAP>
833.141

> <PUBCHEM_SHAPE_VOLUME>
214.7

> <PUBCHEM_COORDINATE_TYPE>
2
5
10

$$$$
