13463715
  -OEChem-11012401243D

 37 36  0     0  0  0  0  0  0999 V2000
    0.7509    0.0695   -0.0876 Si  0  0  0  0  0  0  0  0  0  0  0  0
   -0.8811   -0.2488    0.4527 N   0  0  0  0  0  0  0  0  0  0  0  0
    1.7918    0.6498    1.3580 C   0  0  0  0  0  0  0  0  0  0  0  0
    0.7331    1.4087   -1.3974 C   0  0  0  0  0  0  0  0  0  0  0  0
    1.4772   -1.5014   -0.7996 C   0  0  0  0  0  0  0  0  0  0  0  0
   -1.9099   -0.7200   -0.4906 C   0  0  0  0  0  0  0  0  0  0  0  0
   -1.5368    0.6325    1.4344 C   0  0  0  0  0  0  0  0  0  0  0  0
    3.2466    0.9661    1.0366 C   0  0  0  0  0  0  0  0  0  0  0  0
   -0.0751    1.0943   -2.6495 C   0  0  0  0  0  0  0  0  0  0  0  0
    1.5642   -2.6806    0.1605 C   0  0  0  0  0  0  0  0  0  0  0  0
   -2.9870   -1.4787    0.2146 C   0  0  0  0  0  0  0  0  0  0  0  0
   -2.1740    1.8086    0.7681 C   0  0  0  0  0  0  0  0  0  0  0  0
    1.3421    1.5560    1.7790 H   0  0  0  0  0  0  0  0  0  0  0  0
    1.7626   -0.1110    2.1463 H   0  0  0  0  0  0  0  0  0  0  0  0
    0.3995    2.3610   -0.9743 H   0  0  0  0  0  0  0  0  0  0  0  0
    1.7730    1.5693   -1.7071 H   0  0  0  0  0  0  0  0  0  0  0  0
    0.8903   -1.8088   -1.6722 H   0  0  0  0  0  0  0  0  0  0  0  0
    2.4845   -1.2813   -1.1721 H   0  0  0  0  0  0  0  0  0  0  0  0
   -2.3445    0.0690   -1.1100 H   0  0  0  0  0  0  0  0  0  0  0  0
   -1.4537   -1.4249   -1.1986 H   0  0  0  0  0  0  0  0  0  0  0  0
   -2.2661    0.0910    2.0472 H   0  0  0  0  0  0  0  0  0  0  0  0
   -0.8127    0.9897    2.1766 H   0  0  0  0  0  0  0  0  0  0  0  0
    3.7677    1.2940    1.9423 H   0  0  0  0  0  0  0  0  0  0  0  0
    3.7731    0.0877    0.6485 H   0  0  0  0  0  0  0  0  0  0  0  0
    3.3312    1.7676    0.2951 H   0  0  0  0  0  0  0  0  0  0  0  0
    0.1573    1.8304   -3.4276 H   0  0  0  0  0  0  0  0  0  0  0  0
    0.1488    0.1036   -3.0571 H   0  0  0  0  0  0  0  0  0  0  0  0
   -1.1494    1.1654   -2.4689 H   0  0  0  0  0  0  0  0  0  0  0  0
    2.0013   -3.5466   -0.3477 H   0  0  0  0  0  0  0  0  0  0  0  0
    2.1938   -2.4492    1.0263 H   0  0  0  0  0  0  0  0  0  0  0  0
    0.5751   -2.9736    0.5290 H   0  0  0  0  0  0  0  0  0  0  0  0
   -2.5808   -2.2144    0.9180 H   0  0  0  0  0  0  0  0  0  0  0  0
   -3.6912   -0.8337    0.7489 H   0  0  0  0  0  0  0  0  0  0  0  0
   -3.5833   -2.0371   -0.5167 H   0  0  0  0  0  0  0  0  0  0  0  0
   -1.5030    2.3613    0.1086 H   0  0  0  0  0  0  0  0  0  0  0  0
   -3.0806    1.5558    0.2103 H   0  0  0  0  0  0  0  0  0  0  0  0
   -2.4948    2.5214    1.5378 H   0  0  0  0  0  0  0  0  0  0  0  0
  1  2  1  0  0  0  0
  1  3  1  0  0  0  0
  1  4  1  0  0  0  0
  1  5  1  0  0  0  0
  2  6  1  0  0  0  0
  2  7  1  0  0  0  0
  3  8  1  0  0  0  0
  3 13  1  0  0  0  0
  3 14  1  0  0  0  0
  4  9  1  0  0  0  0
  4 15  1  0  0  0  0
  4 16  1  0  0  0  0
  5 10  1  0  0  0  0
  5 17  1  0  0  0  0
  5 18  1  0  0  0  0
  6 11  1  0  0  0  0
  6 19  1  0  0  0  0
  6 20  1  0  0  0  0
  7 12  1  0  0  0  0
  7 21  1  0  0  0  0
  7 22  1  0  0  0  0
  8 23  1  0  0  0  0
  8 24  1  0  0  0  0
  8 25  1  0  0  0  0
  9 26  1  0  0  0  0
  9 27  1  0  0  0  0
  9 28  1  0  0  0  0
 10 29  1  0  0  0  0
 10 30  1  0  0  0  0
 10 31  1  0  0  0  0
 11 32  1  0  0  0  0
 11 33  1  0  0  0  0
 11 34  1  0  0  0  0
 12 35  1  0  0  0  0
 12 36  1  0  0  0  0
 12 37  1  0  0  0  0
M  END
> <PUBCHEM_COMPOUND_CID>
13463715

> <PUBCHEM_CONFORMER_RMSD>
0.6

> <PUBCHEM_CONFORMER_DIVERSEORDER>
1
18
20
44
41
23
42
43
19
26
6
35
33
40
34
8
24
25
11
27
21
37
29
22
28
31
7
14
30
4
36
12
45
39
10
32
2
13
38
5
9
16
15
3
17

> <PUBCHEM_MMFF94_PARTIAL_CHARGES>
7
1 0.59
2 -0.89
3 -0.08
4 -0.08
5 -0.08
6 0.27
7 0.27

> <PUBCHEM_EFFECTIVE_ROTOR_COUNT>
6

> <PUBCHEM_PHARMACOPHORE_FEATURES>
0

> <PUBCHEM_HEAVY_ATOM_COUNT>
12

> <PUBCHEM_ATOM_DEF_STEREO_COUNT>
0

> <PUBCHEM_ATOM_UDEF_STEREO_COUNT>
0

> <PUBCHEM_BOND_DEF_STEREO_COUNT>
0

> <PUBCHEM_BOND_UDEF_STEREO_COUNT>
0

> <PUBCHEM_ISOTOPIC_ATOM_COUNT>
0

> <PUBCHEM_COMPONENT_COUNT>
1

> <PUBCHEM_CACTVS_TAUTO_COUNT>
1

> <PUBCHEM_CONFORMER_ID>
00CD70A300000001

> <PUBCHEM_MMFF94_ENERGY>
5.1997

> <PUBCHEM_FEATURE_SELFOVERLAP>
0

> <PUBCHEM_SHAPE_FINGERPRINT>
11129358 1 7961494672333158221
12326174 3 17096952327932086588
12423570 1 11892205113597287920
14648413 74 15767844955473220873
14817 1 11118226683477599733
14993402 34 18043245954195282852
16945 1 18269545199276887290
19010151 120 17313929943914824320
20082192 1 17604730978452788219
20511035 2 17904236674638354497
20711985 344 16734954419634892878
21501502 16 18130782300771705427
21922407 69 18193019181636355669
22344851 12 15143823758231691873
23211744 41 17202770435122531176
23419403 2 17333307616773639611
23552423 10 18337409191890212147
3250762 1 17974264553120942998
430814 3 16959624493917428381
4369600 1 17623032478425052053
5084963 1 17202767149615052736
81228 2 17096923555835686988

> <PUBCHEM_SHAPE_MULTIPOLES>
260.19
3.84
2.27
1.9
0.52
1.21
-1.16
0.23
1.66
-0.28
-0.1
-0.22
-1.07
0.05

> <PUBCHEM_SHAPE_SELFOVERLAP>
458.837

> <PUBCHEM_SHAPE_VOLUME>
171.5

> <PUBCHEM_COORDINATE_TYPE>
2
5
10

$$$$
