18063
  -OEChem-10312420112D

 41 40  0     0  0  0  0  0  0999 V2000
    3.7320    0.0000    0.0000 Sn  0  0  0  0  0  0  0  0  0  0  0  0
    4.5981    0.5000    0.0000 C   0  0  0  0  0  0  0  0  0  0  0  0
    2.8660   -0.5000    0.0000 C   0  0  0  0  0  0  0  0  0  0  0  0
    3.2320    0.8660    0.0000 C   0  0  0  0  0  0  0  0  0  0  0  0
    4.2320   -0.8660    0.0000 C   0  0  0  0  0  0  0  0  0  0  0  0
    5.4641    0.0000    0.0000 C   0  0  0  0  0  0  0  0  0  0  0  0
    4.5981    1.5000    0.0000 C   0  0  0  0  0  0  0  0  0  0  0  0
    2.0000   -0.0000    0.0000 C   0  0  0  0  0  0  0  0  0  0  0  0
    2.8660   -1.5000    0.0000 C   0  0  0  0  0  0  0  0  0  0  0  0
    3.7320    1.7320    0.0000 C   0  0  0  0  0  0  0  0  0  0  0  0
    2.2320    0.8660    0.0000 C   0  0  0  0  0  0  0  0  0  0  0  0
    3.7320   -1.7320    0.0000 C   0  0  0  0  0  0  0  0  0  0  0  0
    5.2320   -0.8660    0.0000 C   0  0  0  0  0  0  0  0  0  0  0  0
    4.5981   -0.1200    0.0000 H   0  0  0  0  0  0  0  0  0  0  0  0
    2.8660    0.1200    0.0000 H   0  0  0  0  0  0  0  0  0  0  0  0
    2.9220    0.3291    0.0000 H   0  0  0  0  0  0  0  0  0  0  0  0
    4.5420   -1.4030    0.0000 H   0  0  0  0  0  0  0  0  0  0  0  0
    5.1541   -0.5369    0.0000 H   0  0  0  0  0  0  0  0  0  0  0  0
    6.0010   -0.3100    0.0000 H   0  0  0  0  0  0  0  0  0  0  0  0
    5.7741    0.5369    0.0000 H   0  0  0  0  0  0  0  0  0  0  0  0
    5.2181    1.5000    0.0000 H   0  0  0  0  0  0  0  0  0  0  0  0
    4.5981    2.1200    0.0000 H   0  0  0  0  0  0  0  0  0  0  0  0
    3.9781    1.5000    0.0000 H   0  0  0  0  0  0  0  0  0  0  0  0
    2.3100    0.5369    0.0000 H   0  0  0  0  0  0  0  0  0  0  0  0
    1.4631    0.3100    0.0000 H   0  0  0  0  0  0  0  0  0  0  0  0
    1.6900   -0.5369    0.0000 H   0  0  0  0  0  0  0  0  0  0  0  0
    2.2460   -1.5000    0.0000 H   0  0  0  0  0  0  0  0  0  0  0  0
    2.8660   -2.1200    0.0000 H   0  0  0  0  0  0  0  0  0  0  0  0
    3.4860   -1.5000    0.0000 H   0  0  0  0  0  0  0  0  0  0  0  0
    4.2690    1.4220    0.0000 H   0  0  0  0  0  0  0  0  0  0  0  0
    4.0420    2.2690    0.0000 H   0  0  0  0  0  0  0  0  0  0  0  0
    3.1951    2.0420    0.0000 H   0  0  0  0  0  0  0  0  0  0  0  0
    2.2320    1.4860    0.0000 H   0  0  0  0  0  0  0  0  0  0  0  0
    1.6120    0.8660    0.0000 H   0  0  0  0  0  0  0  0  0  0  0  0
    2.2320    0.2460    0.0000 H   0  0  0  0  0  0  0  0  0  0  0  0
    3.1951   -1.4220    0.0000 H   0  0  0  0  0  0  0  0  0  0  0  0
    3.4220   -2.2690    0.0000 H   0  0  0  0  0  0  0  0  0  0  0  0
    4.2690   -2.0420    0.0000 H   0  0  0  0  0  0  0  0  0  0  0  0
    5.2320   -1.4860    0.0000 H   0  0  0  0  0  0  0  0  0  0  0  0
    5.8520   -0.8660    0.0000 H   0  0  0  0  0  0  0  0  0  0  0  0
    5.2320   -0.2460    0.0000 H   0  0  0  0  0  0  0  0  0  0  0  0
  1  2  1  0  0  0  0
  1  3  1  0  0  0  0
  1  4  1  0  0  0  0
  1  5  1  0  0  0  0
  2  6  1  0  0  0  0
  2  7  1  0  0  0  0
  2 14  1  0  0  0  0
  3  8  1  0  0  0  0
  3  9  1  0  0  0  0
  3 15  1  0  0  0  0
  4 10  1  0  0  0  0
  4 11  1  0  0  0  0
  4 16  1  0  0  0  0
  5 12  1  0  0  0  0
  5 13  1  0  0  0  0
  5 17  1  0  0  0  0
  6 18  1  0  0  0  0
  6 19  1  0  0  0  0
  6 20  1  0  0  0  0
  7 21  1  0  0  0  0
  7 22  1  0  0  0  0
  7 23  1  0  0  0  0
  8 24  1  0  0  0  0
  8 25  1  0  0  0  0
  8 26  1  0  0  0  0
  9 27  1  0  0  0  0
  9 28  1  0  0  0  0
  9 29  1  0  0  0  0
 10 30  1  0  0  0  0
 10 31  1  0  0  0  0
 10 32  1  0  0  0  0
 11 33  1  0  0  0  0
 11 34  1  0  0  0  0
 11 35  1  0  0  0  0
 12 36  1  0  0  0  0
 12 37  1  0  0  0  0
 12 38  1  0  0  0  0
 13 39  1  0  0  0  0
 13 40  1  0  0  0  0
 13 41  1  0  0  0  0
M  END
> <PUBCHEM_COMPOUND_CID>
18063

> <PUBCHEM_COMPOUND_CANONICALIZED>
1

> <PUBCHEM_CACTVS_COMPLEXITY>
108

> <PUBCHEM_CACTVS_HBOND_ACCEPTOR>
0

> <PUBCHEM_CACTVS_HBOND_DONOR>
0

> <PUBCHEM_CACTVS_ROTATABLE_BOND>
4

> <PUBCHEM_CACTVS_SUBSKEYS>
AAADceBwAAAAAAAAAACAAAAAAAAAAAAAAAAAAAAAAAAAAAAAAAAAGAAAAAAACACAAAACAAAAAAAAAAAAAAAAAAAAAAAAAAAAAAAAAAAAAAAAAAAAAAAAAAAAAAAAAAAAAAAAAAAAAAAAAAAAAAAAAAAAAA==

> <PUBCHEM_IUPAC_OPENEYE_NAME>
tetraisopropylstannane

> <PUBCHEM_IUPAC_CAS_NAME>
tetra(propan-2-yl)stannane

> <PUBCHEM_IUPAC_NAME_MARKUP>
tetra(propan-2-yl)stannane

> <PUBCHEM_IUPAC_NAME>
tetra(propan-2-yl)stannane

> <PUBCHEM_IUPAC_SYSTEMATIC_NAME>
tetra(propan-2-yl)stannane

> <PUBCHEM_IUPAC_TRADITIONAL_NAME>
tetraisopropylstannane

> <PUBCHEM_IUPAC_INCHI>
InChI=1S/4C3H7.Sn/c4*1-3-2;/h4*3H,1-2H3;

> <PUBCHEM_IUPAC_INCHIKEY>
NJASUIDIZMMYED-UHFFFAOYSA-N

> <PUBCHEM_EXACT_MASS>
292.121303

> <PUBCHEM_MOLECULAR_FORMULA>
C12H28Sn

> <PUBCHEM_MOLECULAR_WEIGHT>
291.06

> <PUBCHEM_OPENEYE_CAN_SMILES>
CC(C)[Sn](C(C)C)(C(C)C)C(C)C

> <PUBCHEM_OPENEYE_ISO_SMILES>
CC(C)[Sn](C(C)C)(C(C)C)C(C)C

> <PUBCHEM_CACTVS_TPSA>
0

> <PUBCHEM_MONOISOTOPIC_WEIGHT>
292.121303

> <PUBCHEM_TOTAL_CHARGE>
0

> <PUBCHEM_HEAVY_ATOM_COUNT>
13

> <PUBCHEM_ATOM_DEF_STEREO_COUNT>
0

> <PUBCHEM_ATOM_UDEF_STEREO_COUNT>
0

> <PUBCHEM_BOND_DEF_STEREO_COUNT>
0

> <PUBCHEM_BOND_UDEF_STEREO_COUNT>
0

> <PUBCHEM_ISOTOPIC_ATOM_COUNT>
0

> <PUBCHEM_COMPONENT_COUNT>
1

> <PUBCHEM_CACTVS_TAUTO_COUNT>
-1

> <PUBCHEM_COORDINATE_TYPE>
1
5
255

$$$$
