138554
  -OEChem-11012400593D

 22 22  0     0  0  0  0  0  0999 V2000
    0.6701   -1.2811   -0.2990 S   0  0  0  0  0  0  0  0  0  0  0  0
    0.5138   -2.6054    0.2878 O   0  0  0  0  0  0  0  0  0  0  0  0
    1.0774   -1.1554   -1.6917 O   0  0  0  0  0  0  0  0  0  0  0  0
    2.2754    1.3402   -0.8472 O   0  0  0  0  0  0  0  0  0  0  0  0
    1.7483   -0.3696    0.6738 N   0  0  0  0  0  0  0  0  0  0  0  0
   -0.8211   -0.3946   -0.1017 C   0  0  0  0  0  0  0  0  0  0  0  0
   -1.1356    0.6451   -0.9769 C   0  0  0  0  0  0  0  0  0  0  0  0
   -1.6980   -0.7257    0.9315 C   0  0  0  0  0  0  0  0  0  0  0  0
   -2.3266    1.3537   -0.8191 C   0  0  0  0  0  0  0  0  0  0  0  0
   -2.8891   -0.0171    1.0892 C   0  0  0  0  0  0  0  0  0  0  0  0
   -3.2033    1.0225    0.2139 C   0  0  0  0  0  0  0  0  0  0  0  0
    2.4278    0.8164    0.2507 C   0  0  0  0  0  0  0  0  0  0  0  0
    3.3609    1.3711    1.2887 C   0  0  0  0  0  0  0  0  0  0  0  0
   -0.4673    0.9242   -1.7864 H   0  0  0  0  0  0  0  0  0  0  0  0
   -1.4698   -1.5275    1.6282 H   0  0  0  0  0  0  0  0  0  0  0  0
    1.9617   -0.7479    1.6058 H   0  0  0  0  0  0  0  0  0  0  0  0
   -2.5709    2.1641   -1.4997 H   0  0  0  0  0  0  0  0  0  0  0  0
   -3.5713   -0.2736    1.8945 H   0  0  0  0  0  0  0  0  0  0  0  0
   -4.1304    1.5747    0.3373 H   0  0  0  0  0  0  0  0  0  0  0  0
    4.1308    0.6319    1.5255 H   0  0  0  0  0  0  0  0  0  0  0  0
    3.8426    2.2752    0.9065 H   0  0  0  0  0  0  0  0  0  0  0  0
    2.7996    1.6233    2.1924 H   0  0  0  0  0  0  0  0  0  0  0  0
  1  2  2  0  0  0  0
  1  3  2  0  0  0  0
  1  5  1  0  0  0  0
  1  6  1  0  0  0  0
  4 12  2  0  0  0  0
  5 12  1  0  0  0  0
  5 16  1  0  0  0  0
  6  7  2  0  0  0  0
  6  8  1  0  0  0  0
  7  9  1  0  0  0  0
  7 14  1  0  0  0  0
  8 10  2  0  0  0  0
  8 15  1  0  0  0  0
  9 11  2  0  0  0  0
  9 17  1  0  0  0  0
 10 11  1  0  0  0  0
 10 18  1  0  0  0  0
 11 19  1  0  0  0  0
 12 13  1  0  0  0  0
 13 20  1  0  0  0  0
 13 21  1  0  0  0  0
 13 22  1  0  0  0  0
M  END
> <PUBCHEM_COMPOUND_CID>
138554

> <PUBCHEM_CONFORMER_RMSD>
0.6

> <PUBCHEM_CONFORMER_DIVERSEORDER>
1
9
5
8
10
6
2
3
7
4

> <PUBCHEM_MMFF94_PARTIAL_CHARGES>
19
1 1.45
10 -0.15
11 -0.15
12 0.75
13 0.06
14 0.15
15 0.15
16 0.42
17 0.15
18 0.15
19 0.15
2 -0.65
3 -0.65
4 -0.57
5 -0.79
6 -0.01
7 -0.15
8 -0.15
9 -0.15

> <PUBCHEM_EFFECTIVE_ROTOR_COUNT>
3

> <PUBCHEM_PHARMACOPHORE_FEATURES>
5
1 2 acceptor
1 3 acceptor
1 4 acceptor
1 5 donor
6 6 7 8 9 10 11 rings

> <PUBCHEM_HEAVY_ATOM_COUNT>
13

> <PUBCHEM_ATOM_DEF_STEREO_COUNT>
0

> <PUBCHEM_ATOM_UDEF_STEREO_COUNT>
0

> <PUBCHEM_BOND_DEF_STEREO_COUNT>
0

> <PUBCHEM_BOND_UDEF_STEREO_COUNT>
0

> <PUBCHEM_ISOTOPIC_ATOM_COUNT>
0

> <PUBCHEM_COMPONENT_COUNT>
1

> <PUBCHEM_CACTVS_TAUTO_COUNT>
2

> <PUBCHEM_CONFORMER_ID>
00021D3A00000001

> <PUBCHEM_MMFF94_ENERGY>
11.0561

> <PUBCHEM_FEATURE_SELFOVERLAP>
25.392

> <PUBCHEM_SHAPE_FINGERPRINT>
10857977 72 17677067779988224145
11031198 65 17703795803510017793
11127187 94 10807944794356576889
11132069 177 18335984267748915729
12251169 10 17603862321158929744
12326174 3 17985831432272068662
12696612 119 17894917342640297508
12932764 1 18265629680015775639
13571099 52 18342168960188146157
14817 1 15360481313583821582
15219456 202 18334860459285443803
15775835 57 18131058364105661520
16945 1 17385717002178493107
18186145 218 17489313018276756992
18380122 1 18260275139813413747
20645464 45 18334014956513692865
20653085 51 16343155730372700448
21028194 46 18272934968082142866
21524375 3 18201429337508307226
21947302 44 18266737983088068249
230 275 18336549326230728876
25 1 17846788411815468528
27216 239 18194390324044301912
2748010 2 17751090106937124151
305870 269 18410282602080990154
7364860 26 18196372520028411758
81228 2 17764303247063342930

> <PUBCHEM_SHAPE_MULTIPOLES>
248.79
5.02
1.89
1.3
0.63
0.8
0.13
-3.04
-1.57
0.7
0.07
0.14
-0.05
0.74

> <PUBCHEM_SHAPE_SELFOVERLAP>
496.473

> <PUBCHEM_SHAPE_VOLUME>
146.3

> <PUBCHEM_COORDINATE_TYPE>
2
5
10

$$$$
