20759
  -OEChem-11012400523D

 21 22  0     1  0  0  0  0  0999 V2000
   -2.3176    0.9122    1.2962 O   0  0  0  0  0  0  0  0  0  0  0  0
   -1.5547   -1.7697   -1.0149 O   0  0  0  0  0  0  0  0  0  0  0  0
   -2.0306    0.3938   -0.0033 C   0  0  2  0  0  0  0  0  0  0  0  0
   -1.3194   -0.9666    0.1295 C   0  0  2  0  0  0  0  0  0  0  0  0
   -1.0472    1.3517   -0.7023 C   0  0  0  0  0  0  0  0  0  0  0  0
    0.1212   -0.5549    0.1419 C   0  0  0  0  0  0  0  0  0  0  0  0
    0.2741    0.7567   -0.3209 C   0  0  0  0  0  0  0  0  0  0  0  0
    1.2200   -1.3115    0.5162 C   0  0  0  0  0  0  0  0  0  0  0  0
    1.5277    1.3362   -0.4253 C   0  0  0  0  0  0  0  0  0  0  0  0
    2.4869   -0.7312    0.4254 C   0  0  0  0  0  0  0  0  0  0  0  0
    2.6397    0.5832   -0.0425 C   0  0  0  0  0  0  0  0  0  0  0  0
   -2.9757    0.3353   -0.5533 H   0  0  0  0  0  0  0  0  0  0  0  0
   -1.5940   -1.5083    1.0403 H   0  0  0  0  0  0  0  0  0  0  0  0
   -1.1431    2.3813   -0.3452 H   0  0  0  0  0  0  0  0  0  0  0  0
   -1.1610    1.3076   -1.7904 H   0  0  0  0  0  0  0  0  0  0  0  0
    1.1052   -2.3303    0.8703 H   0  0  0  0  0  0  0  0  0  0  0  0
    1.6491    2.3485   -0.7957 H   0  0  0  0  0  0  0  0  0  0  0  0
   -2.9280    0.2903    1.7279 H   0  0  0  0  0  0  0  0  0  0  0  0
   -2.5092   -1.9513   -1.0510 H   0  0  0  0  0  0  0  0  0  0  0  0
    3.3642   -1.3034    0.7148 H   0  0  0  0  0  0  0  0  0  0  0  0
    3.6339    1.0161   -0.1116 H   0  0  0  0  0  0  0  0  0  0  0  0
  1  3  1  0  0  0  0
  1 18  1  0  0  0  0
  2  4  1  0  0  0  0
  2 19  1  0  0  0  0
  3  4  1  0  0  0  0
  3  5  1  0  0  0  0
  3 12  1  0  0  0  0
  4  6  1  0  0  0  0
  4 13  1  0  0  0  0
  5  7  1  0  0  0  0
  5 14  1  0  0  0  0
  5 15  1  0  0  0  0
  6  7  1  0  0  0  0
  6  8  2  0  0  0  0
  7  9  2  0  0  0  0
  8 10  1  0  0  0  0
  8 16  1  0  0  0  0
  9 11  1  0  0  0  0
  9 17  1  0  0  0  0
 10 11  2  0  0  0  0
 10 20  1  0  0  0  0
 11 21  1  0  0  0  0
M  END
> <PUBCHEM_COMPOUND_CID>
20759

> <PUBCHEM_CONFORMER_RMSD>
0.4

> <PUBCHEM_CONFORMER_DIVERSEORDER>
1
2

> <PUBCHEM_MMFF94_PARTIAL_CHARGES>
17
1 -0.68
10 -0.15
11 -0.15
16 0.15
17 0.15
18 0.4
19 0.4
2 -0.68
20 0.15
21 0.15
3 0.28
4 0.42
5 0.14
6 -0.14
7 -0.14
8 -0.15
9 -0.15

> <PUBCHEM_EFFECTIVE_ROTOR_COUNT>
0.6

> <PUBCHEM_PHARMACOPHORE_FEATURES>
6
1 1 acceptor
1 1 donor
1 2 acceptor
1 2 donor
5 3 4 5 6 7 rings
6 6 7 8 9 10 11 rings

> <PUBCHEM_HEAVY_ATOM_COUNT>
11

> <PUBCHEM_ATOM_DEF_STEREO_COUNT>
2

> <PUBCHEM_ATOM_UDEF_STEREO_COUNT>
0

> <PUBCHEM_BOND_DEF_STEREO_COUNT>
0

> <PUBCHEM_BOND_UDEF_STEREO_COUNT>
0

> <PUBCHEM_ISOTOPIC_ATOM_COUNT>
0

> <PUBCHEM_COMPONENT_COUNT>
1

> <PUBCHEM_CACTVS_TAUTO_COUNT>
1

> <PUBCHEM_CONFORMER_ID>
0000511700000001

> <PUBCHEM_MMFF94_ENERGY>
28.1968

> <PUBCHEM_FEATURE_SELFOVERLAP>
30.527

> <PUBCHEM_SHAPE_FINGERPRINT>
12423570 1 17554646093292699183
12524768 44 18337953364035566870
13024252 1 16588022381479049775
15775835 57 18410018744801788040
16945 1 18261674774859866428
17844478 74 17604163531415439305
18185500 45 18336540641769894078
21040471 1 18264763277368627476
23552423 10 18187080702165300966
241688 4 18262509420038864633
2748010 2 18261672704822747476
29004967 10 17458351814241220712
369184 2 18260541225600458360
5084963 1 18338227262705577192
528886 8 18260826033550873168
63268167 104 18334852822780947904

> <PUBCHEM_SHAPE_MULTIPOLES>
214.64
3.43
1.66
0.9
0.73
0.13
-0.07
-0.14
-0.47
-0.07
0.26
-0.44
0.02
-0.48

> <PUBCHEM_SHAPE_SELFOVERLAP>
464.281

> <PUBCHEM_SHAPE_VOLUME>
120.3

> <PUBCHEM_COORDINATE_TYPE>
2
5
10

$$$$
