89388
  -OEChem-11012401013D

 30 30  0     0  0  0  0  0  0999 V2000
    1.9404   -0.9274    0.7591 O   0  0  0  0  0  0  0  0  0  0  0  0
    0.9480    0.9962   -0.2431 O   0  0  0  0  0  0  0  0  0  0  0  0
    2.3095   -1.2229   -1.5033 O   0  0  0  0  0  0  0  0  0  0  0  0
    2.3429    1.8390    1.3941 O   0  0  0  0  0  0  0  0  0  0  0  0
   -0.2915   -1.0811   -0.2382 C   0  0  0  0  0  0  0  0  0  0  0  0
    0.7148   -0.2046    0.5245 C   0  0  0  0  0  0  0  0  0  0  0  0
   -1.7203   -0.5989   -0.1295 C   0  0  0  0  0  0  0  0  0  0  0  0
   -2.5146   -1.0631    0.9056 C   0  0  0  0  0  0  0  0  0  0  0  0
   -2.2057    0.2975   -1.0669 C   0  0  0  0  0  0  0  0  0  0  0  0
   -3.8328   -0.6182    1.0061 C   0  0  0  0  0  0  0  0  0  0  0  0
   -3.5238    0.7424   -0.9662 C   0  0  0  0  0  0  0  0  0  0  0  0
   -4.3373    0.2846    0.0703 C   0  0  0  0  0  0  0  0  0  0  0  0
    2.6261   -1.3726   -0.3313 C   0  0  0  0  0  0  0  0  0  0  0  0
    1.7779    1.9236    0.3123 C   0  0  0  0  0  0  0  0  0  0  0  0
    3.8619   -2.0913    0.1179 C   0  0  0  0  0  0  0  0  0  0  0  0
    1.9043    3.0967   -0.6114 C   0  0  0  0  0  0  0  0  0  0  0  0
   -0.0456   -1.1374   -1.3052 H   0  0  0  0  0  0  0  0  0  0  0  0
   -0.2363   -2.1147    0.1291 H   0  0  0  0  0  0  0  0  0  0  0  0
    0.3103    0.0756    1.5047 H   0  0  0  0  0  0  0  0  0  0  0  0
   -2.1294   -1.7643    1.6402 H   0  0  0  0  0  0  0  0  0  0  0  0
   -1.5799    0.6611   -1.8768 H   0  0  0  0  0  0  0  0  0  0  0  0
   -4.4660   -0.9741    1.8135 H   0  0  0  0  0  0  0  0  0  0  0  0
   -3.9167    1.4458   -1.6945 H   0  0  0  0  0  0  0  0  0  0  0  0
   -5.3635    0.6313    0.1488 H   0  0  0  0  0  0  0  0  0  0  0  0
    4.4103   -2.4513   -0.7573 H   0  0  0  0  0  0  0  0  0  0  0  0
    3.5876   -2.9511    0.7343 H   0  0  0  0  0  0  0  0  0  0  0  0
    4.5065   -1.4070    0.6753 H   0  0  0  0  0  0  0  0  0  0  0  0
    2.5706    3.8401   -0.1646 H   0  0  0  0  0  0  0  0  0  0  0  0
    2.3321    2.7738   -1.5638 H   0  0  0  0  0  0  0  0  0  0  0  0
    0.9241    3.5552   -0.7647 H   0  0  0  0  0  0  0  0  0  0  0  0
  1  6  1  0  0  0  0
  1 13  1  0  0  0  0
  2  6  1  0  0  0  0
  2 14  1  0  0  0  0
  3 13  2  0  0  0  0
  4 14  2  0  0  0  0
  5  6  1  0  0  0  0
  5  7  1  0  0  0  0
  5 17  1  0  0  0  0
  5 18  1  0  0  0  0
  6 19  1  0  0  0  0
  7  8  2  0  0  0  0
  7  9  1  0  0  0  0
  8 10  1  0  0  0  0
  8 20  1  0  0  0  0
  9 11  2  0  0  0  0
  9 21  1  0  0  0  0
 10 12  2  0  0  0  0
 10 22  1  0  0  0  0
 11 12  1  0  0  0  0
 11 23  1  0  0  0  0
 12 24  1  0  0  0  0
 13 15  1  0  0  0  0
 14 16  1  0  0  0  0
 15 25  1  0  0  0  0
 15 26  1  0  0  0  0
 15 27  1  0  0  0  0
 16 28  1  0  0  0  0
 16 29  1  0  0  0  0
 16 30  1  0  0  0  0
M  END
> <PUBCHEM_COMPOUND_CID>
89388

> <PUBCHEM_CONFORMER_RMSD>
0.8

> <PUBCHEM_CONFORMER_DIVERSEORDER>
1
3
24
19
25
12
8
2
17
11
28
23
15
21
27
26
20
10
18
22
9
6
16
5
13
14
4
7

> <PUBCHEM_MMFF94_PARTIAL_CHARGES>
21
1 -0.43
10 -0.15
11 -0.15
12 -0.15
13 0.66
14 0.66
15 0.06
16 0.06
2 -0.43
20 0.15
21 0.15
22 0.15
23 0.15
24 0.15
3 -0.57
4 -0.57
5 0.14
6 0.56
7 -0.14
8 -0.15
9 -0.15

> <PUBCHEM_EFFECTIVE_ROTOR_COUNT>
6

> <PUBCHEM_PHARMACOPHORE_FEATURES>
3
1 3 acceptor
1 4 acceptor
6 7 8 9 10 11 12 rings

> <PUBCHEM_HEAVY_ATOM_COUNT>
16

> <PUBCHEM_ATOM_DEF_STEREO_COUNT>
0

> <PUBCHEM_ATOM_UDEF_STEREO_COUNT>
0

> <PUBCHEM_BOND_DEF_STEREO_COUNT>
0

> <PUBCHEM_BOND_UDEF_STEREO_COUNT>
0

> <PUBCHEM_ISOTOPIC_ATOM_COUNT>
0

> <PUBCHEM_COMPONENT_COUNT>
1

> <PUBCHEM_CACTVS_TAUTO_COUNT>
1

> <PUBCHEM_CONFORMER_ID>
00015D2C00000001

> <PUBCHEM_MMFF94_ENERGY>
29.9471

> <PUBCHEM_FEATURE_SELFOVERLAP>
15.223

> <PUBCHEM_SHAPE_FINGERPRINT>
10465860 250 18189610553956854962
10608611 8 18260543446536569277
10980938 120 18270120252669707777
12916754 54 18341890823197817535
12932764 1 18040712567746650475
13134695 92 18131060511789763120
13296908 3 18261111898337672603
13380535 21 18195252332596553075
14181834 199 18059847389963238436
14648413 74 18335982055513775491
15219456 202 18334856151591462441
15653759 3 18040435477836356603
15806764 133 18262530203950021645
17041 50 18335700498985433679
17804303 29 18114186294064165623
1813 80 17701837504845469998
18186145 218 18334851698042692385
20097449 115 18339079281369997064
20233049 118 18041838390022139982
20339313 130 18271531918088277274
20671657 1 18341053028916299884
20671657 53 18339928099751057610
20715346 28 18187642539896246335
21041028 32 18271531892266187481
21486144 27 18334851749466262039
21501502 16 18199747123357133335
21524375 3 17835236032142137936
2255824 54 18411984684524691230
23175994 123 18265902358340444455
23559900 14 17530971301981962015
2748010 2 18187638137475698885
3286 77 18335423456763281663
6049 1 18186240641080249149
7364860 26 18343300405172120080
74978 22 18412262843923818815
81228 2 17837784322290980160
9971528 1 17632298908926185462

> <PUBCHEM_SHAPE_MULTIPOLES>
305.8
7.32
2.49
1.15
4
1.85
0.03
-1.61
-0.24
-3.42
0.04
0.05
0.05
0.94

> <PUBCHEM_SHAPE_SELFOVERLAP>
623.018

> <PUBCHEM_SHAPE_VOLUME>
175.5

> <PUBCHEM_COORDINATE_TYPE>
2
5
10

$$$$
