67512
  -OEChem-11012400323D

 20 21  0     1  0  0  0  0  0999 V2000
   -2.0430    0.0002   -0.3942 O   0  0  0  0  0  0  0  0  0  0  0  0
   -1.1371   -0.7515    0.4236 C   0  0  2  0  0  0  0  0  0  0  0  0
   -1.1369    0.7515    0.4237 C   0  0  1  0  0  0  0  0  0  0  0  0
   -0.1094   -1.5311   -0.3257 C   0  0  0  0  0  0  0  0  0  0  0  0
   -0.1091    1.5314   -0.3255 C   0  0  0  0  0  0  0  0  0  0  0  0
    1.2944   -1.2966    0.2293 C   0  0  0  0  0  0  0  0  0  0  0  0
    1.2947    1.2963    0.2291 C   0  0  0  0  0  0  0  0  0  0  0  0
    1.9464   -0.0002   -0.2603 C   0  0  0  0  0  0  0  0  0  0  0  0
   -1.5264   -1.2633    1.2933 H   0  0  0  0  0  0  0  0  0  0  0  0
   -1.5261    1.2632    1.2935 H   0  0  0  0  0  0  0  0  0  0  0  0
   -0.1377   -1.3088   -1.3992 H   0  0  0  0  0  0  0  0  0  0  0  0
   -0.3560   -2.5949   -0.2246 H   0  0  0  0  0  0  0  0  0  0  0  0
   -0.3554    2.5952   -0.2239 H   0  0  0  0  0  0  0  0  0  0  0  0
   -0.1376    1.3094   -1.3991 H   0  0  0  0  0  0  0  0  0  0  0  0
    1.9312   -2.1283   -0.0974 H   0  0  0  0  0  0  0  0  0  0  0  0
    1.2844   -1.3180    1.3259 H   0  0  0  0  0  0  0  0  0  0  0  0
    1.2850    1.3179    1.3257 H   0  0  0  0  0  0  0  0  0  0  0  0
    1.9317    2.1278   -0.0978 H   0  0  0  0  0  0  0  0  0  0  0  0
    2.9894   -0.0004    0.0812 H   0  0  0  0  0  0  0  0  0  0  0  0
    1.9843   -0.0002   -1.3568 H   0  0  0  0  0  0  0  0  0  0  0  0
  1  2  1  0  0  0  0
  1  3  1  0  0  0  0
  2  3  1  0  0  0  0
  2  4  1  0  0  0  0
  2  9  1  0  0  0  0
  3  5  1  0  0  0  0
  3 10  1  0  0  0  0
  4  6  1  0  0  0  0
  4 11  1  0  0  0  0
  4 12  1  0  0  0  0
  5  7  1  0  0  0  0
  5 13  1  0  0  0  0
  5 14  1  0  0  0  0
  6  8  1  0  0  0  0
  6 15  1  0  0  0  0
  6 16  1  0  0  0  0
  7  8  1  0  0  0  0
  7 17  1  0  0  0  0
  7 18  1  0  0  0  0
  8 19  1  0  0  0  0
  8 20  1  0  0  0  0
M  END
> <PUBCHEM_COMPOUND_CID>
67512

> <PUBCHEM_CONFORMER_RMSD>
0.4

> <PUBCHEM_CONFORMER_DIVERSEORDER>
1
2
3
4

> <PUBCHEM_MMFF94_PARTIAL_CHARGES>
7
1 -0.3
10 0.1
2 -0.05
3 -0.05
4 0.09
5 0.09
9 0.1

> <PUBCHEM_EFFECTIVE_ROTOR_COUNT>
1.2

> <PUBCHEM_PHARMACOPHORE_FEATURES>
2
1 1 acceptor
7 2 3 4 5 6 7 8 rings

> <PUBCHEM_HEAVY_ATOM_COUNT>
8

> <PUBCHEM_ATOM_DEF_STEREO_COUNT>
0

> <PUBCHEM_ATOM_UDEF_STEREO_COUNT>
2

> <PUBCHEM_BOND_DEF_STEREO_COUNT>
0

> <PUBCHEM_BOND_UDEF_STEREO_COUNT>
0

> <PUBCHEM_ISOTOPIC_ATOM_COUNT>
0

> <PUBCHEM_COMPONENT_COUNT>
1

> <PUBCHEM_CACTVS_TAUTO_COUNT>
1

> <PUBCHEM_CONFORMER_ID>
000107B800000001

> <PUBCHEM_MMFF94_ENERGY>
8.4122

> <PUBCHEM_FEATURE_SELFOVERLAP>
10.148

> <PUBCHEM_SHAPE_FINGERPRINT>
18185500 45 18339359768193064710
20096714 4 18411422838324929010
21040471 1 18266741474748799760
23552423 10 18261677098511104606
241688 4 17978230448259243336
29004967 10 18260276264693957753
5084963 1 18197787810620684946
66348 1 18410858767405947554

> <PUBCHEM_SHAPE_MULTIPOLES>
158.77
2.25
1.79
0.71
0.05
0
0.01
0
-0.05
0.27
-0.04
-0.04
0
0

> <PUBCHEM_SHAPE_SELFOVERLAP>
314.173

> <PUBCHEM_SHAPE_VOLUME>
94.2

> <PUBCHEM_COORDINATE_TYPE>
2
5
10

$$$$
