101807
  -OEChem-11012400583D

 30 30  0     1  0  0  0  0  0999 V2000
   -2.7930    1.2775    0.1589 O   0  0  0  0  0  0  0  0  0  0  0  0
    2.9745    1.2791   -0.1203 O   0  0  0  0  0  0  0  0  0  0  0  0
   -2.9213   -0.7680    1.1567 O   0  0  0  0  0  0  0  0  0  0  0  0
    3.2765   -0.8323    0.6840 O   0  0  0  0  0  0  0  0  0  0  0  0
    0.1061    0.5639    0.0202 C   0  0  0  0  0  0  0  0  0  0  0  0
   -1.1320   -0.2935   -0.4085 C   0  0  2  0  0  0  0  0  0  0  0  0
    1.2736   -0.2827   -0.5535 C   0  0  2  0  0  0  0  0  0  0  0  0
   -0.6625   -1.7338   -0.1332 C   0  0  0  0  0  0  0  0  0  0  0  0
    0.8484   -1.7439   -0.3763 C   0  0  0  0  0  0  0  0  0  0  0  0
    0.1171    1.9813   -0.5745 C   0  0  0  0  0  0  0  0  0  0  0  0
    0.2084    0.6983    1.5621 C   0  0  0  0  0  0  0  0  0  0  0  0
   -1.5341   -0.1470   -1.8862 C   0  0  0  0  0  0  0  0  0  0  0  0
   -2.3687    0.0120    0.3955 C   0  0  0  0  0  0  0  0  0  0  0  0
    2.6071   -0.0110    0.0752 C   0  0  0  0  0  0  0  0  0  0  0  0
    1.3931   -0.0999   -1.6303 H   0  0  0  0  0  0  0  0  0  0  0  0
   -1.1695   -2.4704   -0.7670 H   0  0  0  0  0  0  0  0  0  0  0  0
   -0.8497   -2.0393    0.9037 H   0  0  0  0  0  0  0  0  0  0  0  0
    1.3469   -2.2556    0.4538 H   0  0  0  0  0  0  0  0  0  0  0  0
    1.0841   -2.3136   -1.2831 H   0  0  0  0  0  0  0  0  0  0  0  0
    0.2119    1.9667   -1.6653 H   0  0  0  0  0  0  0  0  0  0  0  0
   -0.7912    2.5371   -0.3270 H   0  0  0  0  0  0  0  0  0  0  0  0
    0.9467    2.5820   -0.1893 H   0  0  0  0  0  0  0  0  0  0  0  0
   -0.6463    1.2469    1.9727 H   0  0  0  0  0  0  0  0  0  0  0  0
    0.2504   -0.2749    2.0613 H   0  0  0  0  0  0  0  0  0  0  0  0
    1.1020    1.2568    1.8617 H   0  0  0  0  0  0  0  0  0  0  0  0
   -1.8358    0.8743   -2.1421 H   0  0  0  0  0  0  0  0  0  0  0  0
   -0.7203   -0.4289   -2.5622 H   0  0  0  0  0  0  0  0  0  0  0  0
   -2.3881   -0.7940   -2.1226 H   0  0  0  0  0  0  0  0  0  0  0  0
   -3.5982    1.4963    0.6744 H   0  0  0  0  0  0  0  0  0  0  0  0
    3.8441    1.4782    0.2874 H   0  0  0  0  0  0  0  0  0  0  0  0
  1 13  1  0  0  0  0
  1 29  1  0  0  0  0
  2 14  1  0  0  0  0
  2 30  1  0  0  0  0
  3 13  2  0  0  0  0
  4 14  2  0  0  0  0
  5  6  1  0  0  0  0
  5  7  1  0  0  0  0
  5 10  1  0  0  0  0
  5 11  1  0  0  0  0
  6  8  1  0  0  0  0
  6 12  1  0  0  0  0
  6 13  1  0  0  0  0
  7  9  1  0  0  0  0
  7 14  1  0  0  0  0
  7 15  1  0  0  0  0
  8  9  1  0  0  0  0
  8 16  1  0  0  0  0
  8 17  1  0  0  0  0
  9 18  1  0  0  0  0
  9 19  1  0  0  0  0
 10 20  1  0  0  0  0
 10 21  1  0  0  0  0
 10 22  1  0  0  0  0
 11 23  1  0  0  0  0
 11 24  1  0  0  0  0
 11 25  1  0  0  0  0
 12 26  1  0  0  0  0
 12 27  1  0  0  0  0
 12 28  1  0  0  0  0
M  END
> <PUBCHEM_COMPOUND_CID>
101807

> <PUBCHEM_CONFORMER_RMSD>
0.6

> <PUBCHEM_CONFORMER_DIVERSEORDER>
1
4
3
2
5

> <PUBCHEM_MMFF94_PARTIAL_CHARGES>
10
1 -0.65
13 0.66
14 0.66
2 -0.65
29 0.5
3 -0.57
30 0.5
4 -0.57
6 0.06
7 0.06

> <PUBCHEM_EFFECTIVE_ROTOR_COUNT>
3

> <PUBCHEM_PHARMACOPHORE_FEATURES>
8
1 1 acceptor
1 2 acceptor
1 3 acceptor
1 4 acceptor
3 1 3 13 anion
3 2 4 14 anion
3 5 10 11 hydrophobe
5 5 6 7 8 9 rings

> <PUBCHEM_HEAVY_ATOM_COUNT>
14

> <PUBCHEM_ATOM_DEF_STEREO_COUNT>
2

> <PUBCHEM_ATOM_UDEF_STEREO_COUNT>
0

> <PUBCHEM_BOND_DEF_STEREO_COUNT>
0

> <PUBCHEM_BOND_UDEF_STEREO_COUNT>
0

> <PUBCHEM_ISOTOPIC_ATOM_COUNT>
0

> <PUBCHEM_COMPONENT_COUNT>
1

> <PUBCHEM_CACTVS_TAUTO_COUNT>
1

> <PUBCHEM_CONFORMER_ID>
00018DAF00000001

> <PUBCHEM_MMFF94_ENERGY>
46.2842

> <PUBCHEM_FEATURE_SELFOVERLAP>
40.709

> <PUBCHEM_SHAPE_FINGERPRINT>
10219947 1 18409453600077562163
11132069 177 17989196037000885498
11769659 78 16081079377223565634
12382932 28 18337115574808600427
12423570 1 15370730101726215535
13024252 1 14562529565723768926
13172582 1 18410570695406969004
15775835 57 17775569728138410873
16945 1 17489872621996805056
17844478 74 17748547060484167677
207724 885 18335416915090135852
23463225 33 18408041793030521410
23559900 14 17632861958665998944
2748010 2 18124320406368344623
29004967 10 18335147470385308667
369184 2 17821442461065866854
5084963 1 18059291088682501151
528886 8 18410006624277276792
568465 68 18270975625366177675
63268167 104 17917427588508607219
68250623 7 17317344017697473083

> <PUBCHEM_SHAPE_MULTIPOLES>
264.64
4.06
1.7
1.24
1.11
0.02
-0.1
0.2
0.79
0.14
-0.14
-0.53
0.06
-0.05

> <PUBCHEM_SHAPE_SELFOVERLAP>
546.945

> <PUBCHEM_SHAPE_VOLUME>
153.8

> <PUBCHEM_COORDINATE_TYPE>
2
5
10

$$$$
