10084
  -OEChem-11012400593D

 42 44  0     0  0  0  0  0  0999 V2000
    0.0105   -0.0334    2.1957 O   0  0  0  0  0  0  0  0  0  0  0  0
    5.5025   -0.6050   -0.7951 N   0  0  0  0  0  0  0  0  0  0  0  0
   -3.2738   -4.3552   -0.7839 N   0  0  0  0  0  0  0  0  0  0  0  0
   -2.3450    4.9517   -0.7444 N   0  0  0  0  0  0  0  0  0  0  0  0
    0.0540    0.0061    0.7327 C   0  0  0  0  0  0  0  0  0  0  0  0
    1.4816   -0.1540    0.3325 C   0  0  0  0  0  0  0  0  0  0  0  0
   -0.8613   -1.1934    0.3155 C   0  0  0  0  0  0  0  0  0  0  0  0
   -0.6064    1.3674    0.3262 C   0  0  0  0  0  0  0  0  0  0  0  0
    1.8076   -0.8836   -0.8107 C   0  0  0  0  0  0  0  0  0  0  0  0
   -0.9916   -2.2155    1.2021 C   0  0  0  0  0  0  0  0  0  0  0  0
    0.1699    2.2602   -0.3418 C   0  0  0  0  0  0  0  0  0  0  0  0
    2.4909    0.4256    1.1015 C   0  0  0  0  0  0  0  0  0  0  0  0
   -1.4596   -1.1266   -0.9032 C   0  0  0  0  0  0  0  0  0  0  0  0
   -1.9071    1.5558    0.6716 C   0  0  0  0  0  0  0  0  0  0  0  0
    3.1429   -1.0336   -1.1850 C   0  0  0  0  0  0  0  0  0  0  0  0
   -1.8069   -3.2846    0.8303 C   0  0  0  0  0  0  0  0  0  0  0  0
   -0.4178    3.4725   -0.7036 C   0  0  0  0  0  0  0  0  0  0  0  0
    3.8262    0.2756    0.7270 C   0  0  0  0  0  0  0  0  0  0  0  0
   -2.2750   -2.1956   -1.2749 C   0  0  0  0  0  0  0  0  0  0  0  0
   -2.4948    2.7679    0.3097 C   0  0  0  0  0  0  0  0  0  0  0  0
    4.1522   -0.4541   -0.4162 C   0  0  0  0  0  0  0  0  0  0  0  0
   -2.4486   -3.2746   -0.4082 C   0  0  0  0  0  0  0  0  0  0  0  0
   -1.7502    3.7262   -0.3779 C   0  0  0  0  0  0  0  0  0  0  0  0
    1.0668   -1.3420   -1.4544 H   0  0  0  0  0  0  0  0  0  0  0  0
   -0.4873   -2.2697    2.1597 H   0  0  0  0  0  0  0  0  0  0  0  0
    1.2008    2.1091   -0.6314 H   0  0  0  0  0  0  0  0  0  0  0  0
    2.2657    1.0096    1.9898 H   0  0  0  0  0  0  0  0  0  0  0  0
   -1.3209   -0.3105   -1.6033 H   0  0  0  0  0  0  0  0  0  0  0  0
   -2.4936    0.8288    1.2222 H   0  0  0  0  0  0  0  0  0  0  0  0
   -0.1698    0.8565    2.5421 H   0  0  0  0  0  0  0  0  0  0  0  0
    3.3847   -1.6013   -2.0800 H   0  0  0  0  0  0  0  0  0  0  0  0
   -1.9298   -4.1226    1.5117 H   0  0  0  0  0  0  0  0  0  0  0  0
    0.1714    4.2105   -1.2421 H   0  0  0  0  0  0  0  0  0  0  0  0
    4.6035    0.7346    1.3326 H   0  0  0  0  0  0  0  0  0  0  0  0
   -2.7655   -2.1786   -2.2448 H   0  0  0  0  0  0  0  0  0  0  0  0
   -3.5328    2.9555    0.5727 H   0  0  0  0  0  0  0  0  0  0  0  0
    6.2346   -0.1860   -0.2372 H   0  0  0  0  0  0  0  0  0  0  0  0
    5.7396   -1.1349   -1.6231 H   0  0  0  0  0  0  0  0  0  0  0  0
   -3.7384   -4.3487   -1.6822 H   0  0  0  0  0  0  0  0  0  0  0  0
   -3.3993   -5.1382   -0.1564 H   0  0  0  0  0  0  0  0  0  0  0  0
   -3.3107    5.1363   -0.5077 H   0  0  0  0  0  0  0  0  0  0  0  0
   -1.8054    5.6473   -1.2421 H   0  0  0  0  0  0  0  0  0  0  0  0
  1  5  1  0  0  0  0
  1 30  1  0  0  0  0
  2 21  1  0  0  0  0
  2 37  1  0  0  0  0
  2 38  1  0  0  0  0
  3 22  1  0  0  0  0
  3 39  1  0  0  0  0
  3 40  1  0  0  0  0
  4 23  1  0  0  0  0
  4 41  1  0  0  0  0
  4 42  1  0  0  0  0
  5  6  1  0  0  0  0
  5  7  1  0  0  0  0
  5  8  1  0  0  0  0
  6  9  2  0  0  0  0
  6 12  1  0  0  0  0
  7 10  2  0  0  0  0
  7 13  1  0  0  0  0
  8 11  2  0  0  0  0
  8 14  1  0  0  0  0
  9 15  1  0  0  0  0
  9 24  1  0  0  0  0
 10 16  1  0  0  0  0
 10 25  1  0  0  0  0
 11 17  1  0  0  0  0
 11 26  1  0  0  0  0
 12 18  2  0  0  0  0
 12 27  1  0  0  0  0
 13 19  2  0  0  0  0
 13 28  1  0  0  0  0
 14 20  2  0  0  0  0
 14 29  1  0  0  0  0
 15 21  2  0  0  0  0
 15 31  1  0  0  0  0
 16 22  2  0  0  0  0
 16 32  1  0  0  0  0
 17 23  2  0  0  0  0
 17 33  1  0  0  0  0
 18 21  1  0  0  0  0
 18 34  1  0  0  0  0
 19 22  1  0  0  0  0
 19 35  1  0  0  0  0
 20 23  1  0  0  0  0
 20 36  1  0  0  0  0
M  END
> <PUBCHEM_COMPOUND_CID>
10084

> <PUBCHEM_CONFORMER_RMSD>
0.6

> <PUBCHEM_CONFORMER_DIVERSEORDER>
1
2

> <PUBCHEM_MMFF94_PARTIAL_CHARGES>
42
1 -0.68
10 -0.15
11 -0.15
12 -0.15
13 -0.15
14 -0.15
15 -0.15
16 -0.15
17 -0.15
18 -0.15
19 -0.15
2 -0.9
20 -0.15
21 0.1
22 0.1
23 0.1
24 0.15
25 0.15
26 0.15
27 0.15
28 0.15
29 0.15
3 -0.9
30 0.4
31 0.15
32 0.15
33 0.15
34 0.15
35 0.15
36 0.15
37 0.4
38 0.4
39 0.4
4 -0.9
40 0.4
41 0.4
42 0.4
5 0.71
6 -0.14
7 -0.14
8 -0.14
9 -0.15

> <PUBCHEM_EFFECTIVE_ROTOR_COUNT>
3

> <PUBCHEM_PHARMACOPHORE_FEATURES>
11
1 1 acceptor
1 1 donor
1 2 cation
1 2 donor
1 3 cation
1 3 donor
1 4 cation
1 4 donor
6 6 9 12 15 18 21 rings
6 7 10 13 16 19 22 rings
6 8 11 14 17 20 23 rings

> <PUBCHEM_HEAVY_ATOM_COUNT>
23

> <PUBCHEM_ATOM_DEF_STEREO_COUNT>
0

> <PUBCHEM_ATOM_UDEF_STEREO_COUNT>
0

> <PUBCHEM_BOND_DEF_STEREO_COUNT>
0

> <PUBCHEM_BOND_UDEF_STEREO_COUNT>
0

> <PUBCHEM_ISOTOPIC_ATOM_COUNT>
0

> <PUBCHEM_COMPONENT_COUNT>
1

> <PUBCHEM_CACTVS_TAUTO_COUNT>
1

> <PUBCHEM_CONFORMER_ID>
0000276400000001

> <PUBCHEM_MMFF94_ENERGY>
121.6437

> <PUBCHEM_FEATURE_SELFOVERLAP>
55.822

> <PUBCHEM_SHAPE_FINGERPRINT>
10254770 206 17038947244951486278
10411042 1 18194403522594976406
1100329 8 18337105774310578097
11045515 52 18191585461222955494
11488393 25 16893994803948980842
11578080 2 17345748736643817841
116883 192 18341048639623065191
11833330 49 18409164454389572161
12363563 72 18194122047723851722
12532896 13 18194397784486442276
12553582 1 18049180035435671282
12730499 353 17618511978286975545
12788726 201 18334572434383601042
13004483 165 18268138924242955054
13134695 92 17759785336419851702
13681431 1 17906732862058867779
13955234 65 9721080844593028413
14004458 79 18410302427417744692
14508225 48 18268144434347846846
14840074 17 17333067129087157936
14955137 171 17186428587252182528
15131766 46 15071765155615078038
15463212 79 18189332381899211114
17357779 13 18058717138932999094
17539 30 18411976975000151894
1813 80 17912103916437253094
18915476 22 16966334968154009955
19591789 44 18051412864330850091
20101258 96 18192451842416223104
21033648 29 18124593085885860912
21285901 2 18060135444824864727
21304303 282 17832945474327146540
21452121 199 17979346787537392338
21524375 3 17903078832911921392
23114952 82 17469874949751518007
23227448 37 18410580570038566380
23419403 2 17700108174649305369
23557571 272 18266723852872543848
23559900 14 17986675858304727622
25265897 201 17401546581422282188
298252 57 18045789974777900608
3057174 1 17833829369901175749
3729539 64 17262177826151233422
404807 78 17749655330863804357
458136 41 17620763777810198761
46194498 28 17472955768622264039
6138700 20 16824752458032054678
6442390 28 18124316008633517929
6669772 16 17767123099325450766
7364860 26 17328858206711621931
7399639 24 17914319424383519984
81228 2 18411697716242234529
8272917 22 17331405779817963599
84936 31 17190935472191436650
9925002 15 18264507220024614869

> <PUBCHEM_SHAPE_MULTIPOLES>
452.52
6.08
5.72
1.31
9.27
3.51
0.27
-3.07
-1.56
-8.95
-1.55
0.09
-0.4
0.16

> <PUBCHEM_SHAPE_SELFOVERLAP>
1003.589

> <PUBCHEM_SHAPE_VOLUME>
241.6

> <PUBCHEM_COORDINATE_TYPE>
2
5
10

$$$$
