142171
  -OEChem-11012400413D

 23 22  0     0  0  0  0  0  0999 V2000
   -3.2281    1.7260   -0.2312 Cl  0  0  0  0  0  0  0  0  0  0  0  0
   -4.0455   -1.0278    0.2636 Cl  0  0  0  0  0  0  0  0  0  0  0  0
   -0.4175    0.2107    0.4930 O   0  0  0  0  0  0  0  0  0  0  0  0
   -1.4488   -0.9862   -1.1845 O   0  0  0  0  0  0  0  0  0  0  0  0
    3.3657    0.2334    0.3312 C   0  0  0  0  0  0  0  0  0  0  0  0
    1.9356    0.5088    0.8231 C   0  0  0  0  0  0  0  0  0  0  0  0
    0.8554   -0.1262   -0.0445 C   0  0  0  0  0  0  0  0  0  0  0  0
    3.6169   -1.2756    0.2817 C   0  0  0  0  0  0  0  0  0  0  0  0
    3.6377    0.8476   -1.0426 C   0  0  0  0  0  0  0  0  0  0  0  0
   -1.5033   -0.2890   -0.1798 C   0  0  0  0  0  0  0  0  0  0  0  0
   -2.7682    0.1782    0.4900 C   0  0  0  0  0  0  0  0  0  0  0  0
    4.0610    0.6800    1.0528 H   0  0  0  0  0  0  0  0  0  0  0  0
    1.7656    1.5919    0.8766 H   0  0  0  0  0  0  0  0  0  0  0  0
    1.8231    0.1480    1.8538 H   0  0  0  0  0  0  0  0  0  0  0  0
    0.9126    0.2485   -1.0717 H   0  0  0  0  0  0  0  0  0  0  0  0
    0.9487   -1.2167   -0.0499 H   0  0  0  0  0  0  0  0  0  0  0  0
    4.6801   -1.4726    0.1038 H   0  0  0  0  0  0  0  0  0  0  0  0
    3.0614   -1.7667   -0.5236 H   0  0  0  0  0  0  0  0  0  0  0  0
    3.3491   -1.7520    1.2306 H   0  0  0  0  0  0  0  0  0  0  0  0
    3.0494    0.3723   -1.8336 H   0  0  0  0  0  0  0  0  0  0  0  0
    4.6947    0.7335   -1.3073 H   0  0  0  0  0  0  0  0  0  0  0  0
    3.4088    1.9183   -1.0412 H   0  0  0  0  0  0  0  0  0  0  0  0
   -2.6151    0.3039    1.5655 H   0  0  0  0  0  0  0  0  0  0  0  0
  1 11  1  0  0  0  0
  2 11  1  0  0  0  0
  3  7  1  0  0  0  0
  3 10  1  0  0  0  0
  4 10  2  0  0  0  0
  5  6  1  0  0  0  0
  5  8  1  0  0  0  0
  5  9  1  0  0  0  0
  5 12  1  0  0  0  0
  6  7  1  0  0  0  0
  6 13  1  0  0  0  0
  6 14  1  0  0  0  0
  7 15  1  0  0  0  0
  7 16  1  0  0  0  0
  8 17  1  0  0  0  0
  8 18  1  0  0  0  0
  8 19  1  0  0  0  0
  9 20  1  0  0  0  0
  9 21  1  0  0  0  0
  9 22  1  0  0  0  0
 10 11  1  0  0  0  0
 11 23  1  0  0  0  0
M  END
> <PUBCHEM_COMPOUND_CID>
142171

> <PUBCHEM_CONFORMER_RMSD>
0.6

> <PUBCHEM_CONFORMER_DIVERSEORDER>
1
68
2
73
22
57
71
17
44
53
35
51
42
33
52
45
32
56
41
6
26
48
49
59
37
13
28
18
65
21
27
39
43
5
55
40
30
46
4
25
47
62
3
20
8
64
50
38
70
60
24
11
16
69
67
29
15
36
12
54
19
34
23
66
31
63
61
14
72
58
7
9
10

> <PUBCHEM_MMFF94_PARTIAL_CHARGES>
7
1 -0.29
10 0.66
11 0.64
2 -0.29
3 -0.43
4 -0.57
7 0.28

> <PUBCHEM_EFFECTIVE_ROTOR_COUNT>
5

> <PUBCHEM_PHARMACOPHORE_FEATURES>
2
1 4 acceptor
3 5 8 9 hydrophobe

> <PUBCHEM_HEAVY_ATOM_COUNT>
11

> <PUBCHEM_ATOM_DEF_STEREO_COUNT>
0

> <PUBCHEM_ATOM_UDEF_STEREO_COUNT>
0

> <PUBCHEM_BOND_DEF_STEREO_COUNT>
0

> <PUBCHEM_BOND_UDEF_STEREO_COUNT>
0

> <PUBCHEM_ISOTOPIC_ATOM_COUNT>
0

> <PUBCHEM_COMPONENT_COUNT>
1

> <PUBCHEM_CACTVS_TAUTO_COUNT>
1

> <PUBCHEM_CONFORMER_ID>
00022B5B00000001

> <PUBCHEM_MMFF94_ENERGY>
12.5866

> <PUBCHEM_FEATURE_SELFOVERLAP>
10.148

> <PUBCHEM_SHAPE_FINGERPRINT>
10751810 167 18412831274081228712
11062470 55 10087643701761175187
124424 183 18130781218308123352
12932764 1 18131344245718545032
14144814 61 17704075070852439546
14325111 11 18408603651824781906
17834072 33 17967818296635523639
18186145 218 16950562164625830424
190213 19 18186516609518502728
19026448 5 18113338600220575984
19422 9 18259987058865681018
1986462 14 18413671296838609289
20279233 1 15913325801900379038
20645477 70 18341332193691482102
20711983 171 18334579014220802829
20828058 21 18413394245372167588
3248919 1 18040425620822978906

> <PUBCHEM_SHAPE_MULTIPOLES>
218.38
8.42
1.36
0.94
0.79
0.22
-0.13
-0.22
-0.12
-0.63
-0.12
0.24
0.02
-0.32

> <PUBCHEM_SHAPE_SELFOVERLAP>
389.351

> <PUBCHEM_SHAPE_VOLUME>
142.8

> <PUBCHEM_COORDINATE_TYPE>
2
5
10

$$$$
