145596
  -OEChem-11012401083D

 29 31  0     0  0  0  0  0  0999 V2000
   -2.1128   -1.4116   -1.1014 O   0  5  0  0  0  0  0  0  0  0  0  0
   -2.0950   -1.4225    1.1018 O   0  0  0  0  0  0  0  0  0  0  0  0
   -1.7564   -0.9789   -0.0005 N   0  3  0  0  0  0  0  0  0  0  0  0
   -2.2868    2.3571    0.0039 N   0  0  0  0  0  0  0  0  0  0  0  0
    0.0852    0.0738    1.2616 C   0  0  0  0  0  0  0  0  0  0  0  0
    0.0842    0.0770   -1.2616 C   0  0  0  0  0  0  0  0  0  0  0  0
    1.9828    1.1859    0.0004 C   0  0  0  0  0  0  0  0  0  0  0  0
    1.7825   -1.3210   -0.0028 C   0  0  0  0  0  0  0  0  0  0  0  0
   -0.8115    0.1735    0.0004 C   0  0  0  0  0  0  0  0  0  0  0  0
    1.1009    1.2437    1.2625 C   0  0  0  0  0  0  0  0  0  0  0  0
    0.9007   -1.2426    1.2561 C   0  0  0  0  0  0  0  0  0  0  0  0
    1.0996    1.2471   -1.2606 C   0  0  0  0  0  0  0  0  0  0  0  0
    0.8997   -1.2393   -1.2605 C   0  0  0  0  0  0  0  0  0  0  0  0
    2.7641   -0.1380   -0.0017 C   0  0  0  0  0  0  0  0  0  0  0  0
   -1.6373    1.3957    0.0024 C   0  0  0  0  0  0  0  0  0  0  0  0
   -0.5025    0.1362    2.1868 H   0  0  0  0  0  0  0  0  0  0  0  0
   -0.5048    0.1412   -2.1860 H   0  0  0  0  0  0  0  0  0  0  0  0
    2.6848    2.0271    0.0011 H   0  0  0  0  0  0  0  0  0  0  0  0
    2.3437   -2.2621   -0.0042 H   0  0  0  0  0  0  0  0  0  0  0  0
    1.7318    1.1860    2.1587 H   0  0  0  0  0  0  0  0  0  0  0  0
    0.5833    2.2086    1.3138 H   0  0  0  0  0  0  0  0  0  0  0  0
    0.2594   -2.1277    1.3117 H   0  0  0  0  0  0  0  0  0  0  0  0
    1.5363   -1.2803    2.1505 H   0  0  0  0  0  0  0  0  0  0  0  0
    0.5819    2.2121   -1.3087 H   0  0  0  0  0  0  0  0  0  0  0  0
    1.7296    1.1919   -2.1575 H   0  0  0  0  0  0  0  0  0  0  0  0
    1.5340   -1.2753   -2.1558 H   0  0  0  0  0  0  0  0  0  0  0  0
    0.2566   -2.1233   -1.3172 H   0  0  0  0  0  0  0  0  0  0  0  0
    3.4155   -0.1888   -0.8828 H   0  0  0  0  0  0  0  0  0  0  0  0
    3.4164   -0.1912    0.8786 H   0  0  0  0  0  0  0  0  0  0  0  0
  1  3  1  0  0  0  0
  2  3  2  0  0  0  0
  3  9  1  0  0  0  0
  4 15  3  0  0  0  0
  5  9  1  0  0  0  0
  5 10  1  0  0  0  0
  5 11  1  0  0  0  0
  5 16  1  0  0  0  0
  6  9  1  0  0  0  0
  6 12  1  0  0  0  0
  6 13  1  0  0  0  0
  6 17  1  0  0  0  0
  7 10  1  0  0  0  0
  7 12  1  0  0  0  0
  7 14  1  0  0  0  0
  7 18  1  0  0  0  0
  8 11  1  0  0  0  0
  8 13  1  0  0  0  0
  8 14  1  0  0  0  0
  8 19  1  0  0  0  0
  9 15  1  0  0  0  0
 10 20  1  0  0  0  0
 10 21  1  0  0  0  0
 11 22  1  0  0  0  0
 11 23  1  0  0  0  0
 12 24  1  0  0  0  0
 12 25  1  0  0  0  0
 13 26  1  0  0  0  0
 13 27  1  0  0  0  0
 14 28  1  0  0  0  0
 14 29  1  0  0  0  0
M  CHG  2   1  -1   3   1
M  END
> <PUBCHEM_COMPOUND_CID>
145596

> <PUBCHEM_CONFORMER_RMSD>
0.6

> <PUBCHEM_CONFORMER_DIVERSEORDER>
1

> <PUBCHEM_MMFF94_PARTIAL_CHARGES>
6
1 -0.52
15 0.36
2 -0.52
3 0.8
4 -0.56
9 0.44

> <PUBCHEM_EFFECTIVE_ROTOR_COUNT>
2.2

> <PUBCHEM_PHARMACOPHORE_FEATURES>
8
1 1 acceptor
1 1 anion
1 2 acceptor
1 4 acceptor
6 5 6 7 9 10 12 rings
6 5 6 8 9 11 13 rings
6 5 7 8 10 11 14 rings
6 6 7 8 12 13 14 rings

> <PUBCHEM_HEAVY_ATOM_COUNT>
15

> <PUBCHEM_ATOM_DEF_STEREO_COUNT>
0

> <PUBCHEM_ATOM_UDEF_STEREO_COUNT>
0

> <PUBCHEM_BOND_DEF_STEREO_COUNT>
0

> <PUBCHEM_BOND_UDEF_STEREO_COUNT>
0

> <PUBCHEM_ISOTOPIC_ATOM_COUNT>
0

> <PUBCHEM_COMPONENT_COUNT>
1

> <PUBCHEM_CACTVS_TAUTO_COUNT>
1

> <PUBCHEM_CONFORMER_ID>
000238BC00000001

> <PUBCHEM_MMFF94_ENERGY>
40.7606

> <PUBCHEM_FEATURE_SELFOVERLAP>
53.1

> <PUBCHEM_SHAPE_FINGERPRINT>
10702982 57 18189616029791899665
10863032 1 18341609261883495158
10948715 1 18338798884324868428
12138202 97 18270678641220115965
12423570 1 11006465681758752068
12491281 212 17895489058896146476
13024252 1 15651314216821455894
13380536 237 18268974445367993013
144361 1 18343013355042801650
15557651 10 17699583733372692112
15775835 57 17987524890663493232
16945 1 18266741466438388034
20511035 2 18200297836863909780
21501502 16 18411695461263168884
22344851 262 18114473249192234228
23419403 2 16823540026964548280
241688 4 17894907395632988368
2748010 2 18059859428751320310
5084963 1 18340494481573252328
528886 8 17749679471814593064
54276843 12 18044083781776060284
68250623 7 18408603639203623958

> <PUBCHEM_SHAPE_MULTIPOLES>
286.99
3.07
1.96
1.4
0.5
0.29
0
0.17
0
0.74
0
-0.15
-0.16
0

> <PUBCHEM_SHAPE_SELFOVERLAP>
628.814

> <PUBCHEM_SHAPE_VOLUME>
147.4

> <PUBCHEM_COORDINATE_TYPE>
2
5
10

$$$$
