80245
  -OEChem-11012400433D

 10 10  0     0  0  0  0  0  0999 V2000
    0.9145    0.7821    0.0000 C   0  0  0  0  0  0  0  0  0  0  0  0
    0.9145   -0.7821    0.0000 C   0  0  0  0  0  0  0  0  0  0  0  0
   -0.2572    0.0000   -0.0001 C   0  0  0  0  0  0  0  0  0  0  0  0
   -1.5718    0.0000    0.0000 C   0  0  0  0  0  0  0  0  0  0  0  0
    1.1707    1.2882   -0.9197 H   0  0  0  0  0  0  0  0  0  0  0  0
    1.1706    1.2882    0.9197 H   0  0  0  0  0  0  0  0  0  0  0  0
    1.1707   -1.2881    0.9198 H   0  0  0  0  0  0  0  0  0  0  0  0
    1.1708   -1.2881   -0.9197 H   0  0  0  0  0  0  0  0  0  0  0  0
   -2.1281   -0.9304    0.0000 H   0  0  0  0  0  0  0  0  0  0  0  0
   -2.1280    0.9305    0.0000 H   0  0  0  0  0  0  0  0  0  0  0  0
  1  2  1  0  0  0  0
  1  3  1  0  0  0  0
  1  5  1  0  0  0  0
  1  6  1  0  0  0  0
  2  3  1  0  0  0  0
  2  7  1  0  0  0  0
  2  8  1  0  0  0  0
  3  4  2  0  0  0  0
  4  9  1  0  0  0  0
  4 10  1  0  0  0  0
M  END
> <PUBCHEM_COMPOUND_CID>
80245

> <PUBCHEM_CONFORMER_RMSD>
0.4

> <PUBCHEM_CONFORMER_DIVERSEORDER>
1

> <PUBCHEM_MMFF94_PARTIAL_CHARGES>
10
1 -0.16
10 0.15
2 -0.16
3 -0.08
4 -0.3
5 0.1
6 0.1
7 0.1
8 0.1
9 0.15

> <PUBCHEM_EFFECTIVE_ROTOR_COUNT>
0.4

> <PUBCHEM_PHARMACOPHORE_FEATURES>
0

> <PUBCHEM_HEAVY_ATOM_COUNT>
4

> <PUBCHEM_ATOM_DEF_STEREO_COUNT>
0

> <PUBCHEM_ATOM_UDEF_STEREO_COUNT>
0

> <PUBCHEM_BOND_DEF_STEREO_COUNT>
0

> <PUBCHEM_BOND_UDEF_STEREO_COUNT>
0

> <PUBCHEM_ISOTOPIC_ATOM_COUNT>
0

> <PUBCHEM_COMPONENT_COUNT>
1

> <PUBCHEM_CACTVS_TAUTO_COUNT>
1

> <PUBCHEM_CONFORMER_ID>
0001397500000001

> <PUBCHEM_MMFF94_ENERGY>
13.9038

> <PUBCHEM_FEATURE_SELFOVERLAP>
0

> <PUBCHEM_SHAPE_FINGERPRINT>
139733 1 9294700100685649474
20096714 4 18269276926998067401
21015797 1 8790881874047682280
5943 1 15871657871387364926

> <PUBCHEM_SHAPE_MULTIPOLES>
82.32
1.67
0.92
0.62
0.59
0
0
0
0
-0.28
0
0
0
0

> <PUBCHEM_SHAPE_SELFOVERLAP>
152.822

> <PUBCHEM_SHAPE_VOLUME>
53.5

> <PUBCHEM_COORDINATE_TYPE>
2
5
10

$$$$
