123126
  -OEChem-11012401183D

 31 33  0     0  0  0  0  0  0999 V2000
    2.8510   -1.1705    0.0004 O   0  0  0  0  0  0  0  0  0  0  0  0
    0.7398   -0.0529   -0.0068 C   0  0  0  0  0  0  0  0  0  0  0  0
   -1.3756   -1.4303   -0.0034 C   0  0  0  0  0  0  0  0  0  0  0  0
   -1.2985    0.7575   -1.2560 C   0  0  0  0  0  0  0  0  0  0  0  0
   -1.2867    0.7474    1.2666 C   0  0  0  0  0  0  0  0  0  0  0  0
    0.1621   -1.4824   -0.0099 C   0  0  0  0  0  0  0  0  0  0  0  0
    0.2390    0.6967   -1.2574 C   0  0  0  0  0  0  0  0  0  0  0  0
    0.2509    0.6862    1.2542 C   0  0  0  0  0  0  0  0  0  0  0  0
   -1.8610   -0.6745   -1.2525 C   0  0  0  0  0  0  0  0  0  0  0  0
   -1.8501   -0.6843    1.2558 C   0  0  0  0  0  0  0  0  0  0  0  0
   -1.7733    1.4911    0.0105 C   0  0  0  0  0  0  0  0  0  0  0  0
    2.2408   -0.1025   -0.0012 C   0  0  0  0  0  0  0  0  0  0  0  0
    2.9615    1.2185   -0.0003 C   0  0  0  0  0  0  0  0  0  0  0  0
   -1.7809   -2.4482   -0.0057 H   0  0  0  0  0  0  0  0  0  0  0  0
   -1.6494    1.2907   -2.1466 H   0  0  0  0  0  0  0  0  0  0  0  0
   -1.6297    1.2733    2.1646 H   0  0  0  0  0  0  0  0  0  0  0  0
    0.5129   -2.0440    0.8662 H   0  0  0  0  0  0  0  0  0  0  0  0
    0.5066   -2.0367   -0.8931 H   0  0  0  0  0  0  0  0  0  0  0  0
    0.5957    0.2006   -2.1695 H   0  0  0  0  0  0  0  0  0  0  0  0
    0.6216    1.7233   -1.2930 H   0  0  0  0  0  0  0  0  0  0  0  0
    0.6326    1.7130    1.2949 H   0  0  0  0  0  0  0  0  0  0  0  0
    0.6144    0.1830    2.1597 H   0  0  0  0  0  0  0  0  0  0  0  0
   -1.5418   -1.2043   -2.1584 H   0  0  0  0  0  0  0  0  0  0  0  0
   -2.9574   -0.6457   -1.2698 H   0  0  0  0  0  0  0  0  0  0  0  0
   -2.9464   -0.6553    1.2827 H   0  0  0  0  0  0  0  0  0  0  0  0
   -1.5236   -1.2217    2.1547 H   0  0  0  0  0  0  0  0  0  0  0  0
   -1.3922    2.5197    0.0128 H   0  0  0  0  0  0  0  0  0  0  0  0
   -2.8682    1.5575    0.0158 H   0  0  0  0  0  0  0  0  0  0  0  0
    2.7335    1.7980   -0.8956 H   0  0  0  0  0  0  0  0  0  0  0  0
    2.7437    1.7911    0.9021 H   0  0  0  0  0  0  0  0  0  0  0  0
    4.0397    1.0245   -0.0073 H   0  0  0  0  0  0  0  0  0  0  0  0
  1 12  2  0  0  0  0
  2  6  1  0  0  0  0
  2  7  1  0  0  0  0
  2  8  1  0  0  0  0
  2 12  1  0  0  0  0
  3  6  1  0  0  0  0
  3  9  1  0  0  0  0
  3 10  1  0  0  0  0
  3 14  1  0  0  0  0
  4  7  1  0  0  0  0
  4  9  1  0  0  0  0
  4 11  1  0  0  0  0
  4 15  1  0  0  0  0
  5  8  1  0  0  0  0
  5 10  1  0  0  0  0
  5 11  1  0  0  0  0
  5 16  1  0  0  0  0
  6 17  1  0  0  0  0
  6 18  1  0  0  0  0
  7 19  1  0  0  0  0
  7 20  1  0  0  0  0
  8 21  1  0  0  0  0
  8 22  1  0  0  0  0
  9 23  1  0  0  0  0
  9 24  1  0  0  0  0
 10 25  1  0  0  0  0
 10 26  1  0  0  0  0
 11 27  1  0  0  0  0
 11 28  1  0  0  0  0
 12 13  1  0  0  0  0
 13 29  1  0  0  0  0
 13 30  1  0  0  0  0
 13 31  1  0  0  0  0
M  END
> <PUBCHEM_COMPOUND_CID>
123126

> <PUBCHEM_CONFORMER_RMSD>
0.6

> <PUBCHEM_CONFORMER_DIVERSEORDER>
1

> <PUBCHEM_MMFF94_PARTIAL_CHARGES>
4
1 -0.57
12 0.45
13 0.06
2 0.06

> <PUBCHEM_EFFECTIVE_ROTOR_COUNT>
2.2

> <PUBCHEM_PHARMACOPHORE_FEATURES>
5
1 1 acceptor
6 2 3 4 6 7 9 rings
6 2 3 5 6 8 10 rings
6 2 4 5 7 8 11 rings
6 3 4 5 9 10 11 rings

> <PUBCHEM_HEAVY_ATOM_COUNT>
13

> <PUBCHEM_ATOM_DEF_STEREO_COUNT>
0

> <PUBCHEM_ATOM_UDEF_STEREO_COUNT>
0

> <PUBCHEM_BOND_DEF_STEREO_COUNT>
0

> <PUBCHEM_BOND_UDEF_STEREO_COUNT>
0

> <PUBCHEM_ISOTOPIC_ATOM_COUNT>
0

> <PUBCHEM_COMPONENT_COUNT>
1

> <PUBCHEM_CACTVS_TAUTO_COUNT>
2

> <PUBCHEM_CONFORMER_ID>
0001E0F600000001

> <PUBCHEM_MMFF94_ENERGY>
33.1858

> <PUBCHEM_FEATURE_SELFOVERLAP>
37.917

> <PUBCHEM_SHAPE_FINGERPRINT>
10702982 57 17914331273538834729
12423570 1 8780742568995998601
12491281 212 18261107422459816228
13024252 1 13839983317719013093
14817 1 13157122207073843337
15557651 10 17315913269596789221
16945 1 18194682789815454944
19837323 101 17895462631809361013
20525323 117 18114461279128910244
20653085 51 18261384490789369237
2748010 2 18260266339272417598
369184 2 18272934924984783312
5084963 1 18341600512818913438
528886 8 18115574964032543277
535629 181 17131534060158845564

> <PUBCHEM_SHAPE_MULTIPOLES>
261.66
3.41
1.55
1.36
2.77
0.14
0
-0.07
0
-0.15
0
-0.69
-0.21
0

> <PUBCHEM_SHAPE_SELFOVERLAP>
568.434

> <PUBCHEM_SHAPE_VOLUME>
138

> <PUBCHEM_COORDINATE_TYPE>
2
5
10

$$$$
