2723789
  -OEChem-11012400303D

 10  9  0     0  0  0  0  0  0999 V2000
   -1.9629   -0.6129   -0.0001 S   0  0  0  0  0  0  0  0  0  0  0  0
    0.6947   -0.7168    0.0004 N   0  0  0  0  0  0  0  0  0  0  0  0
    1.9597   -0.1583   -0.0002 N   0  0  0  0  0  0  0  0  0  0  0  0
   -0.2577    1.4227    0.0001 N   0  0  0  0  0  0  0  0  0  0  0  0
   -0.4337    0.0653   -0.0002 C   0  0  0  0  0  0  0  0  0  0  0  0
    0.6258   -1.7295    0.0005 H   0  0  0  0  0  0  0  0  0  0  0  0
    2.4466   -0.5303    0.8141 H   0  0  0  0  0  0  0  0  0  0  0  0
    2.4464   -0.5317   -0.8140 H   0  0  0  0  0  0  0  0  0  0  0  0
   -1.0483    2.0583    0.0001 H   0  0  0  0  0  0  0  0  0  0  0  0
    0.6685    1.8367    0.0000 H   0  0  0  0  0  0  0  0  0  0  0  0
  1  5  2  0  0  0  0
  2  3  1  0  0  0  0
  2  5  1  0  0  0  0
  2  6  1  0  0  0  0
  3  7  1  0  0  0  0
  3  8  1  0  0  0  0
  4  5  1  0  0  0  0
  4  9  1  0  0  0  0
  4 10  1  0  0  0  0
M  END
> <PUBCHEM_COMPOUND_CID>
2723789

> <PUBCHEM_CONFORMER_RMSD>
0.4

> <PUBCHEM_CONFORMER_DIVERSEORDER>
1
2
3
4

> <PUBCHEM_MMFF94_PARTIAL_CHARGES>
10
1 -0.38
10 0.37
2 -0.42
3 -0.73
4 -0.8
5 0.5
6 0.37
7 0.36
8 0.36
9 0.37

> <PUBCHEM_EFFECTIVE_ROTOR_COUNT>
1

> <PUBCHEM_PHARMACOPHORE_FEATURES>
4
1 1 acceptor
1 2 donor
1 3 donor
1 4 donor

> <PUBCHEM_HEAVY_ATOM_COUNT>
5

> <PUBCHEM_ATOM_DEF_STEREO_COUNT>
0

> <PUBCHEM_ATOM_UDEF_STEREO_COUNT>
0

> <PUBCHEM_BOND_DEF_STEREO_COUNT>
0

> <PUBCHEM_BOND_UDEF_STEREO_COUNT>
0

> <PUBCHEM_ISOTOPIC_ATOM_COUNT>
0

> <PUBCHEM_COMPONENT_COUNT>
1

> <PUBCHEM_CACTVS_TAUTO_COUNT>
3

> <PUBCHEM_CONFORMER_ID>
00298FCD00000001

> <PUBCHEM_MMFF94_ENERGY>
5.2907

> <PUBCHEM_FEATURE_SELFOVERLAP>
21.845

> <PUBCHEM_SHAPE_FINGERPRINT>
139733 1 9223235147862949955
16714656 1 18343025488346713414
20096714 4 17980484786609648741
21015797 1 9726759800543058067
29004967 10 18408889572161410635
5460574 1 9295296040425335139
5943 1 11573381633819527241

> <PUBCHEM_SHAPE_MULTIPOLES>
91.8
2.36
1.11
0.58
0.01
0.41
0
-0.68
0
-0.04
0
-0.09
-0.02
0

> <PUBCHEM_SHAPE_SELFOVERLAP>
153.023

> <PUBCHEM_SHAPE_VOLUME>
64

> <PUBCHEM_COORDINATE_TYPE>
2
5
10

$$$$
