143861
  -OEChem-11012400423D

 39 39  0     0  0  0  0  0  0999 V2000
    2.0827   -2.9295    0.3183 O   0  5  0  0  0  0  0  0  0  0  0  0
    1.4963    3.2683    0.3204 O   0  5  0  0  0  0  0  0  0  0  0  0
   -3.1081    1.8058    0.3204 O   0  5  0  0  0  0  0  0  0  0  0  0
   -0.0093   -3.5947    0.3186 O   0  0  0  0  0  0  0  0  0  0  0  0
    3.1180    1.7886    0.3200 O   0  0  0  0  0  0  0  0  0  0  0  0
   -3.5786   -0.3384    0.3195 O   0  0  0  0  0  0  0  0  0  0  0  0
    2.7726   -0.7897   -1.9076 O   0  5  0  0  0  0  0  0  0  0  0  0
   -2.0716   -2.0048   -1.9077 O   0  5  0  0  0  0  0  0  0  0  0  0
   -0.7023    2.7941   -1.9081 O   0  5  0  0  0  0  0  0  0  0  0  0
    4.2839   -1.8811   -0.7512 O   0  0  0  0  0  0  0  0  0  0  0  0
   -3.7715   -2.7690   -0.7504 O   0  0  0  0  0  0  0  0  0  0  0  0
   -0.5126    4.6497   -0.7533 O   0  0  0  0  0  0  0  0  0  0  0  0
    2.7467   -0.6026    0.3188 N   0  0  0  0  0  0  0  0  0  0  0  0
   -1.8951   -2.0774    0.3189 N   0  0  0  0  0  0  0  0  0  0  0  0
   -0.8514    2.6802    0.3185 N   0  0  0  0  0  0  0  0  0  0  0  0
    0.8547   -2.6897    0.3183 N   0  3  0  0  0  0  0  0  0  0  0  0
    1.9022    2.0848    0.3198 N   0  3  0  0  0  0  0  0  0  0  0  0
   -2.7567    0.6050    0.3200 N   0  3  0  0  0  0  0  0  0  0  0  0
    3.3020   -1.1326   -0.8427 N   0  3  0  0  0  0  0  0  0  0  0  0
   -2.6325   -2.2927   -0.8426 N   0  3  0  0  0  0  0  0  0  0  0  0
   -0.6700    3.4251   -0.8438 N   0  3  0  0  0  0  0  0  0  0  0  0
    1.3624   -0.2990    0.3189 C   0  0  0  0  0  0  0  0  0  0  0  0
   -0.9402   -1.0304    0.3190 C   0  0  0  0  0  0  0  0  0  0  0  0
   -0.4224    1.3295    0.3198 C   0  0  0  0  0  0  0  0  0  0  0  0
    0.4222   -1.3294    0.3187 C   0  0  0  0  0  0  0  0  0  0  0  0
    0.9401    1.0304    0.3195 C   0  0  0  0  0  0  0  0  0  0  0  0
   -1.3625    0.2991    0.3196 C   0  0  0  0  0  0  0  0  0  0  0  0
    3.4441   -0.7562    1.5872 C   0  0  0  0  0  0  0  0  0  0  0  0
   -2.3762   -2.6055    1.5870 C   0  0  0  0  0  0  0  0  0  0  0  0
   -1.0670    3.3621    1.5863 C   0  0  0  0  0  0  0  0  0  0  0  0
    4.5081   -0.5154    1.4788 H   0  0  0  0  0  0  0  0  0  0  0  0
    3.3673   -1.7700    1.9916 H   0  0  0  0  0  0  0  0  0  0  0  0
    3.0423   -0.0734    2.3455 H   0  0  0  0  0  0  0  0  0  0  0  0
   -3.2158   -2.0325    1.9920 H   0  0  0  0  0  0  0  0  0  0  0  0
   -1.5838   -2.5993    2.3450 H   0  0  0  0  0  0  0  0  0  0  0  0
   -2.6995   -3.6473    1.4780 H   0  0  0  0  0  0  0  0  0  0  0  0
   -1.4572    2.6734    2.3452 H   0  0  0  0  0  0  0  0  0  0  0  0
   -1.8076    4.1629    1.4771 H   0  0  0  0  0  0  0  0  0  0  0  0
   -0.1507    3.8031    1.9903 H   0  0  0  0  0  0  0  0  0  0  0  0
  1 16  1  0  0  0  0
  2 17  1  0  0  0  0
  3 18  1  0  0  0  0
  4 16  2  0  0  0  0
  5 17  2  0  0  0  0
  6 18  2  0  0  0  0
  7 19  1  0  0  0  0
  8 20  1  0  0  0  0
  9 21  1  0  0  0  0
 10 19  2  0  0  0  0
 11 20  2  0  0  0  0
 12 21  2  0  0  0  0
 13 19  1  0  0  0  0
 13 22  1  0  0  0  0
 13 28  1  0  0  0  0
 14 20  1  0  0  0  0
 14 23  1  0  0  0  0
 14 29  1  0  0  0  0
 15 21  1  0  0  0  0
 15 24  1  0  0  0  0
 15 30  1  0  0  0  0
 16 25  1  0  0  0  0
 17 26  1  0  0  0  0
 18 27  1  0  0  0  0
 22 25  2  0  0  0  0
 22 26  1  0  0  0  0
 23 25  1  0  0  0  0
 23 27  2  0  0  0  0
 24 26  2  0  0  0  0
 24 27  1  0  0  0  0
 28 31  1  0  0  0  0
 28 32  1  0  0  0  0
 28 33  1  0  0  0  0
 29 34  1  0  0  0  0
 29 35  1  0  0  0  0
 29 36  1  0  0  0  0
 30 37  1  0  0  0  0
 30 38  1  0  0  0  0
 30 39  1  0  0  0  0
M  CHG  8   1  -1   2  -1   3  -1   7  -1   8  -1   9  -1  16   1  17   1
M  CHG  4  18   1  19   1  20   1  21   1
M  END
> <PUBCHEM_COMPOUND_CID>
143861

> <PUBCHEM_CONFORMER_RMSD>
1

> <PUBCHEM_CONFORMER_DIVERSEORDER>
1
2

> <PUBCHEM_MMFF94_PARTIAL_CHARGES>
30
1 -0.52
10 -0.52
11 -0.52
12 -0.52
13 -0.47
14 -0.47
15 -0.47
16 0.91
17 0.91
18 0.91
19 1.04
2 -0.52
20 1.04
21 1.04
22 0.1
23 0.1
24 0.1
25 0.13
26 0.13
27 0.13
28 0.37
29 0.37
3 -0.52
30 0.37
4 -0.52
5 -0.52
6 -0.52
7 -0.52
8 -0.52
9 -0.52

> <PUBCHEM_EFFECTIVE_ROTOR_COUNT>
9

> <PUBCHEM_PHARMACOPHORE_FEATURES>
16
1 1 acceptor
1 1 anion
1 10 acceptor
1 11 acceptor
1 12 acceptor
1 2 acceptor
1 2 anion
1 3 acceptor
1 3 anion
1 4 acceptor
1 5 acceptor
1 6 acceptor
1 7 acceptor
1 8 acceptor
1 9 acceptor
6 22 23 24 25 26 27 rings

> <PUBCHEM_HEAVY_ATOM_COUNT>
30

> <PUBCHEM_ATOM_DEF_STEREO_COUNT>
0

> <PUBCHEM_ATOM_UDEF_STEREO_COUNT>
0

> <PUBCHEM_BOND_DEF_STEREO_COUNT>
0

> <PUBCHEM_BOND_UDEF_STEREO_COUNT>
0

> <PUBCHEM_ISOTOPIC_ATOM_COUNT>
0

> <PUBCHEM_COMPONENT_COUNT>
1

> <PUBCHEM_CACTVS_TAUTO_COUNT>
1

> <PUBCHEM_CONFORMER_ID>
000231F500000001

> <PUBCHEM_MMFF94_ENERGY>
232.4268

> <PUBCHEM_FEATURE_SELFOVERLAP>
81.734

> <PUBCHEM_SHAPE_FINGERPRINT>
10411042 1 18410577322610942666
10967382 1 18410575110438164265
1100329 8 18412547583006869201
11578080 2 17274239738984622107
12160290 23 18266740177563025832
12553582 1 18337108973407138115
13140716 1 18410855485897966219
13583140 156 15725892913390794376
13681431 1 18122626316632077210
14790565 3 18123211029465375632
16752209 62 18047464530707265824
16945 1 18338799992120144699
19591789 44 17691411806504319971
20600515 1 18266163110421705730
20691752 17 18260263083492171338
20739085 24 18192739892803098643
20905425 154 18270124654932214420
21524375 3 17761779459786833475
22907989 373 18117282445319039260
23184049 29 18410007737143214184
2334 1 18266459995371471171
23419403 2 17268017662786062633
23559900 14 17840028439184464478
238 59 15950457082411774717
2748010 2 18337952410373232362
352729 6 17185595711140397401
6443956 14 18267582592923333573
81228 2 18410575050303341026

> <PUBCHEM_SHAPE_MULTIPOLES>
502.13
5.32
5.32
1.35
2.1
3.2
-0.29
-3.2
-0.35
-2.1
-0.35
0
0
0

> <PUBCHEM_SHAPE_SELFOVERLAP>
1083.133

> <PUBCHEM_SHAPE_VOLUME>
273.2

> <PUBCHEM_COORDINATE_TYPE>
2
5
10

$$$$
