143124
  -OEChem-11012400463D

 21 20  0     0  0  0  0  0  0999 V2000
    2.1234   -0.5733   -0.4188 O   0  0  0  0  0  0  0  0  0  0  0  0
   -0.1461    0.0988   -0.2289 O   0  0  0  0  0  0  0  0  0  0  0  0
   -1.8771   -1.3248    0.3183 O   0  0  0  0  0  0  0  0  0  0  0  0
   -2.2996    1.0164   -0.1820 C   0  0  0  0  0  0  0  0  0  0  0  0
    2.6107    0.4298    0.4628 C   0  0  0  0  0  0  0  0  0  0  0  0
    0.7938   -0.9783   -0.0912 C   0  0  0  0  0  0  0  0  0  0  0  0
   -1.4530   -0.2204    0.0067 C   0  0  0  0  0  0  0  0  0  0  0  0
   -3.7710    0.7471    0.0804 C   0  0  0  0  0  0  0  0  0  0  0  0
    4.0188    0.8047    0.0528 C   0  0  0  0  0  0  0  0  0  0  0  0
   -2.1730    1.3693   -1.2109 H   0  0  0  0  0  0  0  0  0  0  0  0
   -1.9443    1.7884    0.5087 H   0  0  0  0  0  0  0  0  0  0  0  0
    1.9720    1.3184    0.4149 H   0  0  0  0  0  0  0  0  0  0  0  0
    2.6136    0.0488    1.4901 H   0  0  0  0  0  0  0  0  0  0  0  0
    0.7715   -1.3686    0.9333 H   0  0  0  0  0  0  0  0  0  0  0  0
    0.5223   -1.7804   -0.7856 H   0  0  0  0  0  0  0  0  0  0  0  0
   -3.9296    0.3951    1.1051 H   0  0  0  0  0  0  0  0  0  0  0  0
   -4.3571    1.6601   -0.0625 H   0  0  0  0  0  0  0  0  0  0  0  0
   -4.1582   -0.0184   -0.6003 H   0  0  0  0  0  0  0  0  0  0  0  0
    4.4264    1.5753    0.7131 H   0  0  0  0  0  0  0  0  0  0  0  0
    4.6757   -0.0709    0.0842 H   0  0  0  0  0  0  0  0  0  0  0  0
    4.0345    1.1774   -0.9768 H   0  0  0  0  0  0  0  0  0  0  0  0
  1  5  1  0  0  0  0
  1  6  1  0  0  0  0
  2  6  1  0  0  0  0
  2  7  1  0  0  0  0
  3  7  2  0  0  0  0
  4  7  1  0  0  0  0
  4  8  1  0  0  0  0
  4 10  1  0  0  0  0
  4 11  1  0  0  0  0
  5  9  1  0  0  0  0
  5 12  1  0  0  0  0
  5 13  1  0  0  0  0
  6 14  1  0  0  0  0
  6 15  1  0  0  0  0
  8 16  1  0  0  0  0
  8 17  1  0  0  0  0
  8 18  1  0  0  0  0
  9 19  1  0  0  0  0
  9 20  1  0  0  0  0
  9 21  1  0  0  0  0
M  END
> <PUBCHEM_COMPOUND_CID>
143124

> <PUBCHEM_CONFORMER_RMSD>
0.6

> <PUBCHEM_CONFORMER_DIVERSEORDER>
1
57
17
80
15
4
78
49
42
82
66
75
37
54
30
59
14
45
25
23
38
56
22
51
5
83
79
29
3
32
19
68
70
35
62
8
44
65
76
43
24
41
81
69
13
26
77
74
2
12
9
55
36
53
18
73
46
7
52
60
28
61
67
20
11
71
33
63
16
6
10
58
31
21
50
27
64
47
39
72
40
34
48

> <PUBCHEM_MMFF94_PARTIAL_CHARGES>
7
1 -0.56
2 -0.43
3 -0.57
4 0.06
5 0.28
6 0.56
7 0.66

> <PUBCHEM_EFFECTIVE_ROTOR_COUNT>
5

> <PUBCHEM_PHARMACOPHORE_FEATURES>
3
1 1 acceptor
1 3 acceptor
1 8 hydrophobe

> <PUBCHEM_HEAVY_ATOM_COUNT>
9

> <PUBCHEM_ATOM_DEF_STEREO_COUNT>
0

> <PUBCHEM_ATOM_UDEF_STEREO_COUNT>
0

> <PUBCHEM_BOND_DEF_STEREO_COUNT>
0

> <PUBCHEM_BOND_UDEF_STEREO_COUNT>
0

> <PUBCHEM_ISOTOPIC_ATOM_COUNT>
0

> <PUBCHEM_COMPONENT_COUNT>
1

> <PUBCHEM_CACTVS_TAUTO_COUNT>
1

> <PUBCHEM_CONFORMER_ID>
00022F1400000001

> <PUBCHEM_MMFF94_ENERGY>
6.4136

> <PUBCHEM_FEATURE_SELFOVERLAP>
15.223

> <PUBCHEM_SHAPE_FINGERPRINT>
11062470 55 18410011031029806021
12932764 1 16877933941269918158
14325111 11 18409729573517853106
14390081 3 18342174444861331185
170605 34 18410573955318951122
177051 138 7997965778043064160
20645464 45 18410578370471478351
21119208 17 14908180850120450968
21293036 1 16056874745223819129
22485316 2 8646767781320570064
23500284 214 18411707560513232593
6333449 129 18411978091981786023

> <PUBCHEM_SHAPE_MULTIPOLES>
167.61
6.84
1.18
0.64
2.03
0.14
-0.01
-2.81
-0.32
-0.26
-0.03
0.06
-0.01
0.21

> <PUBCHEM_SHAPE_SELFOVERLAP>
302.4

> <PUBCHEM_SHAPE_VOLUME>
107.3

> <PUBCHEM_COORDINATE_TYPE>
2
5
10

$$$$
