64386
  -OEChem-11012401143D

 28 30  0     0  0  0  0  0  0999 V2000
   -2.6465   -1.0992    0.0768 O   0  5  0  0  0  0  0  0  0  0  0  0
   -2.6330    1.1041    0.0770 O   0  0  0  0  0  0  0  0  0  0  0  0
   -2.1343   -0.0006   -0.1874 N   0  3  0  0  0  0  0  0  0  0  0  0
   -0.0297   -1.2666   -0.4532 C   0  0  0  0  0  0  0  0  0  0  0  0
   -0.0298    1.2599   -0.4688 C   0  0  0  0  0  0  0  0  0  0  0  0
    0.8696    0.0091    1.5371 C   0  0  0  0  0  0  0  0  0  0  0  0
    2.1539   -0.0044   -0.6301 C   0  0  0  0  0  0  0  0  0  0  0  0
   -0.8129   -0.0058   -0.8518 C   0  0  0  0  0  0  0  0  0  0  0  0
    0.1111   -1.2546    1.0839 C   0  0  0  0  0  0  0  0  0  0  0  0
    1.3848   -1.2616   -1.0699 C   0  0  0  0  0  0  0  0  0  0  0  0
    0.1111    1.2671    1.0683 C   0  0  0  0  0  0  0  0  0  0  0  0
    1.3847    1.2474   -1.0854 C   0  0  0  0  0  0  0  0  0  0  0  0
    2.2711    0.0052    0.9036 C   0  0  0  0  0  0  0  0  0  0  0  0
   -0.5489   -2.1793   -0.7696 H   0  0  0  0  0  0  0  0  0  0  0  0
   -0.5483    2.1688   -0.7969 H   0  0  0  0  0  0  0  0  0  0  0  0
    0.9616    0.0159    2.6290 H   0  0  0  0  0  0  0  0  0  0  0  0
    3.1540   -0.0071   -1.0775 H   0  0  0  0  0  0  0  0  0  0  0  0
   -1.0206   -0.0123   -1.9285 H   0  0  0  0  0  0  0  0  0  0  0  0
    0.6761   -2.1430    1.3967 H   0  0  0  0  0  0  0  0  0  0  0  0
   -0.8423   -1.3227    1.6152 H   0  0  0  0  0  0  0  0  0  0  0  0
    1.3088   -1.2878   -2.1639 H   0  0  0  0  0  0  0  0  0  0  0  0
    1.9312   -2.1626   -0.7655 H   0  0  0  0  0  0  0  0  0  0  0  0
   -0.8407    1.3426    1.6012 H   0  0  0  0  0  0  0  0  0  0  0  0
    0.6771    2.1590    1.3693 H   0  0  0  0  0  0  0  0  0  0  0  0
    1.9311    2.1522   -0.7921 H   0  0  0  0  0  0  0  0  0  0  0  0
    1.3087    1.2602   -2.1796 H   0  0  0  0  0  0  0  0  0  0  0  0
    2.8338    0.8881    1.2311 H   0  0  0  0  0  0  0  0  0  0  0  0
    2.8338   -0.8736    1.2420 H   0  0  0  0  0  0  0  0  0  0  0  0
  1  3  1  0  0  0  0
  2  3  2  0  0  0  0
  3  8  1  0  0  0  0
  4  8  1  0  0  0  0
  4  9  1  0  0  0  0
  4 10  1  0  0  0  0
  4 14  1  0  0  0  0
  5  8  1  0  0  0  0
  5 11  1  0  0  0  0
  5 12  1  0  0  0  0
  5 15  1  0  0  0  0
  6  9  1  0  0  0  0
  6 11  1  0  0  0  0
  6 13  1  0  0  0  0
  6 16  1  0  0  0  0
  7 10  1  0  0  0  0
  7 12  1  0  0  0  0
  7 13  1  0  0  0  0
  7 17  1  0  0  0  0
  8 18  1  0  0  0  0
  9 19  1  0  0  0  0
  9 20  1  0  0  0  0
 10 21  1  0  0  0  0
 10 22  1  0  0  0  0
 11 23  1  0  0  0  0
 11 24  1  0  0  0  0
 12 25  1  0  0  0  0
 12 26  1  0  0  0  0
 13 27  1  0  0  0  0
 13 28  1  0  0  0  0
M  CHG  2   1  -1   3   1
M  END
> <PUBCHEM_COMPOUND_CID>
64386

> <PUBCHEM_CONFORMER_RMSD>
0.6

> <PUBCHEM_CONFORMER_DIVERSEORDER>
1

> <PUBCHEM_MMFF94_PARTIAL_CHARGES>
4
1 -0.52
2 -0.52
3 0.8
8 0.24

> <PUBCHEM_EFFECTIVE_ROTOR_COUNT>
2.2

> <PUBCHEM_PHARMACOPHORE_FEATURES>
7
1 1 acceptor
1 1 anion
1 2 acceptor
6 4 5 6 8 9 11 rings
6 4 5 7 8 10 12 rings
6 4 6 7 9 10 13 rings
6 5 6 7 11 12 13 rings

> <PUBCHEM_HEAVY_ATOM_COUNT>
13

> <PUBCHEM_ATOM_DEF_STEREO_COUNT>
0

> <PUBCHEM_ATOM_UDEF_STEREO_COUNT>
0

> <PUBCHEM_BOND_DEF_STEREO_COUNT>
0

> <PUBCHEM_BOND_UDEF_STEREO_COUNT>
0

> <PUBCHEM_ISOTOPIC_ATOM_COUNT>
0

> <PUBCHEM_COMPONENT_COUNT>
1

> <PUBCHEM_CACTVS_TAUTO_COUNT>
2

> <PUBCHEM_CONFORMER_ID>
0000FB8200000001

> <PUBCHEM_MMFF94_ENERGY>
36.839

> <PUBCHEM_FEATURE_SELFOVERLAP>
48.129

> <PUBCHEM_SHAPE_FINGERPRINT>
12423570 1 16246058567277736686
13024252 1 15511951581767684532
144361 1 18338536186865703940
15557651 10 18126537150896330056
15775835 57 17095527304996194109
16945 1 18410857663567704142
23419403 2 16760247460666712562
241688 4 17905059049184997196
2748010 2 18202283554731720303
29004967 10 17704352173515538826
5084963 1 18115573967526270983
528886 8 18410864221887858652
68250623 7 17680153168329203938

> <PUBCHEM_SHAPE_MULTIPOLES>
250.81
2.91
1.52
1.37
1.52
0
0.27
0
-0.13
0.09
-0.11
-0.55
0
0

> <PUBCHEM_SHAPE_SELFOVERLAP>
547.384

> <PUBCHEM_SHAPE_VOLUME>
131

> <PUBCHEM_COORDINATE_TYPE>
2
5
10

$$$$
