137626
  -OEChem-11012401103D

 20 20  0     0  0  0  0  0  0999 V2000
    0.8004   -1.1688    0.0043 S   0  0  0  0  0  0  0  0  0  0  0  0
    1.0697   -1.7800   -1.2726 O   0  0  0  0  0  0  0  0  0  0  0  0
    1.0979   -1.7400    1.2945 O   0  0  0  0  0  0  0  0  0  0  0  0
   -0.7467   -0.3591    0.0016 C   0  0  0  0  0  0  0  0  0  0  0  0
   -1.3657   -0.0415   -1.2073 C   0  0  0  0  0  0  0  0  0  0  0  0
   -1.3631   -0.0290    1.2086 C   0  0  0  0  0  0  0  0  0  0  0  0
   -2.6013    0.6058   -1.2093 C   0  0  0  0  0  0  0  0  0  0  0  0
   -2.5987    0.6184    1.2066 C   0  0  0  0  0  0  0  0  0  0  0  0
   -3.2178    0.9358   -0.0024 C   0  0  0  0  0  0  0  0  0  0  0  0
    2.0605    0.0799   -0.0029 C   0  0  0  0  0  0  0  0  0  0  0  0
    2.9132    0.9247   -0.0077 C   0  0  0  0  0  0  0  0  0  0  0  0
    3.9517    1.9538   -0.0134 C   0  0  0  0  0  0  0  0  0  0  0  0
   -0.9013   -0.2852   -2.1586 H   0  0  0  0  0  0  0  0  0  0  0  0
   -0.8967   -0.2631    2.1613 H   0  0  0  0  0  0  0  0  0  0  0  0
   -3.0829    0.8543   -2.1505 H   0  0  0  0  0  0  0  0  0  0  0  0
   -3.0783    0.8765    2.1462 H   0  0  0  0  0  0  0  0  0  0  0  0
   -4.1795    1.4404   -0.0040 H   0  0  0  0  0  0  0  0  0  0  0  0
    4.2481    2.2133    1.0074 H   0  0  0  0  0  0  0  0  0  0  0  0
    4.8413    1.6062   -0.5471 H   0  0  0  0  0  0  0  0  0  0  0  0
    3.5951    2.8640   -0.5049 H   0  0  0  0  0  0  0  0  0  0  0  0
  1  2  2  0  0  0  0
  1  3  2  0  0  0  0
  1  4  1  0  0  0  0
  1 10  1  0  0  0  0
  4  5  2  0  0  0  0
  4  6  1  0  0  0  0
  5  7  1  0  0  0  0
  5 13  1  0  0  0  0
  6  8  2  0  0  0  0
  6 14  1  0  0  0  0
  7  9  2  0  0  0  0
  7 15  1  0  0  0  0
  8  9  1  0  0  0  0
  8 16  1  0  0  0  0
  9 17  1  0  0  0  0
 10 11  3  0  0  0  0
 11 12  1  0  0  0  0
 12 18  1  0  0  0  0
 12 19  1  0  0  0  0
 12 20  1  0  0  0  0
M  END
> <PUBCHEM_COMPOUND_CID>
137626

> <PUBCHEM_CONFORMER_RMSD>
0.4

> <PUBCHEM_CONFORMER_DIVERSEORDER>
1

> <PUBCHEM_MMFF94_PARTIAL_CHARGES>
17
1 1.39
10 -0.08
11 -0.2
12 0.2
13 0.15
14 0.15
15 0.15
16 0.15
17 0.15
2 -0.65
3 -0.65
4 -0.01
5 -0.15
6 -0.15
7 -0.15
8 -0.15
9 -0.15

> <PUBCHEM_EFFECTIVE_ROTOR_COUNT>
1

> <PUBCHEM_PHARMACOPHORE_FEATURES>
4
1 12 hydrophobe
1 2 acceptor
1 3 acceptor
6 4 5 6 7 8 9 rings

> <PUBCHEM_HEAVY_ATOM_COUNT>
12

> <PUBCHEM_ATOM_DEF_STEREO_COUNT>
0

> <PUBCHEM_ATOM_UDEF_STEREO_COUNT>
0

> <PUBCHEM_BOND_DEF_STEREO_COUNT>
0

> <PUBCHEM_BOND_UDEF_STEREO_COUNT>
0

> <PUBCHEM_ISOTOPIC_ATOM_COUNT>
0

> <PUBCHEM_COMPONENT_COUNT>
1

> <PUBCHEM_CACTVS_TAUTO_COUNT>
1

> <PUBCHEM_CONFORMER_ID>
0002199A00000001

> <PUBCHEM_MMFF94_ENERGY>
16.3842

> <PUBCHEM_FEATURE_SELFOVERLAP>
20.311

> <PUBCHEM_SHAPE_FINGERPRINT>
10465860 71 14764350448477891064
10857977 72 16515983488087437733
11127187 94 13470417685520650965
12251169 10 15574712521371748804
12326174 3 18265614269272476746
12932764 1 17896893062351743619
13571099 52 18113614581934089076
15775835 57 18412539946597390028
170605 34 18412267224605500138
18186145 218 18343591758874330892
19786989 88 18340199696419090511
20645464 45 17603868875410729721
20645476 183 17346311575365984293
20653085 51 18129673014167511660
20711985 344 11382738596969886170
21499 59 18272369806241799580
21524375 3 18339076103120506770
23402539 116 12901809646201878735
23552423 10 17273133484469154903
27216 239 17823981345105215592
2748010 2 14854125401546032251
3248919 1 17987506023215209183
369184 2 17968939678526869139
8030462 33 16701727251484844703
81228 2 17538575704804345586

> <PUBCHEM_SHAPE_MULTIPOLES>
239.07
5.68
1.68
1.31
2.87
0.28
-0.01
-4.21
0.02
1.47
0.01
-0.76
0.23
-0.01

> <PUBCHEM_SHAPE_SELFOVERLAP>
476.874

> <PUBCHEM_SHAPE_VOLUME>
140.3

> <PUBCHEM_COORDINATE_TYPE>
2
5
10

$$$$
