138362
  -OEChem-11012401183D

 27 27  0     1  0  0  0  0  0999 V2000
   -1.3538    0.7419    1.1061 O   0  0  0  0  0  0  0  0  0  0  0  0
    0.1044   -0.7540   -0.0205 O   0  0  0  0  0  0  0  0  0  0  0  0
    3.5578    0.3503    0.1963 O   0  0  0  0  0  0  0  0  0  0  0  0
   -2.2342   -1.3233    0.1608 C   0  0  0  0  0  0  0  0  0  0  0  0
   -2.7262   -0.5589   -1.0651 C   0  0  0  0  0  0  0  0  0  0  0  0
   -1.0433   -0.6224    0.8131 C   0  0  2  0  0  0  0  0  0  0  0  0
   -2.9569    0.9065   -0.7177 C   0  0  0  0  0  0  0  0  0  0  0  0
   -1.7266    1.4988   -0.0452 C   0  0  0  0  0  0  0  0  0  0  0  0
    1.2363   -0.1147    0.5507 C   0  0  0  0  0  0  0  0  0  0  0  0
    2.4288   -0.3076   -0.3660 C   0  0  0  0  0  0  0  0  0  0  0  0
    4.7137    0.1834   -0.6125 C   0  0  0  0  0  0  0  0  0  0  0  0
   -3.0566   -1.3799    0.8847 H   0  0  0  0  0  0  0  0  0  0  0  0
   -1.9671   -2.3451   -0.1308 H   0  0  0  0  0  0  0  0  0  0  0  0
   -3.6527   -1.0072   -1.4405 H   0  0  0  0  0  0  0  0  0  0  0  0
   -1.9841   -0.6330   -1.8693 H   0  0  0  0  0  0  0  0  0  0  0  0
   -0.8326   -1.1218    1.7663 H   0  0  0  0  0  0  0  0  0  0  0  0
   -3.2111    1.4763   -1.6175 H   0  0  0  0  0  0  0  0  0  0  0  0
   -3.8093    0.9739   -0.0307 H   0  0  0  0  0  0  0  0  0  0  0  0
   -0.8846    1.5560   -0.7443 H   0  0  0  0  0  0  0  0  0  0  0  0
   -1.9421    2.5196    0.2865 H   0  0  0  0  0  0  0  0  0  0  0  0
    1.0616    0.9586    0.6877 H   0  0  0  0  0  0  0  0  0  0  0  0
    1.4552   -0.5418    1.5370 H   0  0  0  0  0  0  0  0  0  0  0  0
    2.2084    0.1048   -1.3581 H   0  0  0  0  0  0  0  0  0  0  0  0
    2.6358   -1.3777   -0.4885 H   0  0  0  0  0  0  0  0  0  0  0  0
    5.5459    0.7092   -0.1368 H   0  0  0  0  0  0  0  0  0  0  0  0
    4.5521    0.6124   -1.6062 H   0  0  0  0  0  0  0  0  0  0  0  0
    4.9732   -0.8763   -0.6969 H   0  0  0  0  0  0  0  0  0  0  0  0
  1  6  1  0  0  0  0
  1  8  1  0  0  0  0
  2  6  1  0  0  0  0
  2  9  1  0  0  0  0
  3 10  1  0  0  0  0
  3 11  1  0  0  0  0
  4  5  1  0  0  0  0
  4  6  1  0  0  0  0
  4 12  1  0  0  0  0
  4 13  1  0  0  0  0
  5  7  1  0  0  0  0
  5 14  1  0  0  0  0
  5 15  1  0  0  0  0
  6 16  1  0  0  0  0
  7  8  1  0  0  0  0
  7 17  1  0  0  0  0
  7 18  1  0  0  0  0
  8 19  1  0  0  0  0
  8 20  1  0  0  0  0
  9 10  1  0  0  0  0
  9 21  1  0  0  0  0
  9 22  1  0  0  0  0
 10 23  1  0  0  0  0
 10 24  1  0  0  0  0
 11 25  1  0  0  0  0
 11 26  1  0  0  0  0
 11 27  1  0  0  0  0
M  END
> <PUBCHEM_COMPOUND_CID>
138362

> <PUBCHEM_CONFORMER_RMSD>
0.6

> <PUBCHEM_CONFORMER_DIVERSEORDER>
9
60
68
69
46
55
21
17
62
26
38
6
51
39
53
59
66
3
76
47
36
63
80
74
75
20
54
25
50
44
57
4
8
42
1
16
32
15
79
52
35
40
13
22
19
37
34
31
71
18
70
12
29
7
27
33
41
58
49
5
64
14
67
28
61
45
43
24
23
73
56
78
30
11
65
48
72
2
77
10

> <PUBCHEM_MMFF94_PARTIAL_CHARGES>
8
1 -0.56
10 0.28
11 0.28
2 -0.56
3 -0.56
6 0.56
8 0.28
9 0.28

> <PUBCHEM_EFFECTIVE_ROTOR_COUNT>
5.2

> <PUBCHEM_PHARMACOPHORE_FEATURES>
4
1 1 acceptor
1 2 acceptor
1 3 acceptor
6 1 4 5 6 7 8 rings

> <PUBCHEM_HEAVY_ATOM_COUNT>
11

> <PUBCHEM_ATOM_DEF_STEREO_COUNT>
0

> <PUBCHEM_ATOM_UDEF_STEREO_COUNT>
1

> <PUBCHEM_BOND_DEF_STEREO_COUNT>
0

> <PUBCHEM_BOND_UDEF_STEREO_COUNT>
0

> <PUBCHEM_ISOTOPIC_ATOM_COUNT>
0

> <PUBCHEM_COMPONENT_COUNT>
1

> <PUBCHEM_CACTVS_TAUTO_COUNT>
1

> <PUBCHEM_CONFORMER_ID>
00021C7A00000009

> <PUBCHEM_MMFF94_ENERGY>
18.331

> <PUBCHEM_FEATURE_SELFOVERLAP>
20.333

> <PUBCHEM_SHAPE_FINGERPRINT>
12251169 10 11025804184288786214
12897270 3 18131340908560623911
12932764 1 17917988378167572170
13024252 1 17676210182435645411
14123260 362 17749682817636509932
14577589 140 11743846862915558875
15775835 57 17821723892913647565
20645464 45 12540693699967580419
20653085 51 17897723159202137927
20828058 44 10015589385389793172
20871999 31 18269820017776833295
21061003 4 16845574270223985003
22485316 2 12463575062845119702
23402539 116 18261105309736826751
3248919 1 17022910055630058026
369184 2 14779266401924597275
528716 315 18344146998780973341

> <PUBCHEM_SHAPE_MULTIPOLES>
208.77
7.02
1.24
0.99
9.82
0.14
-0.01
1
-2.12
-1.09
0.02
-0.37
0.01
-0.03

> <PUBCHEM_SHAPE_SELFOVERLAP>
396.786

> <PUBCHEM_SHAPE_VOLUME>
127.9

> <PUBCHEM_COORDINATE_TYPE>
2
5
10

$$$$
