18048
  -OEChem-11012400583D

 31 31  0     0  0  0  0  0  0999 V2000
    2.5642    1.7912    0.0018 O   0  0  0  0  0  0  0  0  0  0  0  0
    2.1613   -1.0367   -0.0003 C   0  0  0  0  0  0  0  0  0  0  0  0
   -2.7457   -0.1198    0.0001 C   0  0  0  0  0  0  0  0  0  0  0  0
    1.0360   -0.0557    0.0007 C   0  0  0  0  0  0  0  0  0  0  0  0
   -1.3406    0.3797   -0.0002 C   0  0  0  0  0  0  0  0  0  0  0  0
   -0.2780   -0.5240    0.0007 C   0  0  0  0  0  0  0  0  0  0  0  0
    1.2872    1.3165   -0.0002 C   0  0  0  0  0  0  0  0  0  0  0  0
   -1.0894    1.7517   -0.0011 C   0  0  0  0  0  0  0  0  0  0  0  0
    2.1690   -1.9203   -1.2612 C   0  0  0  0  0  0  0  0  0  0  0  0
    2.1699   -1.9219    1.2597 C   0  0  0  0  0  0  0  0  0  0  0  0
   -3.0790   -0.9396    1.2610 C   0  0  0  0  0  0  0  0  0  0  0  0
   -3.0793   -0.9410   -1.2599 C   0  0  0  0  0  0  0  0  0  0  0  0
    0.2244    2.2200   -0.0011 C   0  0  0  0  0  0  0  0  0  0  0  0
    3.1211   -0.5056   -0.0003 H   0  0  0  0  0  0  0  0  0  0  0  0
   -3.4283    0.7410   -0.0003 H   0  0  0  0  0  0  0  0  0  0  0  0
   -0.4759   -1.5926    0.0011 H   0  0  0  0  0  0  0  0  0  0  0  0
   -1.9053    2.4695   -0.0016 H   0  0  0  0  0  0  0  0  0  0  0  0
    1.2893   -2.5707   -1.3132 H   0  0  0  0  0  0  0  0  0  0  0  0
    3.0571   -2.5617   -1.2750 H   0  0  0  0  0  0  0  0  0  0  0  0
    2.1854   -1.3046   -2.1675 H   0  0  0  0  0  0  0  0  0  0  0  0
    2.1869   -1.3073    2.1666 H   0  0  0  0  0  0  0  0  0  0  0  0
    3.0580   -2.5632    1.2720 H   0  0  0  0  0  0  0  0  0  0  0  0
    1.2902   -2.5723    1.3114 H   0  0  0  0  0  0  0  0  0  0  0  0
   -2.4995   -1.8677    1.3116 H   0  0  0  0  0  0  0  0  0  0  0  0
   -4.1408   -1.2086    1.2741 H   0  0  0  0  0  0  0  0  0  0  0  0
   -2.8671   -0.3620    2.1677 H   0  0  0  0  0  0  0  0  0  0  0  0
   -2.8678   -0.3644   -2.1672 H   0  0  0  0  0  0  0  0  0  0  0  0
   -4.1411   -1.2101   -1.2724 H   0  0  0  0  0  0  0  0  0  0  0  0
   -2.4998   -1.8691   -1.3096 H   0  0  0  0  0  0  0  0  0  0  0  0
    0.4056    3.2916   -0.0014 H   0  0  0  0  0  0  0  0  0  0  0  0
    2.5415    2.7635    0.0013 H   0  0  0  0  0  0  0  0  0  0  0  0
  1  7  1  0  0  0  0
  1 31  1  0  0  0  0
  2  4  1  0  0  0  0
  2  9  1  0  0  0  0
  2 10  1  0  0  0  0
  2 14  1  0  0  0  0
  3  5  1  0  0  0  0
  3 11  1  0  0  0  0
  3 12  1  0  0  0  0
  3 15  1  0  0  0  0
  4  6  1  0  0  0  0
  4  7  2  0  0  0  0
  5  6  2  0  0  0  0
  5  8  1  0  0  0  0
  6 16  1  0  0  0  0
  7 13  1  0  0  0  0
  8 13  2  0  0  0  0
  8 17  1  0  0  0  0
  9 18  1  0  0  0  0
  9 19  1  0  0  0  0
  9 20  1  0  0  0  0
 10 21  1  0  0  0  0
 10 22  1  0  0  0  0
 10 23  1  0  0  0  0
 11 24  1  0  0  0  0
 11 25  1  0  0  0  0
 11 26  1  0  0  0  0
 12 27  1  0  0  0  0
 12 28  1  0  0  0  0
 12 29  1  0  0  0  0
 13 30  1  0  0  0  0
M  END
> <PUBCHEM_COMPOUND_CID>
18048

> <PUBCHEM_CONFORMER_RMSD>
0.6

> <PUBCHEM_CONFORMER_DIVERSEORDER>
1
2
3
4

> <PUBCHEM_MMFF94_PARTIAL_CHARGES>
13
1 -0.53
13 -0.15
16 0.15
17 0.15
2 0.14
3 0.14
30 0.15
31 0.45
4 -0.14
5 -0.14
6 -0.15
7 0.08
8 -0.15

> <PUBCHEM_EFFECTIVE_ROTOR_COUNT>
2

> <PUBCHEM_PHARMACOPHORE_FEATURES>
4
1 1 donor
3 2 9 10 hydrophobe
3 3 11 12 hydrophobe
6 4 5 6 7 8 13 rings

> <PUBCHEM_HEAVY_ATOM_COUNT>
13

> <PUBCHEM_ATOM_DEF_STEREO_COUNT>
0

> <PUBCHEM_ATOM_UDEF_STEREO_COUNT>
0

> <PUBCHEM_BOND_DEF_STEREO_COUNT>
0

> <PUBCHEM_BOND_UDEF_STEREO_COUNT>
0

> <PUBCHEM_ISOTOPIC_ATOM_COUNT>
0

> <PUBCHEM_COMPONENT_COUNT>
1

> <PUBCHEM_CACTVS_TAUTO_COUNT>
3

> <PUBCHEM_CONFORMER_ID>
0000468000000001

> <PUBCHEM_MMFF94_ENERGY>
31.4938

> <PUBCHEM_FEATURE_SELFOVERLAP>
20.297

> <PUBCHEM_SHAPE_FINGERPRINT>
12202030 40 17458347476630317563
12524768 44 18412547634462112871
161256 15 18411428297328680036
16945 1 18266741466180185029
17990270 104 18342176622494146446
20201158 50 18188203320738170017
20361792 2 18411981321633798871
20645476 183 16958475156226143766
20645477 70 18411975893201409791
20653091 64 18336267851565196240
20711985 344 17978234854790174239
20871998 184 17983292625479055103
20871998 22 18269844133406490870
21501502 16 18338514144883050857
21650355 55 17540228975250150450
232386 152 17900256412465391802
2334 1 18410293596896808193
23388829 49 18270381867627821484
23419403 2 15153257550891922491
23552423 10 18261117343902750620
23559900 14 17406272128255153462
2748010 2 18338230475188517181
528862 383 18339356478153105534
576247 118 17908464348165448255
6338986 31 18194379148570902791
7364860 26 18272933842874752632
81228 2 17907012876710027920
81539 233 18116428326974429468

> <PUBCHEM_SHAPE_MULTIPOLES>
261.66
4.63
2.39
1.11
1.96
0.82
0
-2.32
0
-1.29
0
0.18
-0.72
0

> <PUBCHEM_SHAPE_SELFOVERLAP>
531.236

> <PUBCHEM_SHAPE_VOLUME>
154.4

> <PUBCHEM_COORDINATE_TYPE>
2
5
10

$$$$
