140780
  -OEChem-11012400473D

 39 42  0     1  0  0  0  0  0999 V2000
   -0.5117    3.1746   -0.5286 O   0  0  0  0  0  0  0  0  0  0  0  0
   -2.1942    2.1363   -1.6903 O   0  0  0  0  0  0  0  0  0  0  0  0
    1.3888    3.5434    0.6954 O   0  0  0  0  0  0  0  0  0  0  0  0
   -0.5314    0.8388   -0.4747 C   0  0  1  0  0  0  0  0  0  0  0  0
    0.8919    1.3383   -0.2381 C   0  0  2  0  0  0  0  0  0  0  0  0
   -1.3031    0.3819    0.7879 C   0  0  2  0  0  0  0  0  0  0  0  0
    1.7184    0.5792    0.8189 C   0  0  1  0  0  0  0  0  0  0  0  0
   -0.4319   -0.1773    1.8790 C   0  0  0  0  0  0  0  0  0  0  0  0
    0.9025   -0.0939    1.8880 C   0  0  0  0  0  0  0  0  0  0  0  0
   -1.1835    2.0876   -1.0076 C   0  0  0  0  0  0  0  0  0  0  0  0
    0.6501    2.7924    0.0800 C   0  0  0  0  0  0  0  0  0  0  0  0
   -2.4245   -0.5801    0.4098 C   0  0  0  0  0  0  0  0  0  0  0  0
    2.6751   -0.4110    0.1628 C   0  0  0  0  0  0  0  0  0  0  0  0
   -3.6336   -0.0782   -0.0588 C   0  0  0  0  0  0  0  0  0  0  0  0
    3.9524   -0.5830    0.6846 C   0  0  0  0  0  0  0  0  0  0  0  0
   -2.2281   -1.9508    0.5371 C   0  0  0  0  0  0  0  0  0  0  0  0
    2.2617   -1.1326   -0.9514 C   0  0  0  0  0  0  0  0  0  0  0  0
   -4.6593   -0.9581   -0.4044 C   0  0  0  0  0  0  0  0  0  0  0  0
    4.8273   -1.4883    0.0843 C   0  0  0  0  0  0  0  0  0  0  0  0
   -3.2537   -2.8307    0.1911 C   0  0  0  0  0  0  0  0  0  0  0  0
    3.1365   -2.0381   -1.5515 C   0  0  0  0  0  0  0  0  0  0  0  0
   -4.4693   -2.3344   -0.2796 C   0  0  0  0  0  0  0  0  0  0  0  0
    4.4194   -2.2161   -1.0337 C   0  0  0  0  0  0  0  0  0  0  0  0
   -0.5428    0.0804   -1.2643 H   0  0  0  0  0  0  0  0  0  0  0  0
    1.4317    1.3839   -1.1964 H   0  0  0  0  0  0  0  0  0  0  0  0
   -1.7937    1.2525    1.2505 H   0  0  0  0  0  0  0  0  0  0  0  0
    2.3457    1.3190    1.3358 H   0  0  0  0  0  0  0  0  0  0  0  0
   -0.9180   -0.6380    2.7367 H   0  0  0  0  0  0  0  0  0  0  0  0
    1.4391   -0.5112    2.7373 H   0  0  0  0  0  0  0  0  0  0  0  0
   -3.8128    0.9894   -0.1334 H   0  0  0  0  0  0  0  0  0  0  0  0
    4.2820   -0.0241    1.5559 H   0  0  0  0  0  0  0  0  0  0  0  0
   -1.2880   -2.3757    0.8757 H   0  0  0  0  0  0  0  0  0  0  0  0
    1.2682   -1.0451   -1.3711 H   0  0  0  0  0  0  0  0  0  0  0  0
   -5.6083   -0.5716   -0.7642 H   0  0  0  0  0  0  0  0  0  0  0  0
    5.8260   -1.6276    0.4879 H   0  0  0  0  0  0  0  0  0  0  0  0
   -3.1043   -3.9026    0.2830 H   0  0  0  0  0  0  0  0  0  0  0  0
    2.8174   -2.6093   -2.4185 H   0  0  0  0  0  0  0  0  0  0  0  0
   -5.2680   -3.0194   -0.5485 H   0  0  0  0  0  0  0  0  0  0  0  0
    5.1002   -2.9222   -1.4999 H   0  0  0  0  0  0  0  0  0  0  0  0
  1 10  1  0  0  0  0
  1 11  1  0  0  0  0
  2 10  2  0  0  0  0
  3 11  2  0  0  0  0
  4  5  1  0  0  0  0
  4  6  1  0  0  0  0
  4 10  1  0  0  0  0
  4 24  1  0  0  0  0
  5  7  1  0  0  0  0
  5 11  1  0  0  0  0
  5 25  1  0  0  0  0
  6  8  1  0  0  0  0
  6 12  1  0  0  0  0
  6 26  1  0  0  0  0
  7  9  1  0  0  0  0
  7 13  1  0  0  0  0
  7 27  1  0  0  0  0
  8  9  2  0  0  0  0
  8 28  1  0  0  0  0
  9 29  1  0  0  0  0
 12 14  2  0  0  0  0
 12 16  1  0  0  0  0
 13 15  2  0  0  0  0
 13 17  1  0  0  0  0
 14 18  1  0  0  0  0
 14 30  1  0  0  0  0
 15 19  1  0  0  0  0
 15 31  1  0  0  0  0
 16 20  2  0  0  0  0
 16 32  1  0  0  0  0
 17 21  2  0  0  0  0
 17 33  1  0  0  0  0
 18 22  2  0  0  0  0
 18 34  1  0  0  0  0
 19 23  2  0  0  0  0
 19 35  1  0  0  0  0
 20 22  1  0  0  0  0
 20 36  1  0  0  0  0
 21 23  1  0  0  0  0
 21 37  1  0  0  0  0
 22 38  1  0  0  0  0
 23 39  1  0  0  0  0
M  END
> <PUBCHEM_COMPOUND_CID>
140780

> <PUBCHEM_CONFORMER_RMSD>
0.6

> <PUBCHEM_CONFORMER_DIVERSEORDER>
1
22
9
14
13
2
15
10
12
8
16
4
32
27
31
3
28
30
7
29
11
23
19
18
26
24
25
5
6
21
20
17

> <PUBCHEM_MMFF94_PARTIAL_CHARGES>
35
1 -0.3
10 0.66
11 0.66
12 -0.14
13 -0.14
14 -0.15
15 -0.15
16 -0.15
17 -0.15
18 -0.15
19 -0.15
2 -0.57
20 -0.15
21 -0.15
22 -0.15
23 -0.15
28 0.15
29 0.15
3 -0.57
30 0.15
31 0.15
32 0.15
33 0.15
34 0.15
35 0.15
36 0.15
37 0.15
38 0.15
39 0.15
4 0.06
5 0.06
6 0.28
7 0.28
8 -0.29
9 -0.29

> <PUBCHEM_EFFECTIVE_ROTOR_COUNT>
2.6

> <PUBCHEM_PHARMACOPHORE_FEATURES>
6
1 2 acceptor
1 3 acceptor
5 1 4 5 10 11 rings
6 12 14 16 18 20 22 rings
6 13 15 17 19 21 23 rings
6 4 5 6 7 8 9 rings

> <PUBCHEM_HEAVY_ATOM_COUNT>
23

> <PUBCHEM_ATOM_DEF_STEREO_COUNT>
0

> <PUBCHEM_ATOM_UDEF_STEREO_COUNT>
4

> <PUBCHEM_BOND_DEF_STEREO_COUNT>
0

> <PUBCHEM_BOND_UDEF_STEREO_COUNT>
0

> <PUBCHEM_ISOTOPIC_ATOM_COUNT>
0

> <PUBCHEM_COMPONENT_COUNT>
1

> <PUBCHEM_CACTVS_TAUTO_COUNT>
3

> <PUBCHEM_CONFORMER_ID>
000225EC00000001

> <PUBCHEM_MMFF94_ENERGY>
57.2882

> <PUBCHEM_FEATURE_SELFOVERLAP>
30.626

> <PUBCHEM_SHAPE_FINGERPRINT>
107951 10 17621037560405394341
10906281 52 17752211844546611376
116883 192 18409445895154373949
12363563 72 18409177614132859494
12403259 327 16127815317480138443
12553582 1 18265357082256723194
12596602 18 14261056705929826118
12788726 201 18116153272841944834
13149001 5 17459765914896022867
13533116 47 18056760056345581955
13544653 18 17917997178313065890
13583140 156 16415470532774631523
14790565 3 17545882629364691049
14863182 85 17471301016153135517
15422964 175 18059580144186987518
15475509 8 18338798910706218893
15848702 151 18339639053005369547
16752209 62 17822285726286224803
17357779 13 18339911667311840847
17492 89 18122343755736418655
1813 80 18410583902363163859
19141452 34 18271252621002890299
19591789 44 17618506476522890489
20645477 70 18120928671280560819
20871999 31 18262237720439179870
22620623 9 18263648363750673348
23419403 2 17845352445181534832
23557571 272 18339073801139446688
23559900 14 18271519913723250681
23566358 2 18187352272652645405
2838139 119 12180122124514106894
3421961 26 18340768268257725315
4280585 95 18335413595508015402
46194498 28 18117834624106177711
463206 1 18260548900744999218
5207 123 18341893009151477135
7364860 26 18124033700348515537
84936 31 17914606400522578056
9709674 26 18046907366666097283

> <PUBCHEM_SHAPE_MULTIPOLES>
455.72
8.3
3.58
1.41
0.51
2.11
0.2
-8.56
-1.59
-0.39
-0.89
0.39
0.05
1.36

> <PUBCHEM_SHAPE_SELFOVERLAP>
1012.718

> <PUBCHEM_SHAPE_VOLUME>
241

> <PUBCHEM_COORDINATE_TYPE>
2
5
10

$$$$
