6992494
  -OEChem-11012401023D

 40 40  0     1  0  0  0  0  0999 V2000
   -0.0342   -1.2987    1.6375 O   0  0  0  0  0  0  0  0  0  0  0  0
   -3.5491   -2.1405   -0.5993 O   0  0  0  0  0  0  0  0  0  0  0  0
   -4.6810   -0.5932    0.5986 O   0  0  0  0  0  0  0  0  0  0  0  0
    2.7008   -0.1238   -1.0332 O   0  0  0  0  0  0  0  0  0  0  0  0
   -1.2210   -0.9769   -0.3304 N   0  0  0  0  0  0  0  0  0  0  0  0
    2.1452   -2.0510    0.1395 N   0  0  0  0  0  0  0  0  0  0  0  0
    4.8265    0.2952    0.6539 N   0  0  0  0  0  0  0  0  0  0  0  0
   -2.3152   -0.2319    0.2471 C   0  0  1  0  0  0  0  0  0  0  0  0
   -2.4416    1.1545   -0.3979 C   0  0  0  0  0  0  0  0  0  0  0  0
    0.8327   -2.2457   -0.4180 C   0  0  2  0  0  0  0  0  0  0  0  0
   -1.1860    1.9823   -0.2658 C   0  0  0  0  0  0  0  0  0  0  0  0
   -0.1585   -1.4538    0.4245 C   0  0  0  0  0  0  0  0  0  0  0  0
   -3.6276   -0.9898    0.1111 C   0  0  0  0  0  0  0  0  0  0  0  0
    0.4598   -3.7196   -0.4537 C   0  0  0  0  0  0  0  0  0  0  0  0
   -1.0271    2.8035    0.8391 C   0  0  0  0  0  0  0  0  0  0  0  0
   -0.2148    1.9055   -1.2516 C   0  0  0  0  0  0  0  0  0  0  0  0
    2.9808   -0.9974   -0.2153 C   0  0  0  0  0  0  0  0  0  0  0  0
    0.1331    3.5682    0.9614 C   0  0  0  0  0  0  0  0  0  0  0  0
    0.9454    2.6701   -1.1291 C   0  0  0  0  0  0  0  0  0  0  0  0
    1.1193    3.5016   -0.0225 C   0  0  0  0  0  0  0  0  0  0  0  0
    4.3125   -1.0588    0.5043 C   0  0  0  0  0  0  0  0  0  0  0  0
   -2.1349   -0.1257    1.3237 H   0  0  0  0  0  0  0  0  0  0  0  0
   -3.2855    1.7016    0.0435 H   0  0  0  0  0  0  0  0  0  0  0  0
   -2.6960    1.0528   -1.4624 H   0  0  0  0  0  0  0  0  0  0  0  0
    0.8361   -1.8487   -1.4403 H   0  0  0  0  0  0  0  0  0  0  0  0
   -1.2691   -1.1989   -1.3207 H   0  0  0  0  0  0  0  0  0  0  0  0
    1.1830   -4.2913   -1.0450 H   0  0  0  0  0  0  0  0  0  0  0  0
   -0.5331   -3.8621   -0.8932 H   0  0  0  0  0  0  0  0  0  0  0  0
    0.4393   -4.1493    0.5545 H   0  0  0  0  0  0  0  0  0  0  0  0
    2.4486   -2.6923    0.8670 H   0  0  0  0  0  0  0  0  0  0  0  0
   -1.7885    2.8599    1.6117 H   0  0  0  0  0  0  0  0  0  0  0  0
   -0.3400    1.2636   -2.1188 H   0  0  0  0  0  0  0  0  0  0  0  0
    0.2690    4.2148    1.8234 H   0  0  0  0  0  0  0  0  0  0  0  0
    1.7130    2.6193   -1.8957 H   0  0  0  0  0  0  0  0  0  0  0  0
    2.0229    4.0964    0.0729 H   0  0  0  0  0  0  0  0  0  0  0  0
    4.2041   -1.5239    1.4890 H   0  0  0  0  0  0  0  0  0  0  0  0
    5.0002   -1.6616   -0.0967 H   0  0  0  0  0  0  0  0  0  0  0  0
   -4.4175   -2.5922   -0.6633 H   0  0  0  0  0  0  0  0  0  0  0  0
    4.2066    0.8317    1.2600 H   0  0  0  0  0  0  0  0  0  0  0  0
    5.7272    0.2629    1.1299 H   0  0  0  0  0  0  0  0  0  0  0  0
  1 12  2  0  0  0  0
  2 13  1  0  0  0  0
  2 38  1  0  0  0  0
  3 13  2  0  0  0  0
  4 17  2  0  0  0  0
  5  8  1  0  0  0  0
  5 12  1  0  0  0  0
  5 26  1  0  0  0  0
  6 10  1  0  0  0  0
  6 17  1  0  0  0  0
  6 30  1  0  0  0  0
  7 21  1  0  0  0  0
  7 39  1  0  0  0  0
  7 40  1  0  0  0  0
  8  9  1  0  0  0  0
  8 13  1  0  0  0  0
  8 22  1  0  0  0  0
  9 11  1  0  0  0  0
  9 23  1  0  0  0  0
  9 24  1  0  0  0  0
 10 12  1  0  0  0  0
 10 14  1  0  0  0  0
 10 25  1  0  0  0  0
 11 15  2  0  0  0  0
 11 16  1  0  0  0  0
 14 27  1  0  0  0  0
 14 28  1  0  0  0  0
 14 29  1  0  0  0  0
 15 18  1  0  0  0  0
 15 31  1  0  0  0  0
 16 19  2  0  0  0  0
 16 32  1  0  0  0  0
 17 21  1  0  0  0  0
 18 20  2  0  0  0  0
 18 33  1  0  0  0  0
 19 20  1  0  0  0  0
 19 34  1  0  0  0  0
 20 35  1  0  0  0  0
 21 36  1  0  0  0  0
 21 37  1  0  0  0  0
M  END
> <PUBCHEM_COMPOUND_CID>
6992494

> <PUBCHEM_CONFORMER_RMSD>
0.8

> <PUBCHEM_CONFORMER_DIVERSEORDER>
1
76
12
162
131
118
172
105
110
61
169
39
84
43
68
59
80
73
21
40
153
71
176
126
144
128
119
114
47
139
159
64
98
32
120
75
141
37
154
150
116
85
7
96
148
15
103
160
145
121
179
65
91
44
113
174
122
28
155
3
107
74
13
46
156
88
136
140
171
101
175
166
180
79
58
51
137
87
9
130
135
34
53
177
50
81
157
173
4
5
94
78
138
55
36
67
45
77
90
95
60
111
147
30
97
27
25
41
6
10
70
26
109
63
163
17
92
158
82
146
72
18
89
35
167
66
11
8
149
143
142
48
23
19
132
86
49
164
20
170
2
124
165
125
134
106
168
178
133
56
129
93
14
99
42
24
57
152
29
22
62
83
161
127
38
52
54
33
102
115
100
104
112
69
108
123
31
151
117
16

> <PUBCHEM_MMFF94_PARTIAL_CHARGES>
30
1 -0.57
10 0.36
11 -0.14
12 0.57
13 0.66
15 -0.15
16 -0.15
17 0.57
18 -0.15
19 -0.15
2 -0.65
20 -0.15
21 0.33
26 0.37
3 -0.57
30 0.37
31 0.15
32 0.15
33 0.15
34 0.15
35 0.15
38 0.5
39 0.36
4 -0.57
40 0.36
5 -0.73
6 -0.73
7 -0.99
8 0.36
9 0.14

> <PUBCHEM_EFFECTIVE_ROTOR_COUNT>
9

> <PUBCHEM_PHARMACOPHORE_FEATURES>
10
1 1 acceptor
1 2 acceptor
1 3 acceptor
1 4 acceptor
1 5 donor
1 6 donor
1 7 cation
1 7 donor
3 2 3 13 anion
6 11 15 16 18 19 20 rings

> <PUBCHEM_HEAVY_ATOM_COUNT>
21

> <PUBCHEM_ATOM_DEF_STEREO_COUNT>
2

> <PUBCHEM_ATOM_UDEF_STEREO_COUNT>
0

> <PUBCHEM_BOND_DEF_STEREO_COUNT>
0

> <PUBCHEM_BOND_UDEF_STEREO_COUNT>
0

> <PUBCHEM_ISOTOPIC_ATOM_COUNT>
0

> <PUBCHEM_COMPONENT_COUNT>
1

> <PUBCHEM_CACTVS_TAUTO_COUNT>
4

> <PUBCHEM_CONFORMER_ID>
006AB26E00000001

> <PUBCHEM_MMFF94_ENERGY>
41.8745

> <PUBCHEM_FEATURE_SELFOVERLAP>
50.807

> <PUBCHEM_SHAPE_FINGERPRINT>
10498660 4 18265894666312148838
10670039 82 18263659390060649614
1100329 8 18267304424787026431
128993 33 16893721545334124332
13140716 1 18192720166166429491
14081887 123 18196367027007560568
14178342 30 18122345679738816260
14787075 74 18187930620226949990
14955137 171 18268451134132236659
15927050 60 17764597907293681804
17492 54 17969236666667139956
19930381 70 18412259562547367962
20510252 161 18338514132377567498
20600515 1 17458640994326275294
20642791 178 18261968439270657749
23402539 116 18410283705735059062
23419403 2 18116689967528553645
23557571 272 18268154166839107286
3524813 1 18130211727731291034
5265222 85 17109329732512386004
57527585 103 17317081002422006347
6443956 14 18411138047971413789
7364860 26 18339924943493296857
81228 2 17901685773360152451
9925002 15 17842543325979910103

> <PUBCHEM_SHAPE_MULTIPOLES>
393.75
6.33
4.84
1.07
2.43
2.11
0.03
-3.42
1.02
-0.11
-0.09
0.09
0.36
-0.11

> <PUBCHEM_SHAPE_SELFOVERLAP>
801.638

> <PUBCHEM_SHAPE_VOLUME>
226.6

> <PUBCHEM_COORDINATE_TYPE>
2
5
10

$$$$
