5326160
  -OEChem-11012401283D

 15 14  0     0  0  0  0  0  0999 V2000
   -1.0741   -0.1860   -0.6005 C   0  0  0  0  0  0  0  0  0  0  0  0
    0.0293   -0.9326    0.0888 C   0  0  0  0  0  0  0  0  0  0  0  0
   -1.8970    0.6256    0.3878 C   0  0  0  0  0  0  0  0  0  0  0  0
    1.2584   -0.4337    0.2839 C   0  0  0  0  0  0  0  0  0  0  0  0
    1.6834    0.9267   -0.1600 C   0  0  0  0  0  0  0  0  0  0  0  0
   -1.7254   -0.9191   -1.0922 H   0  0  0  0  0  0  0  0  0  0  0  0
   -0.7004    0.4552   -1.4055 H   0  0  0  0  0  0  0  0  0  0  0  0
   -0.1958   -1.9300    0.4572 H   0  0  0  0  0  0  0  0  0  0  0  0
   -2.7209    1.1265   -0.1307 H   0  0  0  0  0  0  0  0  0  0  0  0
   -1.2917    1.3945    0.8789 H   0  0  0  0  0  0  0  0  0  0  0  0
   -2.3287   -0.0152    1.1643 H   0  0  0  0  0  0  0  0  0  0  0  0
    1.9991   -1.0467    0.7899 H   0  0  0  0  0  0  0  0  0  0  0  0
    2.1961    1.4290    0.6674 H   0  0  0  0  0  0  0  0  0  0  0  0
    0.8684    1.5834   -0.4699 H   0  0  0  0  0  0  0  0  0  0  0  0
    2.3925    0.8407   -0.9893 H   0  0  0  0  0  0  0  0  0  0  0  0
  1  2  1  0  0  0  0
  1  3  1  0  0  0  0
  1  6  1  0  0  0  0
  1  7  1  0  0  0  0
  2  4  2  0  0  0  0
  2  8  1  0  0  0  0
  3  9  1  0  0  0  0
  3 10  1  0  0  0  0
  3 11  1  0  0  0  0
  4  5  1  0  0  0  0
  4 12  1  0  0  0  0
  5 13  1  0  0  0  0
  5 14  1  0  0  0  0
  5 15  1  0  0  0  0
M  END
> <PUBCHEM_COMPOUND_CID>
5326160

> <PUBCHEM_CONFORMER_RMSD>
0.4

> <PUBCHEM_CONFORMER_DIVERSEORDER>
1
3
2

> <PUBCHEM_MMFF94_PARTIAL_CHARGES>
6
1 0.14
12 0.15
2 -0.29
4 -0.29
5 0.14
8 0.15

> <PUBCHEM_EFFECTIVE_ROTOR_COUNT>
1

> <PUBCHEM_PHARMACOPHORE_FEATURES>
2
1 3 hydrophobe
1 5 hydrophobe

> <PUBCHEM_HEAVY_ATOM_COUNT>
5

> <PUBCHEM_ATOM_DEF_STEREO_COUNT>
0

> <PUBCHEM_ATOM_UDEF_STEREO_COUNT>
0

> <PUBCHEM_BOND_DEF_STEREO_COUNT>
1

> <PUBCHEM_BOND_UDEF_STEREO_COUNT>
0

> <PUBCHEM_ISOTOPIC_ATOM_COUNT>
0

> <PUBCHEM_COMPONENT_COUNT>
1

> <PUBCHEM_CACTVS_TAUTO_COUNT>
1

> <PUBCHEM_CONFORMER_ID>
0051455000000001

> <PUBCHEM_MMFF94_ENERGY>
-0.388

> <PUBCHEM_FEATURE_SELFOVERLAP>
10.149

> <PUBCHEM_SHAPE_FINGERPRINT>
20096714 4 18411699889406067056
21040471 1 18413386553164861658
24536 1 18340756104889399911
5943 1 14758487659020600518

> <PUBCHEM_SHAPE_MULTIPOLES>
102.9
2.45
1.08
0.74
0.26
0.03
0.03
0.8
-0.14
-0.19
-0.02
0.11
0
-0.2

> <PUBCHEM_SHAPE_SELFOVERLAP>
175.189

> <PUBCHEM_SHAPE_VOLUME>
69.9

> <PUBCHEM_COORDINATE_TYPE>
2
5
10

$$$$
