135418559
  -OEChem-11012400303D

 44 45  0     0  0  0  0  0  0999 V2000
   -0.0857    0.5541   -1.6164 O   0  5  0  0  0  0  0  0  0  0  0  0
    0.0867   -0.5523    1.6175 O   0  5  0  0  0  0  0  0  0  0  0  0
    0.3861    0.1670   -0.4983 N   0  3  0  0  0  0  0  0  0  0  0  0
   -0.3962   -0.1674    0.4968 N   0  3  0  0  0  0  0  0  0  0  0  0
    1.8070    0.0854   -0.2886 C   0  0  0  0  0  0  0  0  0  0  0  0
   -1.8061   -0.0864    0.2886 C   0  0  0  0  0  0  0  0  0  0  0  0
    2.5967    1.2284   -0.4135 C   0  0  0  0  0  0  0  0  0  0  0  0
   -2.4863    1.0965    0.5778 C   0  0  0  0  0  0  0  0  0  0  0  0
    2.3950   -1.1362    0.0395 C   0  0  0  0  0  0  0  0  0  0  0  0
   -2.5035   -1.1896   -0.2037 C   0  0  0  0  0  0  0  0  0  0  0  0
    4.5626   -0.0720    0.1174 C   0  0  0  0  0  0  0  0  0  0  0  0
   -4.5615    0.0729   -0.1174 C   0  0  0  0  0  0  0  0  0  0  0  0
    3.9744    1.1496   -0.2106 C   0  0  0  0  0  0  0  0  0  0  0  0
   -3.8640    1.1761    0.3747 C   0  0  0  0  0  0  0  0  0  0  0  0
    3.7728   -1.2149    0.2424 C   0  0  0  0  0  0  0  0  0  0  0  0
   -3.8812   -1.1099   -0.4065 C   0  0  0  0  0  0  0  0  0  0  0  0
    1.9925    2.5489   -0.7645 C   0  0  0  0  0  0  0  0  0  0  0  0
   -1.7636    2.2925    1.1065 C   0  0  0  0  0  0  0  0  0  0  0  0
    1.5727   -2.3758    0.1794 C   0  0  0  0  0  0  0  0  0  0  0  0
   -1.7997   -2.4686   -0.5213 C   0  0  0  0  0  0  0  0  0  0  0  0
    6.0354   -0.1562    0.3343 C   0  0  0  0  0  0  0  0  0  0  0  0
   -6.0342    0.1580   -0.3343 C   0  0  0  0  0  0  0  0  0  0  0  0
    4.5946    2.0373   -0.3103 H   0  0  0  0  0  0  0  0  0  0  0  0
   -4.3981    2.0965    0.5990 H   0  0  0  0  0  0  0  0  0  0  0  0
    4.2344   -2.1656    0.4991 H   0  0  0  0  0  0  0  0  0  0  0  0
   -4.4295   -1.9675   -0.7893 H   0  0  0  0  0  0  0  0  0  0  0  0
    1.1508    2.7806   -0.1055 H   0  0  0  0  0  0  0  0  0  0  0  0
    2.7143    3.3649   -0.6461 H   0  0  0  0  0  0  0  0  0  0  0  0
    1.6598    2.5569   -1.8070 H   0  0  0  0  0  0  0  0  0  0  0  0
   -2.4593    3.0329    1.5169 H   0  0  0  0  0  0  0  0  0  0  0  0
   -1.1995    2.7761    0.3038 H   0  0  0  0  0  0  0  0  0  0  0  0
   -1.0824    2.0211    1.9192 H   0  0  0  0  0  0  0  0  0  0  0  0
    2.2049   -3.2546   -0.0063 H   0  0  0  0  0  0  0  0  0  0  0  0
    0.8126   -2.4315   -0.5958 H   0  0  0  0  0  0  0  0  0  0  0  0
    1.1637   -2.5177    1.1803 H   0  0  0  0  0  0  0  0  0  0  0  0
   -1.2253   -2.8211    0.3392 H   0  0  0  0  0  0  0  0  0  0  0  0
   -2.5128   -3.2665   -0.7593 H   0  0  0  0  0  0  0  0  0  0  0  0
   -1.1635   -2.3407   -1.4010 H   0  0  0  0  0  0  0  0  0  0  0  0
    6.5420   -0.3789   -0.6100 H   0  0  0  0  0  0  0  0  0  0  0  0
    6.4311    0.7848    0.7314 H   0  0  0  0  0  0  0  0  0  0  0  0
    6.2845   -0.9387    1.0592 H   0  0  0  0  0  0  0  0  0  0  0  0
   -6.5658   -0.1511    0.5712 H   0  0  0  0  0  0  0  0  0  0  0  0
   -6.3384    1.1792   -0.5883 H   0  0  0  0  0  0  0  0  0  0  0  0
   -6.3497   -0.4848   -1.1632 H   0  0  0  0  0  0  0  0  0  0  0  0
  1  3  1  0  0  0  0
  2  4  1  0  0  0  0
  3  4  2  0  0  0  0
  3  5  1  0  0  0  0
  4  6  1  0  0  0  0
  5  7  2  0  0  0  0
  5  9  1  0  0  0  0
  6  8  2  0  0  0  0
  6 10  1  0  0  0  0
  7 13  1  0  0  0  0
  7 17  1  0  0  0  0
  8 14  1  0  0  0  0
  8 18  1  0  0  0  0
  9 15  2  0  0  0  0
  9 19  1  0  0  0  0
 10 16  2  0  0  0  0
 10 20  1  0  0  0  0
 11 13  2  0  0  0  0
 11 15  1  0  0  0  0
 11 21  1  0  0  0  0
 12 14  2  0  0  0  0
 12 16  1  0  0  0  0
 12 22  1  0  0  0  0
 13 23  1  0  0  0  0
 14 24  1  0  0  0  0
 15 25  1  0  0  0  0
 16 26  1  0  0  0  0
 17 27  1  0  0  0  0
 17 28  1  0  0  0  0
 17 29  1  0  0  0  0
 18 30  1  0  0  0  0
 18 31  1  0  0  0  0
 18 32  1  0  0  0  0
 19 33  1  0  0  0  0
 19 34  1  0  0  0  0
 19 35  1  0  0  0  0
 20 36  1  0  0  0  0
 20 37  1  0  0  0  0
 20 38  1  0  0  0  0
 21 39  1  0  0  0  0
 21 40  1  0  0  0  0
 21 41  1  0  0  0  0
 22 42  1  0  0  0  0
 22 43  1  0  0  0  0
 22 44  1  0  0  0  0
M  CHG  4   1  -1   2  -1   3   1   4   1
M  END
> <PUBCHEM_COMPOUND_CID>
135418559

> <PUBCHEM_CONFORMER_RMSD>
0.6

> <PUBCHEM_CONFORMER_DIVERSEORDER>
1
4
2
3

> <PUBCHEM_MMFF94_PARTIAL_CHARGES>
26
1 -0.63
10 -0.14
11 -0.14
12 -0.14
13 -0.15
14 -0.15
15 -0.15
16 -0.15
17 0.14
18 0.14
19 0.14
2 -0.63
20 0.14
21 0.14
22 0.14
23 0.15
24 0.15
25 0.15
26 0.15
3 0.66
4 0.66
5 -0.03
6 -0.03
7 -0.14
8 -0.14
9 -0.14

> <PUBCHEM_EFFECTIVE_ROTOR_COUNT>
2

> <PUBCHEM_PHARMACOPHORE_FEATURES>
4
1 1 anion
1 2 anion
6 5 7 9 11 13 15 rings
6 6 8 10 12 14 16 rings

> <PUBCHEM_HEAVY_ATOM_COUNT>
22

> <PUBCHEM_ATOM_DEF_STEREO_COUNT>
0

> <PUBCHEM_ATOM_UDEF_STEREO_COUNT>
0

> <PUBCHEM_BOND_DEF_STEREO_COUNT>
1

> <PUBCHEM_BOND_UDEF_STEREO_COUNT>
0

> <PUBCHEM_ISOTOPIC_ATOM_COUNT>
0

> <PUBCHEM_COMPONENT_COUNT>
1

> <PUBCHEM_CACTVS_TAUTO_COUNT>
-1

> <PUBCHEM_CONFORMER_ID>
081252BF00000001

> <PUBCHEM_MMFF94_ENERGY>
84.9891

> <PUBCHEM_FEATURE_SELFOVERLAP>
20.298

> <PUBCHEM_SHAPE_FINGERPRINT>
10366900 7 17489584562861811522
10616163 171 18342177816532634215
10906281 52 18114482097288970732
11315181 36 18409451401423714760
11370993 70 18413670205616638623
12011746 2 18259991466114082494
12107183 9 17620477904670400186
12236239 1 18333730213230393731
12251169 10 18410294705129849798
12467345 10 18412262830758971823
12670546 56 18272368654958527176
12788726 201 17917713444620979313
13533116 47 18201997681777589726
13583140 156 17748832912517798051
14341114 176 18413112749258353878
15196674 1 18337110180335139622
15848702 151 18337392643270366534
17349148 13 18259984889959963688
17492 89 18411142454223198791
1813 80 17386014918870262182
18186145 218 17458335394581131023
18681886 176 18343014541044677778
192875 21 18408327704592937080
19489759 90 17846780697732288992
200 152 18413386544701566589
20715895 44 18194681467688877117
21033648 29 15719940436668561076
21033650 10 16772422584717636809
21267235 1 18411427210548953731
23175994 123 15285361708416513407
23402539 116 18202558489000837781
23557571 272 17561369447924964776
23559900 14 18342733065561668896
26918003 58 18260550043337141819
335352 9 18408322198824308302
345986 75 17315608752890734728
34797466 226 17275109461736337088
350125 39 18409729595093189364
3545911 37 18411700984569928035
3633792 109 18338227151643017861
4214541 1 18411700988875444853
474 4 18113904900364701512
5104073 3 18337393854166119689
58051976 378 18272655631788428527
59755656 215 18272940388726815118
59755656 520 17167859785811167123
67856867 119 18339358698910205992
69090 78 18409167705769576859
7495541 125 17774719878706652433
9709674 26 18341058462124282639
9981440 41 17398672788503048768

> <PUBCHEM_SHAPE_MULTIPOLES>
431.05
11.06
2.27
0.96
0.05
0
0.03
0.3
-0.08
0.09
-0.06
-0.09
0.2
-0.98

> <PUBCHEM_SHAPE_SELFOVERLAP>
920.2

> <PUBCHEM_SHAPE_VOLUME>
243.6

> <PUBCHEM_COORDINATE_TYPE>
2
5
10

$$$$
