89830
  -OEChem-11012400343D

 24 23  0     0  0  0  0  0  0999 V2000
   -3.1779   -0.3478   -1.2014 F   0  0  0  0  0  0  0  0  0  0  0  0
   -2.3902   -1.5567    0.4337 F   0  0  0  0  0  0  0  0  0  0  0  0
   -3.4523    0.2971    0.8622 F   0  0  0  0  0  0  0  0  0  0  0  0
    1.3131    1.6896    0.4648 O   0  0  0  0  0  0  0  0  0  0  0  0
   -1.2362    1.6327   -0.4671 O   0  0  0  0  0  0  0  0  0  0  0  0
    2.5656   -0.3159   -0.0703 C   0  0  0  0  0  0  0  0  0  0  0  0
    1.2811    0.4741    0.2596 C   0  0  0  0  0  0  0  0  0  0  0  0
    2.4138   -0.9930   -1.4443 C   0  0  0  0  0  0  0  0  0  0  0  0
    2.7737   -1.3989    0.9957 C   0  0  0  0  0  0  0  0  0  0  0  0
    3.7790    0.6217   -0.1227 C   0  0  0  0  0  0  0  0  0  0  0  0
   -0.0285   -0.2945    0.3411 C   0  0  0  0  0  0  0  0  0  0  0  0
   -1.2717    0.4725   -0.0606 C   0  0  0  0  0  0  0  0  0  0  0  0
   -2.5695   -0.2809    0.0092 C   0  0  0  0  0  0  0  0  0  0  0  0
    2.0876   -0.2720   -2.2027 H   0  0  0  0  0  0  0  0  0  0  0  0
    1.6864   -1.8105   -1.4332 H   0  0  0  0  0  0  0  0  0  0  0  0
    3.3656   -1.4229   -1.7776 H   0  0  0  0  0  0  0  0  0  0  0  0
    1.9543   -2.1259    1.0093 H   0  0  0  0  0  0  0  0  0  0  0  0
    2.8307   -0.9554    1.9965 H   0  0  0  0  0  0  0  0  0  0  0  0
    3.7028   -1.9527    0.8203 H   0  0  0  0  0  0  0  0  0  0  0  0
    4.6991    0.0728   -0.3522 H   0  0  0  0  0  0  0  0  0  0  0  0
    3.6503    1.3962   -0.8876 H   0  0  0  0  0  0  0  0  0  0  0  0
    3.9265    1.1302    0.8370 H   0  0  0  0  0  0  0  0  0  0  0  0
   -0.1476   -0.6235    1.3788 H   0  0  0  0  0  0  0  0  0  0  0  0
    0.0122   -1.1736   -0.3046 H   0  0  0  0  0  0  0  0  0  0  0  0
  1 13  1  0  0  0  0
  2 13  1  0  0  0  0
  3 13  1  0  0  0  0
  4  7  2  0  0  0  0
  5 12  2  0  0  0  0
  6  7  1  0  0  0  0
  6  8  1  0  0  0  0
  6  9  1  0  0  0  0
  6 10  1  0  0  0  0
  7 11  1  0  0  0  0
  8 14  1  0  0  0  0
  8 15  1  0  0  0  0
  8 16  1  0  0  0  0
  9 17  1  0  0  0  0
  9 18  1  0  0  0  0
  9 19  1  0  0  0  0
 10 20  1  0  0  0  0
 10 21  1  0  0  0  0
 10 22  1  0  0  0  0
 11 12  1  0  0  0  0
 11 23  1  0  0  0  0
 11 24  1  0  0  0  0
 12 13  1  0  0  0  0
M  END
> <PUBCHEM_COMPOUND_CID>
89830

> <PUBCHEM_CONFORMER_RMSD>
0.6

> <PUBCHEM_CONFORMER_DIVERSEORDER>
1
30
22
27
11
29
5
4
18
15
25
20
19
21
17
28
8
12
23
7
6
24
2
3
13
16
10
9
14
26

> <PUBCHEM_MMFF94_PARTIAL_CHARGES>
10
1 -0.34
11 0.12
12 0.45
13 1.08
2 -0.34
3 -0.34
4 -0.57
5 -0.57
6 0.06
7 0.45

> <PUBCHEM_EFFECTIVE_ROTOR_COUNT>
4

> <PUBCHEM_PHARMACOPHORE_FEATURES>
4
1 11 anion
1 4 acceptor
1 5 acceptor
4 6 8 9 10 hydrophobe

> <PUBCHEM_HEAVY_ATOM_COUNT>
13

> <PUBCHEM_ATOM_DEF_STEREO_COUNT>
0

> <PUBCHEM_ATOM_UDEF_STEREO_COUNT>
0

> <PUBCHEM_BOND_DEF_STEREO_COUNT>
0

> <PUBCHEM_BOND_UDEF_STEREO_COUNT>
0

> <PUBCHEM_ISOTOPIC_ATOM_COUNT>
0

> <PUBCHEM_COMPONENT_COUNT>
1

> <PUBCHEM_CACTVS_TAUTO_COUNT>
3

> <PUBCHEM_CONFORMER_ID>
00015EE600000001

> <PUBCHEM_MMFF94_ENERGY>
20.8794

> <PUBCHEM_FEATURE_SELFOVERLAP>
20.303

> <PUBCHEM_SHAPE_FINGERPRINT>
10219947 1 17775286075639537980
12897270 3 18260264161460169670
12932764 1 18260830388468389107
13296908 3 18059857199679072500
13705890 14 16732988604803820122
14144814 61 18411419496713687955
14252887 29 18201732759736394970
14325111 11 18260828172465750456
15775835 57 18333171669523307426
16945 1 18335137587607499362
18186145 218 18114187410581407390
19107657 47 11599728333149431400
20201158 50 18342458144747295174
20279233 1 18260260867278373411
20281407 28 18335140894721800353
20281475 54 18410012134757364378
20645477 70 18335411323069512614
23402539 116 16443055132511781150
23552423 10 18115310110537141397
3248919 1 18060416915221562811
57812782 119 11530483362927794784
581208 293 17704067395957021054
8030462 33 17822300033038584906

> <PUBCHEM_SHAPE_MULTIPOLES>
233.97
6.17
1.42
1.03
1.42
0.13
0.23
-0.86
0.17
-0.28
-0.12
-0.24
-0.28
0.04

> <PUBCHEM_SHAPE_SELFOVERLAP>
459.154

> <PUBCHEM_SHAPE_VOLUME>
142.4

> <PUBCHEM_COORDINATE_TYPE>
2
5
10

$$$$
