136595
  -OEChem-11012401223D

 22 23  0     1  0  0  0  0  0999 V2000
   -0.1011    0.9864    0.3251 C   0  0  1  0  0  0  0  0  0  0  0  0
    0.8178   -1.0423    0.3202 C   0  0  1  0  0  0  0  0  0  0  0  0
   -1.0913    0.1641   -0.5340 C   0  0  1  0  0  0  0  0  0  0  0  0
    0.3668   -0.0288    1.3701 C   0  0  0  0  0  0  0  0  0  0  0  0
   -0.4754   -1.2511   -0.4889 C   0  0  0  0  0  0  0  0  0  0  0  0
    1.1896    1.1922   -0.4899 C   0  0  0  0  0  0  0  0  0  0  0  0
    1.8081   -0.2135   -0.5154 C   0  0  0  0  0  0  0  0  0  0  0  0
   -2.5144    0.1930    0.0128 C   0  0  0  0  0  0  0  0  0  0  0  0
   -0.5136    1.9157    0.7239 H   0  0  0  0  0  0  0  0  0  0  0  0
    1.2427   -1.9691    0.7104 H   0  0  0  0  0  0  0  0  0  0  0  0
   -1.1147    0.5372   -1.5652 H   0  0  0  0  0  0  0  0  0  0  0  0
   -0.4361   -0.4010    2.0137 H   0  0  0  0  0  0  0  0  0  0  0  0
    1.1886    0.3413    1.9925 H   0  0  0  0  0  0  0  0  0  0  0  0
   -0.2740   -1.6369   -1.4937 H   0  0  0  0  0  0  0  0  0  0  0  0
   -1.1347   -1.9625    0.0217 H   0  0  0  0  0  0  0  0  0  0  0  0
    1.8632    1.8909    0.0194 H   0  0  0  0  0  0  0  0  0  0  0  0
    0.9985    1.5772   -1.4964 H   0  0  0  0  0  0  0  0  0  0  0  0
    1.9198   -0.5959   -1.5349 H   0  0  0  0  0  0  0  0  0  0  0  0
    2.7979   -0.1971   -0.0454 H   0  0  0  0  0  0  0  0  0  0  0  0
   -3.1732   -0.4292   -0.6021 H   0  0  0  0  0  0  0  0  0  0  0  0
   -2.5686   -0.1764    1.0417 H   0  0  0  0  0  0  0  0  0  0  0  0
   -2.9080    1.2146    0.0017 H   0  0  0  0  0  0  0  0  0  0  0  0
  1  3  1  0  0  0  0
  1  4  1  0  0  0  0
  1  6  1  0  0  0  0
  1  9  1  0  0  0  0
  2  4  1  0  0  0  0
  2  5  1  0  0  0  0
  2  7  1  0  0  0  0
  2 10  1  0  0  0  0
  3  5  1  0  0  0  0
  3  8  1  0  0  0  0
  3 11  1  0  0  0  0
  4 12  1  0  0  0  0
  4 13  1  0  0  0  0
  5 14  1  0  0  0  0
  5 15  1  0  0  0  0
  6  7  1  0  0  0  0
  6 16  1  0  0  0  0
  6 17  1  0  0  0  0
  7 18  1  0  0  0  0
  7 19  1  0  0  0  0
  8 20  1  0  0  0  0
  8 21  1  0  0  0  0
  8 22  1  0  0  0  0
M  END
> <PUBCHEM_COMPOUND_CID>
136595

> <PUBCHEM_CONFORMER_RMSD>
0.4

> <PUBCHEM_CONFORMER_DIVERSEORDER>
2
1

> <PUBCHEM_MMFF94_PARTIAL_CHARGES>
0

> <PUBCHEM_EFFECTIVE_ROTOR_COUNT>
1

> <PUBCHEM_PHARMACOPHORE_FEATURES>
1
7 1 2 3 4 5 6 7 rings

> <PUBCHEM_HEAVY_ATOM_COUNT>
8

> <PUBCHEM_ATOM_DEF_STEREO_COUNT>
1

> <PUBCHEM_ATOM_UDEF_STEREO_COUNT>
2

> <PUBCHEM_BOND_DEF_STEREO_COUNT>
0

> <PUBCHEM_BOND_UDEF_STEREO_COUNT>
0

> <PUBCHEM_ISOTOPIC_ATOM_COUNT>
0

> <PUBCHEM_COMPONENT_COUNT>
1

> <PUBCHEM_CACTVS_TAUTO_COUNT>
1

> <PUBCHEM_CONFORMER_ID>
0002159300000002

> <PUBCHEM_MMFF94_ENERGY>
24.9264

> <PUBCHEM_FEATURE_SELFOVERLAP>
5.074

> <PUBCHEM_SHAPE_FINGERPRINT>
12423570 1 9043493828757897890
13024252 1 16953682741923899980
137420 1 17392755173839842002
16945 1 18333455326232355222
21040471 1 18270110331189544551
29004967 10 18261395494537584683
5084963 1 17313108557110055804
5943 1 10765307700468065450
68250623 7 17970356025170115306

> <PUBCHEM_SHAPE_MULTIPOLES>
164.64
2.27
1.26
1.01
1.14
0.05
0.26
-0.18
-0.33
-0.21
-0.1
-0.14
0.01
-0.13

> <PUBCHEM_SHAPE_SELFOVERLAP>
343.834

> <PUBCHEM_SHAPE_VOLUME>
93.4

> <PUBCHEM_COORDINATE_TYPE>
2
5
10

$$$$
