137515
  -OEChem-11012401103D

 24 25  0     0  0  0  0  0  0999 V2000
   -2.5198    1.8845   -1.0975 O   0  5  0  0  0  0  0  0  0  0  0  0
   -2.5192    1.8852    1.0978 O   0  0  0  0  0  0  0  0  0  0  0  0
    4.0807    0.1120    1.0979 O   0  5  0  0  0  0  0  0  0  0  0  0
    4.0811    0.1120   -1.0974 O   0  0  0  0  0  0  0  0  0  0  0  0
   -3.2171   -0.8506    1.0977 O   0  5  0  0  0  0  0  0  0  0  0  0
   -3.2174   -0.8509   -1.0975 O   0  0  0  0  0  0  0  0  0  0  0  0
   -1.9527    1.6835    0.0000 N   0  3  0  0  0  0  0  0  0  0  0  0
    3.4912    0.2320    0.0001 N   0  3  0  0  0  0  0  0  0  0  0  0
   -2.6233   -0.9452    0.0000 N   0  3  0  0  0  0  0  0  0  0  0  0
   -0.2460   -0.1513   -0.0001 C   0  0  0  0  0  0  0  0  0  0  0  0
    1.1253   -0.5012   -0.0001 C   0  0  0  0  0  0  0  0  0  0  0  0
   -0.6087    1.2055   -0.0002 C   0  0  0  0  0  0  0  0  0  0  0  0
    2.0936    0.5160   -0.0002 C   0  0  0  0  0  0  0  0  0  0  0  0
   -1.2143   -1.1686    0.0000 C   0  0  0  0  0  0  0  0  0  0  0  0
    1.4879   -1.8580    0.0000 C   0  0  0  0  0  0  0  0  0  0  0  0
    0.3667    2.2029   -0.0003 C   0  0  0  0  0  0  0  0  0  0  0  0
    1.7153    1.8589   -0.0002 C   0  0  0  0  0  0  0  0  0  0  0  0
   -0.8359   -2.5114    0.0001 C   0  0  0  0  0  0  0  0  0  0  0  0
    0.5125   -2.8555    0.0000 C   0  0  0  0  0  0  0  0  0  0  0  0
    2.5283   -2.1741    0.0000 H   0  0  0  0  0  0  0  0  0  0  0  0
    0.0945    3.2561   -0.0002 H   0  0  0  0  0  0  0  0  0  0  0  0
    2.4619    2.6497   -0.0002 H   0  0  0  0  0  0  0  0  0  0  0  0
   -1.5792   -3.3058    0.0002 H   0  0  0  0  0  0  0  0  0  0  0  0
    0.8063   -3.9012    0.0001 H   0  0  0  0  0  0  0  0  0  0  0  0
  1  7  1  0  0  0  0
  2  7  2  0  0  0  0
  3  8  1  0  0  0  0
  4  8  2  0  0  0  0
  5  9  1  0  0  0  0
  6  9  2  0  0  0  0
  7 12  1  0  0  0  0
  8 13  1  0  0  0  0
  9 14  1  0  0  0  0
 10 11  1  0  0  0  0
 10 12  2  0  0  0  0
 10 14  1  0  0  0  0
 11 13  2  0  0  0  0
 11 15  1  0  0  0  0
 12 16  1  0  0  0  0
 13 17  1  0  0  0  0
 14 18  2  0  0  0  0
 15 19  2  0  0  0  0
 15 20  1  0  0  0  0
 16 17  2  0  0  0  0
 16 21  1  0  0  0  0
 17 22  1  0  0  0  0
 18 19  1  0  0  0  0
 18 23  1  0  0  0  0
 19 24  1  0  0  0  0
M  CHG  6   1  -1   3  -1   5  -1   7   1   8   1   9   1
M  END
> <PUBCHEM_COMPOUND_CID>
137515

> <PUBCHEM_CONFORMER_RMSD>
0.6

> <PUBCHEM_CONFORMER_DIVERSEORDER>
1

> <PUBCHEM_MMFF94_PARTIAL_CHARGES>
22
1 -0.52
12 0.13
13 0.13
14 0.13
15 -0.15
16 -0.15
17 -0.15
18 -0.15
19 -0.15
2 -0.52
20 0.15
21 0.15
22 0.15
23 0.15
24 0.15
3 -0.52
4 -0.52
5 -0.52
6 -0.52
7 0.91
8 0.91
9 0.91

> <PUBCHEM_EFFECTIVE_ROTOR_COUNT>
3

> <PUBCHEM_PHARMACOPHORE_FEATURES>
11
1 1 acceptor
1 1 anion
1 2 acceptor
1 3 acceptor
1 3 anion
1 4 acceptor
1 5 acceptor
1 5 anion
1 6 acceptor
6 10 11 12 13 16 17 rings
6 10 11 14 15 18 19 rings

> <PUBCHEM_HEAVY_ATOM_COUNT>
19

> <PUBCHEM_ATOM_DEF_STEREO_COUNT>
0

> <PUBCHEM_ATOM_UDEF_STEREO_COUNT>
0

> <PUBCHEM_BOND_DEF_STEREO_COUNT>
0

> <PUBCHEM_BOND_UDEF_STEREO_COUNT>
0

> <PUBCHEM_ISOTOPIC_ATOM_COUNT>
0

> <PUBCHEM_COMPONENT_COUNT>
1

> <PUBCHEM_CACTVS_TAUTO_COUNT>
1

> <PUBCHEM_CONFORMER_ID>
0002192B00000001

> <PUBCHEM_MMFF94_ENERGY>
81.9759

> <PUBCHEM_FEATURE_SELFOVERLAP>
56.102

> <PUBCHEM_SHAPE_FINGERPRINT>
10967382 1 18122344575404336740
11132069 177 18271524307432745522
11206711 2 18409729577406554501
11680986 33 18121782733515840467
12382932 28 18338794494762615312
13140716 1 18050568739869353994
13380535 21 18267032652009048890
13380535 76 18336538305286572930
14178342 30 18341328877491277344
14614273 12 18260823753060447741
14790565 3 18265918979843287461
16752209 62 18336814364341119926
16945 1 18338797922014745830
193761 8 18122624946616910182
19591789 44 18339091388767383542
20028762 73 17841161261756201271
20510252 161 18272653471694302416
20871999 31 18267887093562674940
21501502 16 18266737987177495571
22182313 1 18339651014115093319
22344851 341 18268153054458330482
2334 1 18338517434906964974
23402539 116 18270667774942437534
23419403 2 16249910242504127792
23463225 33 18334289830320919898
23493267 7 17458614644970471923
23559900 14 18271815593264533132
2748010 2 18267027158746150286
43471831 8 18336263449139789466
58807428 26 18265607689598688882
7364860 26 17910390589674290070
81228 2 18194679491407185402

> <PUBCHEM_SHAPE_MULTIPOLES>
340.85
5.33
2.9
0.88
2.48
0.62
0
-0.66
0
-0.9
0
-0.17
-0.12
0

> <PUBCHEM_SHAPE_SELFOVERLAP>
753.35

> <PUBCHEM_SHAPE_VOLUME>
180.9

> <PUBCHEM_COORDINATE_TYPE>
2
5
10

$$$$
