15046925
  -OEChem-11012401243D

 45 44  0     0  0  0  0  0  0999 V2000
    3.4021   -0.4409   -0.2914 Si  0  0  0  0  0  0  0  0  0  0  0  0
   -1.5208    0.4043   -0.7221 O   0  0  0  0  0  0  0  0  0  0  0  0
   -1.4642    1.1075    0.5511 O   0  0  0  0  0  0  0  0  0  0  0  0
   -2.6417   -0.4752   -0.6094 C   0  0  0  0  0  0  0  0  0  0  0  0
   -2.4069   -1.4093    0.5950 C   0  0  0  0  0  0  0  0  0  0  0  0
   -1.1403   -2.2680    0.4956 C   0  0  0  0  0  0  0  0  0  0  0  0
   -3.8880    0.3809   -0.3607 C   0  0  0  0  0  0  0  0  0  0  0  0
   -2.7897   -1.2430   -1.9248 C   0  0  0  0  0  0  0  0  0  0  0  0
   -0.3510    1.9830    0.4437 C   0  0  0  0  0  0  0  0  0  0  0  0
   -0.9362   -3.0997    1.7536 C   0  0  0  0  0  0  0  0  0  0  0  0
   -0.6030    2.9496   -0.7131 C   0  0  0  0  0  0  0  0  0  0  0  0
   -0.2404    2.7443    1.7633 C   0  0  0  0  0  0  0  0  0  0  0  0
    3.6520   -0.7233   -2.1381 C   0  0  0  0  0  0  0  0  0  0  0  0
    4.9125    0.4620    0.3842 C   0  0  0  0  0  0  0  0  0  0  0  0
    3.2797   -2.1188    0.5585 C   0  0  0  0  0  0  0  0  0  0  0  0
    0.8706    1.1949    0.2048 C   0  0  0  0  0  0  0  0  0  0  0  0
    1.8655    0.5516    0.0098 C   0  0  0  0  0  0  0  0  0  0  0  0
   -3.2724   -2.0782    0.6973 H   0  0  0  0  0  0  0  0  0  0  0  0
   -2.3630   -0.8384    1.5311 H   0  0  0  0  0  0  0  0  0  0  0  0
   -0.2598   -1.6375    0.3440 H   0  0  0  0  0  0  0  0  0  0  0  0
   -1.2076   -2.9465   -0.3613 H   0  0  0  0  0  0  0  0  0  0  0  0
   -3.9798    1.1636   -1.1227 H   0  0  0  0  0  0  0  0  0  0  0  0
   -3.8643    0.8901    0.6090 H   0  0  0  0  0  0  0  0  0  0  0  0
   -4.7968   -0.2306   -0.3848 H   0  0  0  0  0  0  0  0  0  0  0  0
   -1.8564   -1.7432   -2.2036 H   0  0  0  0  0  0  0  0  0  0  0  0
   -3.0164   -0.5550   -2.7478 H   0  0  0  0  0  0  0  0  0  0  0  0
   -3.5889   -1.9889   -1.8698 H   0  0  0  0  0  0  0  0  0  0  0  0
   -1.7849   -3.7698    1.9233 H   0  0  0  0  0  0  0  0  0  0  0  0
   -0.8217   -2.4585    2.6333 H   0  0  0  0  0  0  0  0  0  0  0  0
   -0.0332   -3.7111    1.6602 H   0  0  0  0  0  0  0  0  0  0  0  0
   -1.5746    3.4452   -0.6027 H   0  0  0  0  0  0  0  0  0  0  0  0
    0.1735    3.7218   -0.7626 H   0  0  0  0  0  0  0  0  0  0  0  0
   -0.6146    2.4465   -1.6871 H   0  0  0  0  0  0  0  0  0  0  0  0
   -0.1067    2.0536    2.6049 H   0  0  0  0  0  0  0  0  0  0  0  0
   -1.1584    3.3075    1.9674 H   0  0  0  0  0  0  0  0  0  0  0  0
    0.6031    3.4435    1.7620 H   0  0  0  0  0  0  0  0  0  0  0  0
    2.8015   -1.2653   -2.5620 H   0  0  0  0  0  0  0  0  0  0  0  0
    3.7497    0.2315   -2.6630 H   0  0  0  0  0  0  0  0  0  0  0  0
    4.5582   -1.3095   -2.3167 H   0  0  0  0  0  0  0  0  0  0  0  0
    5.0285    1.4345   -0.1033 H   0  0  0  0  0  0  0  0  0  0  0  0
    4.8125    0.6250    1.4613 H   0  0  0  0  0  0  0  0  0  0  0  0
    5.8196   -0.1232    0.2066 H   0  0  0  0  0  0  0  0  0  0  0  0
    3.1501   -1.9943    1.6376 H   0  0  0  0  0  0  0  0  0  0  0  0
    2.4264   -2.6837    0.1714 H   0  0  0  0  0  0  0  0  0  0  0  0
    4.1879   -2.7035    0.3849 H   0  0  0  0  0  0  0  0  0  0  0  0
  1 13  1  0  0  0  0
  1 14  1  0  0  0  0
  1 15  1  0  0  0  0
  1 17  1  0  0  0  0
  2  3  1  0  0  0  0
  2  4  1  0  0  0  0
  3  9  1  0  0  0  0
  4  5  1  0  0  0  0
  4  7  1  0  0  0  0
  4  8  1  0  0  0  0
  5  6  1  0  0  0  0
  5 18  1  0  0  0  0
  5 19  1  0  0  0  0
  6 10  1  0  0  0  0
  6 20  1  0  0  0  0
  6 21  1  0  0  0  0
  7 22  1  0  0  0  0
  7 23  1  0  0  0  0
  7 24  1  0  0  0  0
  8 25  1  0  0  0  0
  8 26  1  0  0  0  0
  8 27  1  0  0  0  0
  9 11  1  0  0  0  0
  9 12  1  0  0  0  0
  9 16  1  0  0  0  0
 10 28  1  0  0  0  0
 10 29  1  0  0  0  0
 10 30  1  0  0  0  0
 11 31  1  0  0  0  0
 11 32  1  0  0  0  0
 11 33  1  0  0  0  0
 12 34  1  0  0  0  0
 12 35  1  0  0  0  0
 12 36  1  0  0  0  0
 13 37  1  0  0  0  0
 13 38  1  0  0  0  0
 13 39  1  0  0  0  0
 14 40  1  0  0  0  0
 14 41  1  0  0  0  0
 14 42  1  0  0  0  0
 15 43  1  0  0  0  0
 15 44  1  0  0  0  0
 15 45  1  0  0  0  0
 16 17  3  0  0  0  0
M  END
> <PUBCHEM_COMPOUND_CID>
15046925

> <PUBCHEM_CONFORMER_RMSD>
0.6

> <PUBCHEM_CONFORMER_DIVERSEORDER>
1
10
15
14
7
4
16
3
20
17
19
23
22
5
8
2
13
21
6
18
12
11
9

> <PUBCHEM_MMFF94_PARTIAL_CHARGES>
10
1 0.54
13 -0.08
14 -0.08
15 -0.08
16 -0.2
17 -0.29
2 -0.28
3 -0.28
4 0.28
9 0.48

> <PUBCHEM_EFFECTIVE_ROTOR_COUNT>
5

> <PUBCHEM_PHARMACOPHORE_FEATURES>
3
1 10 hydrophobe
3 4 7 8 hydrophobe
3 9 11 12 hydrophobe

> <PUBCHEM_HEAVY_ATOM_COUNT>
17

> <PUBCHEM_ATOM_DEF_STEREO_COUNT>
0

> <PUBCHEM_ATOM_UDEF_STEREO_COUNT>
0

> <PUBCHEM_BOND_DEF_STEREO_COUNT>
0

> <PUBCHEM_BOND_UDEF_STEREO_COUNT>
0

> <PUBCHEM_ISOTOPIC_ATOM_COUNT>
0

> <PUBCHEM_COMPONENT_COUNT>
1

> <PUBCHEM_CACTVS_TAUTO_COUNT>
1

> <PUBCHEM_CONFORMER_ID>
00E5990D00000001

> <PUBCHEM_MMFF94_ENERGY>
22.1663

> <PUBCHEM_FEATURE_SELFOVERLAP>
15.224

> <PUBCHEM_SHAPE_FINGERPRINT>
10366900 7 18273209820730973312
12363563 72 18202006563875102550
12553582 1 18337123314566494976
12592029 89 17469612810427677049
12596599 1 16558486248183749062
12788726 201 18200319818622887512
14115302 16 18113904887600898372
14178342 30 17839173018562255920
15375358 24 18341326773331549366
15415430 2 18339938025547345446
15852999 172 17257046860676744025
15880784 105 17060052705367700126
16752209 62 18264200310040106192
20600515 1 18334852870352921532
20832881 197 18412818097712310843
21079973 296 18338795723571713160
23402539 116 18411408523541628054
23557571 272 18271810078057643444
23559900 14 18336259137630687464
238078 22 18118707601883609926
2748010 2 17687175809003695027
598444 67 18188212117116516027
81228 2 18270414788673835040
8809292 202 18335982060061930954
9709674 26 18341615897908933806

> <PUBCHEM_SHAPE_MULTIPOLES>
356.33
7.28
3.36
1.65
5.5
0.34
-0.35
-2.25
-2.1
-1.36
1.65
-0.06
-0.46
0.22

> <PUBCHEM_SHAPE_SELFOVERLAP>
652.089

> <PUBCHEM_SHAPE_VOLUME>
230.5

> <PUBCHEM_COORDINATE_TYPE>
2
5
10

$$$$
