78493
  -OEChem-11012401103D

 19 19  0     0  0  0  0  0  0999 V2000
    0.2824   -1.7180   -0.5245 S   0  0  0  0  0  0  0  0  0  0  0  0
   -0.9129    1.2452   -0.4791 C   0  0  0  0  0  0  0  0  0  0  0  0
    0.3336    1.5205    0.3595 C   0  0  0  0  0  0  0  0  0  0  0  0
   -1.7909    0.0953    0.0157 C   0  0  0  0  0  0  0  0  0  0  0  0
    1.5720    0.7545   -0.1136 C   0  0  0  0  0  0  0  0  0  0  0  0
   -1.0968   -1.1660    0.5163 C   0  0  0  0  0  0  0  0  0  0  0  0
    1.6127   -0.7314    0.2256 C   0  0  0  0  0  0  0  0  0  0  0  0
   -1.5357    2.1494   -0.4832 H   0  0  0  0  0  0  0  0  0  0  0  0
   -0.6351    1.0781   -1.5271 H   0  0  0  0  0  0  0  0  0  0  0  0
    0.5646    2.5894    0.2620 H   0  0  0  0  0  0  0  0  0  0  0  0
    0.1453    1.3439    1.4246 H   0  0  0  0  0  0  0  0  0  0  0  0
   -2.4290    0.4669    0.8283 H   0  0  0  0  0  0  0  0  0  0  0  0
   -2.4814   -0.1738   -0.7946 H   0  0  0  0  0  0  0  0  0  0  0  0
    1.7071    0.8946   -1.1937 H   0  0  0  0  0  0  0  0  0  0  0  0
    2.4482    1.2190    0.3576 H   0  0  0  0  0  0  0  0  0  0  0  0
   -0.7440   -1.0279    1.5441 H   0  0  0  0  0  0  0  0  0  0  0  0
   -1.8305   -1.9788    0.5549 H   0  0  0  0  0  0  0  0  0  0  0  0
    2.5593   -1.1457   -0.1384 H   0  0  0  0  0  0  0  0  0  0  0  0
    1.6056   -0.8804    1.3108 H   0  0  0  0  0  0  0  0  0  0  0  0
  1  6  1  0  0  0  0
  1  7  1  0  0  0  0
  2  3  1  0  0  0  0
  2  4  1  0  0  0  0
  2  8  1  0  0  0  0
  2  9  1  0  0  0  0
  3  5  1  0  0  0  0
  3 10  1  0  0  0  0
  3 11  1  0  0  0  0
  4  6  1  0  0  0  0
  4 12  1  0  0  0  0
  4 13  1  0  0  0  0
  5  7  1  0  0  0  0
  5 14  1  0  0  0  0
  5 15  1  0  0  0  0
  6 16  1  0  0  0  0
  6 17  1  0  0  0  0
  7 18  1  0  0  0  0
  7 19  1  0  0  0  0
M  END
> <PUBCHEM_COMPOUND_CID>
78493

> <PUBCHEM_CONFORMER_RMSD>
0.4

> <PUBCHEM_CONFORMER_DIVERSEORDER>
1
2
3
4

> <PUBCHEM_MMFF94_PARTIAL_CHARGES>
3
1 -0.46
6 0.23
7 0.23

> <PUBCHEM_EFFECTIVE_ROTOR_COUNT>
1.4

> <PUBCHEM_PHARMACOPHORE_FEATURES>
1
7 1 2 3 4 5 6 7 rings

> <PUBCHEM_HEAVY_ATOM_COUNT>
7

> <PUBCHEM_ATOM_DEF_STEREO_COUNT>
0

> <PUBCHEM_ATOM_UDEF_STEREO_COUNT>
0

> <PUBCHEM_BOND_DEF_STEREO_COUNT>
0

> <PUBCHEM_BOND_UDEF_STEREO_COUNT>
0

> <PUBCHEM_ISOTOPIC_ATOM_COUNT>
0

> <PUBCHEM_COMPONENT_COUNT>
1

> <PUBCHEM_CACTVS_TAUTO_COUNT>
1

> <PUBCHEM_CONFORMER_ID>
0001329D00000001

> <PUBCHEM_MMFF94_ENERGY>
9.3273

> <PUBCHEM_FEATURE_SELFOVERLAP>
5.074

> <PUBCHEM_SHAPE_FINGERPRINT>
16714656 1 18193851563457038772
18185500 45 16467271080969838166
21040471 1 18267584787224360296
241688 4 16970549915665729002
66348 1 18266458904507903887

> <PUBCHEM_SHAPE_MULTIPOLES>
147.91
2.09
1.99
0.77
0.01
0.14
0.02
-0.01
-0.05
0.11
0.08
-0.03
0.07
0.2

> <PUBCHEM_SHAPE_SELFOVERLAP>
261.91

> <PUBCHEM_SHAPE_VOLUME>
93.6

> <PUBCHEM_COORDINATE_TYPE>
2
5
10

$$$$
