141439
  -OEChem-11012400473D

 15 14  0     0  0  0  0  0  0999 V2000
   -0.2588   -1.7507    0.0792 O   0  0  0  0  0  0  0  0  0  0  0  0
   -2.8919    1.3903   -0.0829 O   0  5  0  0  0  0  0  0  0  0  0  0
   -2.5297   -0.7459    0.4218 O   0  0  0  0  0  0  0  0  0  0  0  0
   -0.8571    0.4464   -0.3840 N   0  0  0  0  0  0  0  0  0  0  0  0
    1.2640   -0.2727   -0.8104 N   0  0  0  0  0  0  0  0  0  0  0  0
   -2.2069    0.3712    0.0150 N   0  3  0  0  0  0  0  0  0  0  0  0
    3.4379    0.6161   -0.2810 N   0  0  0  0  0  0  0  0  0  0  0  0
    1.8647    0.3569    1.3506 N   0  0  0  0  0  0  0  0  0  0  0  0
    0.0225   -0.6237   -0.3229 C   0  0  0  0  0  0  0  0  0  0  0  0
    2.1553    0.2121    0.0145 C   0  0  0  0  0  0  0  0  0  0  0  0
   -0.5580    1.3509   -0.7332 H   0  0  0  0  0  0  0  0  0  0  0  0
    3.7981    0.5641   -1.2277 H   0  0  0  0  0  0  0  0  0  0  0  0
    4.0576    0.9792    0.4349 H   0  0  0  0  0  0  0  0  0  0  0  0
    0.9668    0.1063    1.7488 H   0  0  0  0  0  0  0  0  0  0  0  0
    2.5544    0.7307    1.9940 H   0  0  0  0  0  0  0  0  0  0  0  0
  1  9  2  0  0  0  0
  2  6  1  0  0  0  0
  3  6  2  0  0  0  0
  4  6  1  0  0  0  0
  4  9  1  0  0  0  0
  4 11  1  0  0  0  0
  5  9  1  0  0  0  0
  5 10  2  0  0  0  0
  7 10  1  0  0  0  0
  7 12  1  0  0  0  0
  7 13  1  0  0  0  0
  8 10  1  0  0  0  0
  8 14  1  0  0  0  0
  8 15  1  0  0  0  0
M  CHG  2   2  -1   6   1
M  END
> <PUBCHEM_COMPOUND_CID>
141439

> <PUBCHEM_CONFORMER_RMSD>
0.6

> <PUBCHEM_CONFORMER_DIVERSEORDER>
1
5
6
4
2
3

> <PUBCHEM_MMFF94_PARTIAL_CHARGES>
15
1 -0.57
10 0.55
11 0.37
12 0.4
13 0.4
14 0.4
15 0.4
2 -0.52
3 -0.52
4 -0.41
5 -0.66
6 1.02
7 -0.85
8 -0.85
9 0.84

> <PUBCHEM_EFFECTIVE_ROTOR_COUNT>
3

> <PUBCHEM_PHARMACOPHORE_FEATURES>
7
1 1 acceptor
1 2 acceptor
1 3 acceptor
1 4 donor
1 5 donor
1 7 donor
1 8 donor

> <PUBCHEM_HEAVY_ATOM_COUNT>
10

> <PUBCHEM_ATOM_DEF_STEREO_COUNT>
0

> <PUBCHEM_ATOM_UDEF_STEREO_COUNT>
0

> <PUBCHEM_BOND_DEF_STEREO_COUNT>
0

> <PUBCHEM_BOND_UDEF_STEREO_COUNT>
0

> <PUBCHEM_ISOTOPIC_ATOM_COUNT>
0

> <PUBCHEM_COMPONENT_COUNT>
1

> <PUBCHEM_CACTVS_TAUTO_COUNT>
5

> <PUBCHEM_CONFORMER_ID>
0002287F00000001

> <PUBCHEM_MMFF94_ENERGY>
30.7657

> <PUBCHEM_FEATURE_SELFOVERLAP>
35.799

> <PUBCHEM_SHAPE_FINGERPRINT>
10857977 72 18337110163344934201
11062470 55 12901540260666172807
12897270 3 16200426961982251997
12932764 1 17775281685676780262
14325111 11 18410013225763291174
14390081 3 18201716207027401057
20653085 51 16486977340180029176
21028194 46 18202566202318891976
21040471 1 18410856563987751390
23235685 24 18412823586137267644
5084963 1 18202288034335098003

> <PUBCHEM_SHAPE_MULTIPOLES>
163.28
4.59
1.18
0.82
0.19
0.25
-0.17
-1.72
-0.18
-0.62
-0.02
0.37
-0.04
0.2

> <PUBCHEM_SHAPE_SELFOVERLAP>
317.956

> <PUBCHEM_SHAPE_VOLUME>
96.8

> <PUBCHEM_COORDINATE_TYPE>
2
5
10

$$$$
