139197985
  -OEChem-10312420432D

 38 39  0     0  0  0  0  0  0999 V2000
    0.5703    0.0000    0.0000 N   0  0  0  0  0  0  0  0  0  0  0  0
    4.0344    0.0000    0.0000 N   0  0  0  0  0  0  0  0  0  0  0  0
    4.0344    6.0000    0.0000 N   0  0  0  0  0  0  0  0  0  0  0  0
    0.5703    6.0000    0.0000 N   0  0  0  0  0  0  0  0  0  0  0  0
    2.2690    9.1700    0.0000 C   0  0  0  0  0  0  0  0  0  0  0  0
    2.2690   10.1700    0.0000 C   0  0  0  0  0  0  0  0  0  0  0  0
    3.1629    8.6354    0.0000 C   0  0  0  0  0  0  0  0  0  0  0  0
    3.1629   10.7047    0.0000 C   0  0  0  0  0  0  0  0  0  0  0  0
    1.4030    8.6700    0.0000 C   0  0  0  0  0  0  0  0  0  0  0  0
    1.4030   10.6700    0.0000 C   0  0  0  0  0  0  0  0  0  0  0  0
    4.0690    9.1492    0.0000 C   0  0  0  0  0  0  0  0  0  0  0  0
    4.0690   10.1909    0.0000 C   0  0  0  0  0  0  0  0  0  0  0  0
    0.5369    9.1700    0.0000 C   0  0  0  0  0  0  0  0  0  0  0  0
    0.5369   10.1700    0.0000 C   0  0  0  0  0  0  0  0  0  0  0  0
    2.3024    2.0000    0.0000 C   0  0  0  0  0  0  0  0  0  0  0  0
    2.3024    4.0000    0.0000 C   0  0  0  0  0  0  0  0  0  0  0  0
    1.4363    3.5000    0.0000 C   0  0  0  0  0  0  0  0  0  0  0  0
    1.4363    2.5000    0.0000 C   0  0  0  0  0  0  0  0  0  0  0  0
    3.1684    3.5000    0.0000 C   0  0  0  0  0  0  0  0  0  0  0  0
    3.1684    2.5000    0.0000 C   0  0  0  0  0  0  0  0  0  0  0  0
    2.3024    1.0000    0.0000 C   0  0  0  0  0  0  0  0  0  0  0  0
    2.3024    5.0000    0.0000 C   0  0  0  0  0  0  0  0  0  0  0  0
    1.4363    0.5000    0.0000 C   0  0  0  0  0  0  0  0  0  0  0  0
    3.1684    0.5000    0.0000 C   0  0  0  0  0  0  0  0  0  0  0  0
    3.1684    5.5000    0.0000 C   0  0  0  0  0  0  0  0  0  0  0  0
    1.4363    5.5000    0.0000 C   0  0  0  0  0  0  0  0  0  0  0  0
    3.1558    8.0154    0.0000 H   0  0  0  0  0  0  0  0  0  0  0  0
    3.1558   11.3247    0.0000 H   0  0  0  0  0  0  0  0  0  0  0  0
    1.4030    8.0500    0.0000 H   0  0  0  0  0  0  0  0  0  0  0  0
    1.4030   11.2900    0.0000 H   0  0  0  0  0  0  0  0  0  0  0  0
    4.6047    8.8372    0.0000 H   0  0  0  0  0  0  0  0  0  0  0  0
    4.6047   10.5029    0.0000 H   0  0  0  0  0  0  0  0  0  0  0  0
    0.0000    8.8600    0.0000 H   0  0  0  0  0  0  0  0  0  0  0  0
    0.0000   10.4800    0.0000 H   0  0  0  0  0  0  0  0  0  0  0  0
    0.8994    3.8100    0.0000 H   0  0  0  0  0  0  0  0  0  0  0  0
    3.7053    3.8100    0.0000 H   0  0  0  0  0  0  0  0  0  0  0  0
    0.8994    2.1900    0.0000 H   0  0  0  0  0  0  0  0  0  0  0  0
    3.7053    2.1900    0.0000 H   0  0  0  0  0  0  0  0  0  0  0  0
  1 23  3  0  0  0  0
  2 24  3  0  0  0  0
  3 25  3  0  0  0  0
  4 26  3  0  0  0  0
  5  6  1  0  0  0  0
  5  7  2  0  0  0  0
  5  9  1  0  0  0  0
  6  8  2  0  0  0  0
  6 10  1  0  0  0  0
  7 11  1  0  0  0  0
  7 27  1  0  0  0  0
  8 12  1  0  0  0  0
  8 28  1  0  0  0  0
  9 13  2  0  0  0  0
  9 29  1  0  0  0  0
 10 14  2  0  0  0  0
 10 30  1  0  0  0  0
 11 12  2  0  0  0  0
 11 31  1  0  0  0  0
 12 32  1  0  0  0  0
 13 14  1  0  0  0  0
 13 33  1  0  0  0  0
 14 34  1  0  0  0  0
 15 18  1  0  0  0  0
 15 20  1  0  0  0  0
 15 21  2  0  0  0  0
 16 17  1  0  0  0  0
 16 19  1  0  0  0  0
 16 22  2  0  0  0  0
 17 18  2  0  0  0  0
 17 35  1  0  0  0  0
 18 37  1  0  0  0  0
 19 20  2  0  0  0  0
 19 36  1  0  0  0  0
 20 38  1  0  0  0  0
 21 23  1  0  0  0  0
 21 24  1  0  0  0  0
 22 25  1  0  0  0  0
 22 26  1  0  0  0  0
M  END
> <PUBCHEM_COMPOUND_CID>
139197985

> <PUBCHEM_COMPOUND_CANONICALIZED>
1

> <PUBCHEM_CACTVS_COMPLEXITY>
615

> <PUBCHEM_CACTVS_HBOND_ACCEPTOR>
4

> <PUBCHEM_CACTVS_HBOND_DONOR>
0

> <PUBCHEM_CACTVS_ROTATABLE_BOND>
0

> <PUBCHEM_CACTVS_SUBSKEYS>
AAADccB7gAAAAAAAAAAAAAAAAAAAAAAAAAAwYIAAAAAAAADBUAAAHAAAAAAADACBGAAwAMAAAACQBiBCAAAiAAAgAAAIiAAAAIgIoCKAERCAIAAggAAIiAcAgIAOgAAAAAAQAAAAAAAAACAAAAAAAAAAAA==

> <PUBCHEM_IUPAC_OPENEYE_NAME>
2-[4-(dicyanomethylene)cyclohexa-2,5-dien-1-ylidene]propanedinitrile;naphthalene

> <PUBCHEM_IUPAC_CAS_NAME>
2-[4-(dicyanomethylidene)-1-cyclohexa-2,5-dienylidene]propanedinitrile;naphthalene

> <PUBCHEM_IUPAC_NAME_MARKUP>
2-[4-(dicyanomethylidene)cyclohexa-2,5-dien-1-ylidene]propanedinitrile;naphthalene

> <PUBCHEM_IUPAC_NAME>
2-[4-(dicyanomethylidene)cyclohexa-2,5-dien-1-ylidene]propanedinitrile;naphthalene

> <PUBCHEM_IUPAC_SYSTEMATIC_NAME>
2-[4-(dicyanomethylidene)cyclohexa-2,5-dien-1-ylidene]propanedinitrile;naphthalene

> <PUBCHEM_IUPAC_TRADITIONAL_NAME>
2-[4-(dicyanomethylene)cyclohexa-2,5-dien-1-ylidene]malononitrile;naphthalene

> <PUBCHEM_IUPAC_INCHI>
InChI=1S/C12H4N4.C10H8/c13-5-11(6-14)9-1-2-10(4-3-9)12(7-15)8-16;1-2-6-10-8-4-3-7-9(10)5-1/h1-4H;1-8H

> <PUBCHEM_IUPAC_INCHIKEY>
HATRZXCFCOILEA-UHFFFAOYSA-N

> <PUBCHEM_EXACT_MASS>
332.106196400

> <PUBCHEM_MOLECULAR_FORMULA>
C22H12N4

> <PUBCHEM_MOLECULAR_WEIGHT>
332.4

> <PUBCHEM_OPENEYE_CAN_SMILES>
C1=CC=C2C=CC=CC2=C1.C1=CC(=C(C#N)C#N)C=CC1=C(C#N)C#N

> <PUBCHEM_OPENEYE_ISO_SMILES>
C1=CC=C2C=CC=CC2=C1.C1=CC(=C(C#N)C#N)C=CC1=C(C#N)C#N

> <PUBCHEM_CACTVS_TPSA>
95.2

> <PUBCHEM_MONOISOTOPIC_WEIGHT>
332.106196400

> <PUBCHEM_TOTAL_CHARGE>
0

> <PUBCHEM_HEAVY_ATOM_COUNT>
26

> <PUBCHEM_ATOM_DEF_STEREO_COUNT>
0

> <PUBCHEM_ATOM_UDEF_STEREO_COUNT>
0

> <PUBCHEM_BOND_DEF_STEREO_COUNT>
0

> <PUBCHEM_BOND_UDEF_STEREO_COUNT>
0

> <PUBCHEM_ISOTOPIC_ATOM_COUNT>
0

> <PUBCHEM_COMPONENT_COUNT>
2

> <PUBCHEM_CACTVS_TAUTO_COUNT>
-1

> <PUBCHEM_COORDINATE_TYPE>
1
5
255

> <PUBCHEM_BONDANNOTATIONS>
10  14  8
11  12  8
13  14  8
15  18  8
15  20  8
16  17  8
16  19  8
17  18  8
19  20  8
5  6  8
5  7  8
5  9  8
6  10  8
6  8  8
7  11  8
8  12  8
9  13  8

$$$$
