10820594
  -OEChem-11012400503D

 24 25  0     1  0  0  0  0  0999 V2000
   -3.3379    0.0001   -0.0017 O   0  0  0  0  0  0  0  0  0  0  0  0
    0.0934    0.7041   -0.3003 C   0  0  2  0  0  0  0  0  0  0  0  0
    0.0937   -0.7038    0.3013 C   0  0  2  0  0  0  0  0  0  0  0  0
    1.3125    1.4831    0.1706 C   0  0  0  0  0  0  0  0  0  0  0  0
    1.3122   -1.4830   -0.1704 C   0  0  0  0  0  0  0  0  0  0  0  0
   -1.2695    1.2544    0.1022 C   0  0  0  0  0  0  0  0  0  0  0  0
   -1.2693   -1.2547   -0.1002 C   0  0  0  0  0  0  0  0  0  0  0  0
    2.5891    0.7322   -0.2304 C   0  0  0  0  0  0  0  0  0  0  0  0
    2.5893   -0.7323    0.2288 C   0  0  0  0  0  0  0  0  0  0  0  0
   -2.1135   -0.0001   -0.0001 C   0  0  0  0  0  0  0  0  0  0  0  0
    0.1268    0.6332   -1.3983 H   0  0  0  0  0  0  0  0  0  0  0  0
    0.1278   -0.6330    1.3994 H   0  0  0  0  0  0  0  0  0  0  0  0
    1.2891    1.6102    1.2598 H   0  0  0  0  0  0  0  0  0  0  0  0
    1.3171    2.4857   -0.2715 H   0  0  0  0  0  0  0  0  0  0  0  0
    1.2878   -1.6105   -1.2596 H   0  0  0  0  0  0  0  0  0  0  0  0
    1.3171   -2.4854    0.2721 H   0  0  0  0  0  0  0  0  0  0  0  0
   -1.6202    2.0225   -0.5905 H   0  0  0  0  0  0  0  0  0  0  0  0
   -1.2869    1.6177    1.1336 H   0  0  0  0  0  0  0  0  0  0  0  0
   -1.6201   -2.0217    0.5937 H   0  0  0  0  0  0  0  0  0  0  0  0
   -1.2868   -1.6196   -1.1311 H   0  0  0  0  0  0  0  0  0  0  0  0
    3.4633    1.2470    0.1840 H   0  0  0  0  0  0  0  0  0  0  0  0
    2.6925    0.7611   -1.3224 H   0  0  0  0  0  0  0  0  0  0  0  0
    3.4630   -1.2470   -0.1866 H   0  0  0  0  0  0  0  0  0  0  0  0
    2.6941   -0.7611    1.3208 H   0  0  0  0  0  0  0  0  0  0  0  0
  1 10  2  0  0  0  0
  2  3  1  0  0  0  0
  2  4  1  0  0  0  0
  2  6  1  0  0  0  0
  2 11  1  0  0  0  0
  3  5  1  0  0  0  0
  3  7  1  0  0  0  0
  3 12  1  0  0  0  0
  4  8  1  0  0  0  0
  4 13  1  0  0  0  0
  4 14  1  0  0  0  0
  5  9  1  0  0  0  0
  5 15  1  0  0  0  0
  5 16  1  0  0  0  0
  6 10  1  0  0  0  0
  6 17  1  0  0  0  0
  6 18  1  0  0  0  0
  7 10  1  0  0  0  0
  7 19  1  0  0  0  0
  7 20  1  0  0  0  0
  8  9  1  0  0  0  0
  8 21  1  0  0  0  0
  8 22  1  0  0  0  0
  9 23  1  0  0  0  0
  9 24  1  0  0  0  0
M  END
> <PUBCHEM_COMPOUND_CID>
10820594

> <PUBCHEM_CONFORMER_RMSD>
0.4

> <PUBCHEM_CONFORMER_DIVERSEORDER>
1

> <PUBCHEM_MMFF94_PARTIAL_CHARGES>
4
1 -0.57
10 0.45
6 0.06
7 0.06

> <PUBCHEM_EFFECTIVE_ROTOR_COUNT>
1.2

> <PUBCHEM_PHARMACOPHORE_FEATURES>
3
1 1 acceptor
5 2 3 6 7 10 rings
6 2 3 4 5 8 9 rings

> <PUBCHEM_HEAVY_ATOM_COUNT>
10

> <PUBCHEM_ATOM_DEF_STEREO_COUNT>
2

> <PUBCHEM_ATOM_UDEF_STEREO_COUNT>
0

> <PUBCHEM_BOND_DEF_STEREO_COUNT>
0

> <PUBCHEM_BOND_UDEF_STEREO_COUNT>
0

> <PUBCHEM_ISOTOPIC_ATOM_COUNT>
0

> <PUBCHEM_COMPONENT_COUNT>
1

> <PUBCHEM_CACTVS_TAUTO_COUNT>
2

> <PUBCHEM_CONFORMER_ID>
00A51BF200000001

> <PUBCHEM_MMFF94_ENERGY>
12.9739

> <PUBCHEM_FEATURE_SELFOVERLAP>
15.295

> <PUBCHEM_SHAPE_FINGERPRINT>
12524768 44 18410859845295273247
12897270 3 18411420634932684308
14325111 11 18409730672807960781
15775835 57 18339929315258535196
16945 1 18412263934565540866
17844478 74 17967541172687588953
193761 8 17329709816900377066
20201158 50 18409729538815327330
21040471 1 18193839477477044460
23235685 24 18335978765695531180
23402655 69 18267569248929742693
23552423 10 18189617313950074518
241688 4 17906176144371979458
2748010 2 18050568744116477876
29004967 10 18335144180445647802
369184 2 18409727365508861705
5084963 1 18343300327598776352
528886 8 18411415154644163378
53812653 166 18271239547112145176
63268167 104 18410576175595438744

> <PUBCHEM_SHAPE_MULTIPOLES>
199.93
3.95
1.6
0.64
0.98
0
0
0
0
-0.41
0
-0.06
0
-0.06

> <PUBCHEM_SHAPE_SELFOVERLAP>
411.998

> <PUBCHEM_SHAPE_VOLUME>
116.3

> <PUBCHEM_COORDINATE_TYPE>
2
5
10

$$$$
