139375
  -OEChem-11012401153D

 17 17  0     1  0  0  0  0  0999 V2000
    2.7083    0.0401   -0.7420 N   0  0  0  0  0  0  0  0  0  0  0  0
   -0.2045    1.1789    0.8137 C   0  0  0  0  0  0  0  0  0  0  0  0
   -1.1031    1.3156   -0.4164 C   0  0  0  0  0  0  0  0  0  0  0  0
    0.5870   -0.1405    0.8081 C   0  0  1  0  0  0  0  0  0  0  0  0
   -2.0758    0.1401   -0.5319 C   0  0  0  0  0  0  0  0  0  0  0  0
   -0.2428   -1.3106    0.3559 C   0  0  0  0  0  0  0  0  0  0  0  0
   -1.4429   -1.1843   -0.2283 C   0  0  0  0  0  0  0  0  0  0  0  0
    1.7737   -0.0394   -0.0591 C   0  0  0  0  0  0  0  0  0  0  0  0
    0.4715    2.0407    0.8758 H   0  0  0  0  0  0  0  0  0  0  0  0
   -0.8375    1.2115    1.7107 H   0  0  0  0  0  0  0  0  0  0  0  0
   -0.4833    1.3692   -1.3205 H   0  0  0  0  0  0  0  0  0  0  0  0
   -1.6664    2.2545   -0.3661 H   0  0  0  0  0  0  0  0  0  0  0  0
    0.9246   -0.3333    1.8341 H   0  0  0  0  0  0  0  0  0  0  0  0
   -2.4930    0.1211   -1.5451 H   0  0  0  0  0  0  0  0  0  0  0  0
   -2.9156    0.2868    0.1578 H   0  0  0  0  0  0  0  0  0  0  0  0
    0.1480   -2.3088    0.5382 H   0  0  0  0  0  0  0  0  0  0  0  0
   -1.9965   -2.0787   -0.4993 H   0  0  0  0  0  0  0  0  0  0  0  0
  1  8  3  0  0  0  0
  2  3  1  0  0  0  0
  2  4  1  0  0  0  0
  2  9  1  0  0  0  0
  2 10  1  0  0  0  0
  3  5  1  0  0  0  0
  3 11  1  0  0  0  0
  3 12  1  0  0  0  0
  4  6  1  0  0  0  0
  4  8  1  0  0  0  0
  4 13  1  0  0  0  0
  5  7  1  0  0  0  0
  5 14  1  0  0  0  0
  5 15  1  0  0  0  0
  6  7  2  0  0  0  0
  6 16  1  0  0  0  0
  7 17  1  0  0  0  0
M  END
> <PUBCHEM_COMPOUND_CID>
139375

> <PUBCHEM_CONFORMER_RMSD>
0.4

> <PUBCHEM_CONFORMER_DIVERSEORDER>
1

> <PUBCHEM_MMFF94_PARTIAL_CHARGES>
8
1 -0.56
16 0.15
17 0.15
4 0.34
5 0.14
6 -0.29
7 -0.29
8 0.36

> <PUBCHEM_EFFECTIVE_ROTOR_COUNT>
0.8

> <PUBCHEM_PHARMACOPHORE_FEATURES>
2
1 1 acceptor
6 2 3 4 5 6 7 rings

> <PUBCHEM_HEAVY_ATOM_COUNT>
8

> <PUBCHEM_ATOM_DEF_STEREO_COUNT>
0

> <PUBCHEM_ATOM_UDEF_STEREO_COUNT>
1

> <PUBCHEM_BOND_DEF_STEREO_COUNT>
0

> <PUBCHEM_BOND_UDEF_STEREO_COUNT>
0

> <PUBCHEM_ISOTOPIC_ATOM_COUNT>
0

> <PUBCHEM_COMPONENT_COUNT>
1

> <PUBCHEM_CACTVS_TAUTO_COUNT>
1

> <PUBCHEM_CONFORMER_ID>
0002206F00000001

> <PUBCHEM_MMFF94_ENERGY>
-0.2897

> <PUBCHEM_FEATURE_SELFOVERLAP>
10.148

> <PUBCHEM_SHAPE_FINGERPRINT>
12897270 3 18410856581399469428
13024252 1 16588320430808421730
16714656 1 18409730668502255639
20653085 51 17603879866316397500
21040471 1 18194381317581829529
23552423 10 18117551829973360530
29004967 10 16558743546572843162
5084963 1 17823402804214216370

> <PUBCHEM_SHAPE_MULTIPOLES>
159.66
2.76
1.42
0.91
1.33
0
-0.06
0.02
1.01
-0.56
-0.1
0.13
-0.09
0.02

> <PUBCHEM_SHAPE_SELFOVERLAP>
314.844

> <PUBCHEM_SHAPE_VOLUME>
92

> <PUBCHEM_COORDINATE_TYPE>
2
5
10

$$$$
