70454
  -OEChem-11012401173D

 28 27  0     0  0  0  0  0  0999 V2000
   -1.2973    0.0997    0.0079 Si  0  0  0  0  0  0  0  0  0  0  0  0
    0.4199    0.1610    0.3308 N   0  0  0  0  0  0  0  0  0  0  0  0
   -1.5895   -0.5296   -1.7323 C   0  0  0  0  0  0  0  0  0  0  0  0
   -2.0311    1.8164    0.1624 C   0  0  0  0  0  0  0  0  0  0  0  0
   -2.1113   -1.0488    1.2409 C   0  0  0  0  0  0  0  0  0  0  0  0
    1.3125    0.9980   -0.4898 C   0  0  0  0  0  0  0  0  0  0  0  0
    1.1608   -1.0546    0.7097 C   0  0  0  0  0  0  0  0  0  0  0  0
    2.5428    1.3830    0.2659 C   0  0  0  0  0  0  0  0  0  0  0  0
    1.5931   -1.8250   -0.4956 C   0  0  0  0  0  0  0  0  0  0  0  0
   -1.3548   -1.5940   -1.8166 H   0  0  0  0  0  0  0  0  0  0  0  0
   -2.6404   -0.4006   -2.0098 H   0  0  0  0  0  0  0  0  0  0  0  0
   -0.9801    0.0182   -2.4570 H   0  0  0  0  0  0  0  0  0  0  0  0
   -3.1160    1.7840    0.0237 H   0  0  0  0  0  0  0  0  0  0  0  0
   -1.8275    2.2381    1.1513 H   0  0  0  0  0  0  0  0  0  0  0  0
   -1.6151    2.4926   -0.5903 H   0  0  0  0  0  0  0  0  0  0  0  0
   -1.7952   -2.0851    1.0881 H   0  0  0  0  0  0  0  0  0  0  0  0
   -1.8644   -0.7606    2.2672 H   0  0  0  0  0  0  0  0  0  0  0  0
   -3.1998   -1.0140    1.1333 H   0  0  0  0  0  0  0  0  0  0  0  0
    1.5500    0.5613   -1.4667 H   0  0  0  0  0  0  0  0  0  0  0  0
    0.7969    1.9395   -0.7240 H   0  0  0  0  0  0  0  0  0  0  0  0
    2.0169   -0.8284    1.3552 H   0  0  0  0  0  0  0  0  0  0  0  0
    0.5397   -1.7008    1.3424 H   0  0  0  0  0  0  0  0  0  0  0  0
    2.3131    1.7378    1.2770 H   0  0  0  0  0  0  0  0  0  0  0  0
    3.2764    0.5741    0.3359 H   0  0  0  0  0  0  0  0  0  0  0  0
    3.0492    2.2071   -0.2503 H   0  0  0  0  0  0  0  0  0  0  0  0
    0.7828   -2.0353   -1.1969 H   0  0  0  0  0  0  0  0  0  0  0  0
    2.4132   -1.3513   -1.0436 H   0  0  0  0  0  0  0  0  0  0  0  0
    1.9787   -2.8009   -0.1757 H   0  0  0  0  0  0  0  0  0  0  0  0
  1  2  1  0  0  0  0
  1  3  1  0  0  0  0
  1  4  1  0  0  0  0
  1  5  1  0  0  0  0
  2  6  1  0  0  0  0
  2  7  1  0  0  0  0
  3 10  1  0  0  0  0
  3 11  1  0  0  0  0
  3 12  1  0  0  0  0
  4 13  1  0  0  0  0
  4 14  1  0  0  0  0
  4 15  1  0  0  0  0
  5 16  1  0  0  0  0
  5 17  1  0  0  0  0
  5 18  1  0  0  0  0
  6  8  1  0  0  0  0
  6 19  1  0  0  0  0
  6 20  1  0  0  0  0
  7  9  1  0  0  0  0
  7 21  1  0  0  0  0
  7 22  1  0  0  0  0
  8 23  1  0  0  0  0
  8 24  1  0  0  0  0
  8 25  1  0  0  0  0
  9 26  1  0  0  0  0
  9 27  1  0  0  0  0
  9 28  1  0  0  0  0
M  END
> <PUBCHEM_COMPOUND_CID>
70454

> <PUBCHEM_CONFORMER_RMSD>
0.6

> <PUBCHEM_CONFORMER_DIVERSEORDER>
1
3
4
2

> <PUBCHEM_MMFF94_PARTIAL_CHARGES>
7
1 0.59
2 -0.89
3 -0.08
4 -0.08
5 -0.08
6 0.27
7 0.27

> <PUBCHEM_EFFECTIVE_ROTOR_COUNT>
3

> <PUBCHEM_PHARMACOPHORE_FEATURES>
0

> <PUBCHEM_HEAVY_ATOM_COUNT>
9

> <PUBCHEM_ATOM_DEF_STEREO_COUNT>
0

> <PUBCHEM_ATOM_UDEF_STEREO_COUNT>
0

> <PUBCHEM_BOND_DEF_STEREO_COUNT>
0

> <PUBCHEM_BOND_UDEF_STEREO_COUNT>
0

> <PUBCHEM_ISOTOPIC_ATOM_COUNT>
0

> <PUBCHEM_COMPONENT_COUNT>
1

> <PUBCHEM_CACTVS_TAUTO_COUNT>
1

> <PUBCHEM_CONFORMER_ID>
0001133600000001

> <PUBCHEM_MMFF94_ENERGY>
7.7877

> <PUBCHEM_FEATURE_SELFOVERLAP>
0

> <PUBCHEM_SHAPE_FINGERPRINT>
12423570 1 15867473804431768043
12932764 1 17846503677069505672
15310529 11 18272371970931534481
15775835 57 17917430972774180849
16945 1 18118141374532583499
20082192 1 17203611475528763085
20653085 51 18056476149937138881
20711978 78 18411993454784567099
20711985 344 16615351580733379278
21922407 69 18058997471448200855
22082395 3 17470175755948707938
23235685 24 18189049957276077745
23552423 10 18199171924024855215
24536 1 18261662714639146153
29004967 10 18262807383537261153
5084963 1 17416114212525656304
68250623 7 18341896238929609399

> <PUBCHEM_SHAPE_MULTIPOLES>
198.45
3.4
1.92
1.26
0.65
0.12
-0.32
0.65
0.28
0.43
0.07
-0.68
-0.4
0.17

> <PUBCHEM_SHAPE_SELFOVERLAP>
341.057

> <PUBCHEM_SHAPE_VOLUME>
134.2

> <PUBCHEM_COORDINATE_TYPE>
2
5
10

$$$$
