70459
  -OEChem-11012400523D

 32 31  0     0  0  0  0  0  0999 V2000
   -0.0107    0.5715    0.6108 Si  0  0  0  0  0  0  0  0  0  0  0  0
   -1.5531    1.1131   -0.2973 C   0  0  0  0  0  0  0  0  0  0  0  0
    0.0096   -1.2751    0.8087 C   0  0  0  0  0  0  0  0  0  0  0  0
    1.5069    1.1604   -0.2836 C   0  0  0  0  0  0  0  0  0  0  0  0
   -2.8768    0.7178    0.3636 C   0  0  0  0  0  0  0  0  0  0  0  0
    0.0347   -2.0749   -0.4971 C   0  0  0  0  0  0  0  0  0  0  0  0
    2.8394    0.8177    0.3889 C   0  0  0  0  0  0  0  0  0  0  0  0
   -4.0695    1.2426   -0.4219 C   0  0  0  0  0  0  0  0  0  0  0  0
    0.0983   -3.5717   -0.2317 C   0  0  0  0  0  0  0  0  0  0  0  0
    4.0211    1.2985   -0.4404 C   0  0  0  0  0  0  0  0  0  0  0  0
   -0.0284    1.1876    1.9619 H   0  0  0  0  0  0  0  0  0  0  0  0
   -1.5221    0.7030   -1.3139 H   0  0  0  0  0  0  0  0  0  0  0  0
   -1.5182    2.2042   -0.4021 H   0  0  0  0  0  0  0  0  0  0  0  0
   -0.8677   -1.5761    1.3938 H   0  0  0  0  0  0  0  0  0  0  0  0
    0.8839   -1.5493    1.4112 H   0  0  0  0  0  0  0  0  0  0  0  0
    1.4402    2.2488   -0.4018 H   0  0  0  0  0  0  0  0  0  0  0  0
    1.4998    0.7414   -1.2970 H   0  0  0  0  0  0  0  0  0  0  0  0
   -2.9546   -0.3738    0.4381 H   0  0  0  0  0  0  0  0  0  0  0  0
   -2.9244    1.1117    1.3864 H   0  0  0  0  0  0  0  0  0  0  0  0
   -0.8591   -1.8580   -1.0947 H   0  0  0  0  0  0  0  0  0  0  0  0
    0.9021   -1.7896   -1.1051 H   0  0  0  0  0  0  0  0  0  0  0  0
    2.8912    1.2750    1.3848 H   0  0  0  0  0  0  0  0  0  0  0  0
    2.9301   -0.2662    0.5304 H   0  0  0  0  0  0  0  0  0  0  0  0
   -5.0039    0.9475    0.0659 H   0  0  0  0  0  0  0  0  0  0  0  0
   -4.0488    2.3353   -0.4834 H   0  0  0  0  0  0  0  0  0  0  0  0
   -4.0759    0.8403   -1.4400 H   0  0  0  0  0  0  0  0  0  0  0  0
    0.1131   -4.1237   -1.1767 H   0  0  0  0  0  0  0  0  0  0  0  0
    1.0019   -3.8329    0.3283 H   0  0  0  0  0  0  0  0  0  0  0  0
   -0.7717   -3.9052    0.3429 H   0  0  0  0  0  0  0  0  0  0  0  0
    4.9619    1.0459    0.0586 H   0  0  0  0  0  0  0  0  0  0  0  0
    4.0241    0.8279   -1.4288 H   0  0  0  0  0  0  0  0  0  0  0  0
    3.9892    2.3842   -0.5758 H   0  0  0  0  0  0  0  0  0  0  0  0
  1  2  1  0  0  0  0
  1  3  1  0  0  0  0
  1  4  1  0  0  0  0
  1 11  1  0  0  0  0
  2  5  1  0  0  0  0
  2 12  1  0  0  0  0
  2 13  1  0  0  0  0
  3  6  1  0  0  0  0
  3 14  1  0  0  0  0
  3 15  1  0  0  0  0
  4  7  1  0  0  0  0
  4 16  1  0  0  0  0
  4 17  1  0  0  0  0
  5  8  1  0  0  0  0
  5 18  1  0  0  0  0
  5 19  1  0  0  0  0
  6  9  1  0  0  0  0
  6 20  1  0  0  0  0
  6 21  1  0  0  0  0
  7 10  1  0  0  0  0
  7 22  1  0  0  0  0
  7 23  1  0  0  0  0
  8 24  1  0  0  0  0
  8 25  1  0  0  0  0
  8 26  1  0  0  0  0
  9 27  1  0  0  0  0
  9 28  1  0  0  0  0
  9 29  1  0  0  0  0
 10 30  1  0  0  0  0
 10 31  1  0  0  0  0
 10 32  1  0  0  0  0
M  END
> <PUBCHEM_COMPOUND_CID>
70459

> <PUBCHEM_CONFORMER_RMSD>
0.6

> <PUBCHEM_CONFORMER_DIVERSEORDER>
1
16
35
40
39
29
14
45
41
30
46
26
17
6
33
31
37
27
36
43
47
42
23
21
3
20
19
38
24
9
32
22
18
34
5
25
12
8
11
44
7
10
28
4
2
15
13

> <PUBCHEM_MMFF94_PARTIAL_CHARGES>
5
1 0.44
11 -0.2
2 -0.08
3 -0.08
4 -0.08

> <PUBCHEM_EFFECTIVE_ROTOR_COUNT>
6

> <PUBCHEM_PHARMACOPHORE_FEATURES>
3
1 10 hydrophobe
1 8 hydrophobe
1 9 hydrophobe

> <PUBCHEM_HEAVY_ATOM_COUNT>
10

> <PUBCHEM_ATOM_DEF_STEREO_COUNT>
0

> <PUBCHEM_ATOM_UDEF_STEREO_COUNT>
0

> <PUBCHEM_BOND_DEF_STEREO_COUNT>
0

> <PUBCHEM_BOND_UDEF_STEREO_COUNT>
0

> <PUBCHEM_ISOTOPIC_ATOM_COUNT>
0

> <PUBCHEM_COMPONENT_COUNT>
1

> <PUBCHEM_CACTVS_TAUTO_COUNT>
1

> <PUBCHEM_CONFORMER_ID>
0001133B00000001

> <PUBCHEM_MMFF94_ENERGY>
-4.5804

> <PUBCHEM_FEATURE_SELFOVERLAP>
15.223

> <PUBCHEM_SHAPE_FINGERPRINT>
1 1 18338795611295791462
10922049 32 18408891745261745033
12138202 97 18340778155662870004
12500047 106 18341049743904719312
13380535 76 18334011675269396739
14251717 144 18268707212476312743
14648413 74 17760081818223654785
15775835 57 18333167280024656216
15906896 17 17971197160144814290
18186145 218 18202565098407432360
187816 3 18060142046110775656
19021347 11 18340485547840732099
19021347 4 18411702122826250683
201361 129 18057053410626879297
20524608 308 18268433619128444170
20645476 183 18187938334251730564
20645477 56 18337954614351526608
20645477 70 18192419776717885837
20711985 344 17906720754799644850
20711985 365 18050852418374900372
20871998 184 18120388789116107338
21499 59 18409725158196663861
21524375 3 18260544536951983784
22218785 32 18410580573990154988
23402539 116 18343575265910153788
23419403 2 17614050297070422451
23530152 11 18411976957873263911
23552423 10 17981888545294373209
3060560 45 18409441471116701629
3250762 1 17613147473396269412
366044 4 18410292523212863640
528862 383 18265605490432761027
58734987 41 18410863122376367178
7364860 26 18124311606254589929
76951 1 17274522248805630306
81228 2 17760917841954643363
81539 233 18261670372618634453

> <PUBCHEM_SHAPE_MULTIPOLES>
224.01
5.61
3.09
0.9
0.32
4.7
0.13
-5.24
-1.13
-0.23
-0.5
-0.01
-0.01
0.01

> <PUBCHEM_SHAPE_SELFOVERLAP>
381.038

> <PUBCHEM_SHAPE_VOLUME>
150.9

> <PUBCHEM_COORDINATE_TYPE>
2
5
10

$$$$
