21640
  -OEChem-11012401053D

 19 20  0     0  0  0  0  0  0999 V2000
    0.8723   -0.2263    0.0450 N   0  0  0  0  0  0  0  0  0  0  0  0
    1.5006   -1.3886    0.2933 N   0  0  0  0  0  0  0  0  0  0  0  0
    2.9988    0.2247   -0.0575 N   0  0  0  0  0  0  0  0  0  0  0  0
    1.4281    2.0203   -0.4394 N   0  0  0  0  0  0  0  0  0  0  0  0
    2.7961   -1.1064    0.2288 N   0  0  0  0  0  0  0  0  0  0  0  0
   -0.5075   -0.1365    0.0307 C   0  0  0  0  0  0  0  0  0  0  0  0
   -1.1324    1.0561    0.3952 C   0  0  0  0  0  0  0  0  0  0  0  0
   -1.2745   -1.2382   -0.3481 C   0  0  0  0  0  0  0  0  0  0  0  0
    1.8002    0.7498   -0.1674 C   0  0  0  0  0  0  0  0  0  0  0  0
   -2.5242    1.1470    0.3806 C   0  0  0  0  0  0  0  0  0  0  0  0
   -2.6663   -1.1473   -0.3627 C   0  0  0  0  0  0  0  0  0  0  0  0
   -3.2912    0.0454    0.0015 C   0  0  0  0  0  0  0  0  0  0  0  0
   -0.6037    1.9108    0.8038 H   0  0  0  0  0  0  0  0  0  0  0  0
   -0.8162   -2.1781   -0.6460 H   0  0  0  0  0  0  0  0  0  0  0  0
   -3.0126    2.0672    0.6879 H   0  0  0  0  0  0  0  0  0  0  0  0
   -3.2639   -2.0047   -0.6586 H   0  0  0  0  0  0  0  0  0  0  0  0
   -4.3751    0.1144   -0.0046 H   0  0  0  0  0  0  0  0  0  0  0  0
    2.1322    2.7472   -0.5274 H   0  0  0  0  0  0  0  0  0  0  0  0
    0.5182    2.2888   -0.7943 H   0  0  0  0  0  0  0  0  0  0  0  0
  1  2  1  0  0  0  0
  1  6  1  0  0  0  0
  1  9  1  0  0  0  0
  2  5  2  0  0  0  0
  3  5  1  0  0  0  0
  3  9  2  0  0  0  0
  4  9  1  0  0  0  0
  4 18  1  0  0  0  0
  4 19  1  0  0  0  0
  6  7  2  0  0  0  0
  6  8  1  0  0  0  0
  7 10  1  0  0  0  0
  7 13  1  0  0  0  0
  8 11  2  0  0  0  0
  8 14  1  0  0  0  0
 10 12  2  0  0  0  0
 10 15  1  0  0  0  0
 11 12  1  0  0  0  0
 11 16  1  0  0  0  0
 12 17  1  0  0  0  0
M  END
> <PUBCHEM_COMPOUND_CID>
21640

> <PUBCHEM_CONFORMER_RMSD>
0.4

> <PUBCHEM_CONFORMER_DIVERSEORDER>
2
3
1

> <PUBCHEM_MMFF94_PARTIAL_CHARGES>
18
1 0.59
10 -0.15
11 -0.15
12 -0.15
13 0.15
14 0.15
15 0.15
16 0.15
17 0.15
18 0.4
19 0.4
2 -0.42
3 -0.34
4 -0.88
6 -0.02
7 -0.15
8 -0.15
9 0.27

> <PUBCHEM_EFFECTIVE_ROTOR_COUNT>
1

> <PUBCHEM_PHARMACOPHORE_FEATURES>
4
1 4 donor
4 1 3 4 9 cation
5 1 2 3 5 9 rings
6 6 7 8 10 11 12 rings

> <PUBCHEM_HEAVY_ATOM_COUNT>
12

> <PUBCHEM_ATOM_DEF_STEREO_COUNT>
0

> <PUBCHEM_ATOM_UDEF_STEREO_COUNT>
0

> <PUBCHEM_BOND_DEF_STEREO_COUNT>
0

> <PUBCHEM_BOND_UDEF_STEREO_COUNT>
0

> <PUBCHEM_ISOTOPIC_ATOM_COUNT>
0

> <PUBCHEM_COMPONENT_COUNT>
1

> <PUBCHEM_CACTVS_TAUTO_COUNT>
3

> <PUBCHEM_CONFORMER_ID>
0000548800000002

> <PUBCHEM_MMFF94_ENERGY>
37.5579

> <PUBCHEM_FEATURE_SELFOVERLAP>
20.297

> <PUBCHEM_SHAPE_FINGERPRINT>
10465860 71 18199211536898272454
12202030 40 15338294487289711093
12897270 3 18338516455696301269
12932764 1 17167854266688007091
14144814 61 18411138013199744627
14325111 11 18412263917538717489
15775835 57 18409176505983616573
16945 1 18410013234432301451
19973954 147 18410295843248859661
20871998 184 17917712452510297215
23463225 33 18338797801676559758
23552423 10 18336545027121329319
2748010 2 15457055259372684815
369184 2 18409166614995440323
5084963 1 18341891874852537585
57096353 35 18267584795845827109
63268167 104 18334013873818145224
7364860 26 18272933868755404168
8030462 33 18337958986031466005

> <PUBCHEM_SHAPE_MULTIPOLES>
222.05
4.92
1.64
0.66
0.13
0.23
-0.01
-0.3
0.01
0.15
-0.07
-0.08
0.03
-0.51

> <PUBCHEM_SHAPE_SELFOVERLAP>
480.057

> <PUBCHEM_SHAPE_VOLUME>
120.3

> <PUBCHEM_COORDINATE_TYPE>
2
5
10

$$$$
