17049
  -OEChem-11012401183D

 23 23  0     1  0  0  0  0  0999 V2000
    3.3919    0.7166   -0.6008 O   0  0  0  0  0  0  0  0  0  0  0  0
    0.1783    0.1469    0.2514 O   0  0  0  0  0  0  0  0  0  0  0  0
    2.5616    0.1965    0.4274 C   0  0  2  0  0  0  0  0  0  0  0  0
    3.9310   -0.3347    0.2110 C   0  0  0  0  0  0  0  0  0  0  0  0
    1.3604   -0.5627   -0.0942 C   0  0  0  0  0  0  0  0  0  0  0  0
   -0.9863   -0.5208   -0.2142 C   0  0  0  0  0  0  0  0  0  0  0  0
   -2.2099    0.2990    0.1700 C   0  0  0  0  0  0  0  0  0  0  0  0
   -3.5029   -0.3705   -0.2870 C   0  0  0  0  0  0  0  0  0  0  0  0
   -4.7242    0.4297    0.1364 C   0  0  0  0  0  0  0  0  0  0  0  0
    2.3751    0.7875    1.3128 H   0  0  0  0  0  0  0  0  0  0  0  0
    4.7030   -0.0690    0.9215 H   0  0  0  0  0  0  0  0  0  0  0  0
    4.0501   -1.3086   -0.2455 H   0  0  0  0  0  0  0  0  0  0  0  0
    1.3374   -1.5524    0.3762 H   0  0  0  0  0  0  0  0  0  0  0  0
    1.4190   -0.6874   -1.1820 H   0  0  0  0  0  0  0  0  0  0  0  0
   -1.0425   -1.5171    0.2399 H   0  0  0  0  0  0  0  0  0  0  0  0
   -0.9367   -0.6311   -1.3038 H   0  0  0  0  0  0  0  0  0  0  0  0
   -2.1274    1.3032   -0.2643 H   0  0  0  0  0  0  0  0  0  0  0  0
   -2.2211    0.4433    1.2577 H   0  0  0  0  0  0  0  0  0  0  0  0
   -3.5711   -1.3788    0.1377 H   0  0  0  0  0  0  0  0  0  0  0  0
   -3.5015   -0.4773   -1.3780 H   0  0  0  0  0  0  0  0  0  0  0  0
   -4.7730    0.5247    1.2258 H   0  0  0  0  0  0  0  0  0  0  0  0
   -4.7035    1.4351   -0.2959 H   0  0  0  0  0  0  0  0  0  0  0  0
   -5.6388   -0.0670   -0.2025 H   0  0  0  0  0  0  0  0  0  0  0  0
  1  3  1  0  0  0  0
  1  4  1  0  0  0  0
  2  5  1  0  0  0  0
  2  6  1  0  0  0  0
  3  4  1  0  0  0  0
  3  5  1  0  0  0  0
  3 10  1  0  0  0  0
  4 11  1  0  0  0  0
  4 12  1  0  0  0  0
  5 13  1  0  0  0  0
  5 14  1  0  0  0  0
  6  7  1  0  0  0  0
  6 15  1  0  0  0  0
  6 16  1  0  0  0  0
  7  8  1  0  0  0  0
  7 17  1  0  0  0  0
  7 18  1  0  0  0  0
  8  9  1  0  0  0  0
  8 19  1  0  0  0  0
  8 20  1  0  0  0  0
  9 21  1  0  0  0  0
  9 22  1  0  0  0  0
  9 23  1  0  0  0  0
M  END
> <PUBCHEM_COMPOUND_CID>
17049

> <PUBCHEM_CONFORMER_RMSD>
0.6

> <PUBCHEM_CONFORMER_DIVERSEORDER>
3
96
63
84
17
100
9
120
116
2
81
77
103
12
111
82
1
85
52
79
99
10
21
76
33
122
98
7
50
110
80
109
23
94
117
13
104
35
18
121
45
25
62
32
44
34
56
102
114
8
119
101
106
49
5
105
115
66
6
89
112
95
86
118
30
58
43
40
41
78
37
59
92
20
108
87
31
26
75
42
46
54
36
16
97
29
93
72
83
55
28
74
22
107
91
90
24
64
47
61
68
70
48
69
60
15
73
19
65
11
113
57
39
67
88
38
14
71
53
27
51
4

> <PUBCHEM_MMFF94_PARTIAL_CHARGES>
9
1 -0.3
10 0.1
11 0.1
12 0.1
2 -0.56
3 -0.05
4 -0.05
5 0.38
6 0.28

> <PUBCHEM_EFFECTIVE_ROTOR_COUNT>
5.6

> <PUBCHEM_PHARMACOPHORE_FEATURES>
3
1 1 acceptor
1 2 acceptor
1 9 hydrophobe

> <PUBCHEM_HEAVY_ATOM_COUNT>
9

> <PUBCHEM_ATOM_DEF_STEREO_COUNT>
0

> <PUBCHEM_ATOM_UDEF_STEREO_COUNT>
1

> <PUBCHEM_BOND_DEF_STEREO_COUNT>
0

> <PUBCHEM_BOND_UDEF_STEREO_COUNT>
0

> <PUBCHEM_ISOTOPIC_ATOM_COUNT>
0

> <PUBCHEM_COMPONENT_COUNT>
1

> <PUBCHEM_CACTVS_TAUTO_COUNT>
1

> <PUBCHEM_CONFORMER_ID>
0000429900000003

> <PUBCHEM_MMFF94_ENERGY>
8.8046

> <PUBCHEM_FEATURE_SELFOVERLAP>
15.223

> <PUBCHEM_SHAPE_FINGERPRINT>
11062470 55 17967532376409794499
14123238 8 10665232548852625779
14325111 11 18410855460154743435
17834076 25 17894351072924718663
190213 19 15339120156166232387
20645477 70 18200594679329129687
20719005 15 18409448089908925411
21119208 17 16559031588628389309
21293036 1 16271926021224456691
22485316 2 11959728261473480901
23402539 116 17632286865848300685
42788 4 18410855460133449553

> <PUBCHEM_SHAPE_MULTIPOLES>
173.48
9.19
0.78
0.68
3.23
0.03
-0.01
-1.01
-0.07
0.02
-0.02
-0.16
-0.02
-0.21

> <PUBCHEM_SHAPE_SELFOVERLAP>
316.442

> <PUBCHEM_SHAPE_VOLUME>
112.3

> <PUBCHEM_COORDINATE_TYPE>
2
5
10

$$$$
