7378
  -OEChem-11012400543D

 30 30  0     0  0  0  0  0  0999 V2000
   -2.0301   -0.0001    0.0000 C   0  0  0  0  0  0  0  0  0  0  0  0
   -0.4924   -0.0029   -0.0001 C   0  0  0  0  0  0  0  0  0  0  0  0
   -2.5482    0.7276   -1.2593 C   0  0  0  0  0  0  0  0  0  0  0  0
   -2.5484    0.7302    1.2578 C   0  0  0  0  0  0  0  0  0  0  0  0
   -2.6577   -1.4126    0.0016 C   0  0  0  0  0  0  0  0  0  0  0  0
    0.1609    1.2040   -0.0003 C   0  0  0  0  0  0  0  0  0  0  0  0
    0.1571   -1.2119    0.0001 C   0  0  0  0  0  0  0  0  0  0  0  0
    1.5557    1.2019   -0.0003 C   0  0  0  0  0  0  0  0  0  0  0  0
    1.5520   -1.2140    0.0001 C   0  0  0  0  0  0  0  0  0  0  0  0
    2.2513   -0.0073    0.0000 C   0  0  0  0  0  0  0  0  0  0  0  0
    2.3040    2.4921    0.0004 C   0  0  0  0  0  0  0  0  0  0  0  0
    2.2958   -2.5069    0.0000 C   0  0  0  0  0  0  0  0  0  0  0  0
   -3.6434    0.7048   -1.3053 H   0  0  0  0  0  0  0  0  0  0  0  0
   -2.2516    1.7817   -1.2855 H   0  0  0  0  0  0  0  0  0  0  0  0
   -2.1672    0.2554   -2.1727 H   0  0  0  0  0  0  0  0  0  0  0  0
   -2.2519    1.7844    1.2818 H   0  0  0  0  0  0  0  0  0  0  0  0
   -3.6436    0.7074    1.3037 H   0  0  0  0  0  0  0  0  0  0  0  0
   -2.1674    0.2600    2.1722 H   0  0  0  0  0  0  0  0  0  0  0  0
   -3.7532   -1.3506    0.0016 H   0  0  0  0  0  0  0  0  0  0  0  0
   -2.3783   -1.9874   -0.8893 H   0  0  0  0  0  0  0  0  0  0  0  0
   -2.3781   -1.9854    0.8936 H   0  0  0  0  0  0  0  0  0  0  0  0
   -0.3701    2.1504   -0.0022 H   0  0  0  0  0  0  0  0  0  0  0  0
   -0.3451   -2.1712    0.0023 H   0  0  0  0  0  0  0  0  0  0  0  0
    3.3388   -0.0079    0.0002 H   0  0  0  0  0  0  0  0  0  0  0  0
    3.2741    2.3874    0.4980 H   0  0  0  0  0  0  0  0  0  0  0  0
    2.4721    2.8291   -1.0273 H   0  0  0  0  0  0  0  0  0  0  0  0
    1.7505    3.2687    0.5391 H   0  0  0  0  0  0  0  0  0  0  0  0
    1.7971   -3.2441   -0.6384 H   0  0  0  0  0  0  0  0  0  0  0  0
    3.3130   -2.3841   -0.3871 H   0  0  0  0  0  0  0  0  0  0  0  0
    2.3581   -2.9045    1.0179 H   0  0  0  0  0  0  0  0  0  0  0  0
  1  2  1  0  0  0  0
  1  3  1  0  0  0  0
  1  4  1  0  0  0  0
  1  5  1  0  0  0  0
  2  6  2  0  0  0  0
  2  7  1  0  0  0  0
  3 13  1  0  0  0  0
  3 14  1  0  0  0  0
  3 15  1  0  0  0  0
  4 16  1  0  0  0  0
  4 17  1  0  0  0  0
  4 18  1  0  0  0  0
  5 19  1  0  0  0  0
  5 20  1  0  0  0  0
  5 21  1  0  0  0  0
  6  8  1  0  0  0  0
  6 22  1  0  0  0  0
  7  9  2  0  0  0  0
  7 23  1  0  0  0  0
  8 10  2  0  0  0  0
  8 11  1  0  0  0  0
  9 10  1  0  0  0  0
  9 12  1  0  0  0  0
 10 24  1  0  0  0  0
 11 25  1  0  0  0  0
 11 26  1  0  0  0  0
 11 27  1  0  0  0  0
 12 28  1  0  0  0  0
 12 29  1  0  0  0  0
 12 30  1  0  0  0  0
M  END
> <PUBCHEM_COMPOUND_CID>
7378

> <PUBCHEM_CONFORMER_RMSD>
0.4

> <PUBCHEM_CONFORMER_DIVERSEORDER>
1

> <PUBCHEM_MMFF94_PARTIAL_CHARGES>
12
1 0.14
10 -0.15
11 0.14
12 0.14
2 -0.14
22 0.15
23 0.15
24 0.15
6 -0.15
7 -0.15
8 -0.14
9 -0.14

> <PUBCHEM_EFFECTIVE_ROTOR_COUNT>
1

> <PUBCHEM_PHARMACOPHORE_FEATURES>
2
4 1 3 4 5 hydrophobe
6 2 6 7 8 9 10 rings

> <PUBCHEM_HEAVY_ATOM_COUNT>
12

> <PUBCHEM_ATOM_DEF_STEREO_COUNT>
0

> <PUBCHEM_ATOM_UDEF_STEREO_COUNT>
0

> <PUBCHEM_BOND_DEF_STEREO_COUNT>
0

> <PUBCHEM_BOND_UDEF_STEREO_COUNT>
0

> <PUBCHEM_ISOTOPIC_ATOM_COUNT>
0

> <PUBCHEM_COMPONENT_COUNT>
1

> <PUBCHEM_CACTVS_TAUTO_COUNT>
1

> <PUBCHEM_CONFORMER_ID>
00001CD200000001

> <PUBCHEM_MMFF94_ENERGY>
40.1879

> <PUBCHEM_FEATURE_SELFOVERLAP>
10.148

> <PUBCHEM_SHAPE_FINGERPRINT>
1 1 18338516464518390076
12423570 1 10819099370201321557
12932764 1 17967254169850611091
13380535 76 18120087536052446834
14614273 12 18118674654957425757
14648413 74 18335133168202443101
15219456 202 18260823817564162661
15775835 57 18268154338700920613
16945 1 18410856525459483716
17844478 74 17749970881214326137
17990270 104 18409163294669508298
18380122 1 17969508289041412809
19973954 147 18409164398581513957
20645477 70 18410566306425685687
20653091 64 18413109450559953522
20711985 344 17400352352701248138
207724 885 18197503909108862467
21028194 46 18118118301968555076
21040471 1 18050286174324228164
21501502 16 18411420635270450275
21524375 3 18047750691989272448
2334 1 18050286169986893972
23552423 10 18411421730165259911
241688 4 17906453229997595738
2748010 2 18121224435433669060
3071541 158 18188209797733585900
3248919 1 17917991650890258703
5084963 1 18262798600371423073
63268167 104 18410856529580338873
7364860 26 18341895199341899278
74978 22 18339924814275071359
8030462 33 17917708028472169441
81228 2 17402048899258762704

> <PUBCHEM_SHAPE_MULTIPOLES>
246.95
4.36
2.4
0.88
1.43
0.2
0
0.05
0
-2.14
0
0.67
-0.19
0

> <PUBCHEM_SHAPE_SELFOVERLAP>
504.99

> <PUBCHEM_SHAPE_VOLUME>
143.1

> <PUBCHEM_COORDINATE_TYPE>
2
5
10

$$$$
