202859
  -OEChem-11012401003D

 38 39  0     0  0  0  0  0  0999 V2000
   -0.2313   -0.0408   -1.9408 O   0  0  0  0  0  0  0  0  0  0  0  0
    1.8242    0.3381   -0.1973 N   0  0  0  0  0  0  0  0  0  0  0  0
    0.5212    0.8829    0.1837 C   0  0  0  0  0  0  0  0  0  0  0  0
    1.8284   -1.1254   -0.0639 C   0  0  0  0  0  0  0  0  0  0  0  0
    2.8916    0.9481    0.6080 C   0  0  0  0  0  0  0  0  0  0  0  0
    3.1684   -1.7161   -0.5055 C   0  0  0  0  0  0  0  0  0  0  0  0
    4.2663    0.4252    0.1885 C   0  0  0  0  0  0  0  0  0  0  0  0
    4.3283   -1.0961    0.2652 C   0  0  0  0  0  0  0  0  0  0  0  0
    0.3111    0.5400    1.6607 C   0  0  0  0  0  0  0  0  0  0  0  0
    0.5639    2.3976   -0.0297 C   0  0  0  0  0  0  0  0  0  0  0  0
   -0.5017    0.2456   -0.7743 C   0  0  0  0  0  0  0  0  0  0  0  0
   -1.8790   -0.0369   -0.3209 C   0  0  0  0  0  0  0  0  0  0  0  0
   -2.8527    0.9337   -0.4769 C   0  0  0  0  0  0  0  0  0  0  0  0
   -2.1631   -1.2653    0.2486 C   0  0  0  0  0  0  0  0  0  0  0  0
   -4.1532    0.6670   -0.0491 C   0  0  0  0  0  0  0  0  0  0  0  0
   -3.4637   -1.5319    0.6764 C   0  0  0  0  0  0  0  0  0  0  0  0
   -4.4587   -0.5657    0.5274 C   0  0  0  0  0  0  0  0  0  0  0  0
    1.0651   -1.6209   -0.6704 H   0  0  0  0  0  0  0  0  0  0  0  0
    1.6846   -1.4613    0.9681 H   0  0  0  0  0  0  0  0  0  0  0  0
    2.8124    0.7396    1.6788 H   0  0  0  0  0  0  0  0  0  0  0  0
    2.9455    2.0326    0.4773 H   0  0  0  0  0  0  0  0  0  0  0  0
    3.3091   -1.5441   -1.5803 H   0  0  0  0  0  0  0  0  0  0  0  0
    3.1649   -2.8018   -0.3541 H   0  0  0  0  0  0  0  0  0  0  0  0
    5.0420    0.8585    0.8303 H   0  0  0  0  0  0  0  0  0  0  0  0
    4.4847    0.7479   -0.8376 H   0  0  0  0  0  0  0  0  0  0  0  0
    4.2824   -1.4126    1.3145 H   0  0  0  0  0  0  0  0  0  0  0  0
    5.2818   -1.4544   -0.1379 H   0  0  0  0  0  0  0  0  0  0  0  0
   -0.6551    0.9618    1.9747 H   0  0  0  0  0  0  0  0  0  0  0  0
    0.2169   -0.5248    1.8877 H   0  0  0  0  0  0  0  0  0  0  0  0
    1.0174    0.9973    2.3577 H   0  0  0  0  0  0  0  0  0  0  0  0
    0.9925    2.6635   -1.0039 H   0  0  0  0  0  0  0  0  0  0  0  0
   -0.4529    2.8086   -0.0245 H   0  0  0  0  0  0  0  0  0  0  0  0
    1.1042    2.9371    0.7553 H   0  0  0  0  0  0  0  0  0  0  0  0
   -2.6244    1.8946   -0.9286 H   0  0  0  0  0  0  0  0  0  0  0  0
   -1.3947   -2.0239    0.3660 H   0  0  0  0  0  0  0  0  0  0  0  0
   -4.9283    1.4189   -0.1660 H   0  0  0  0  0  0  0  0  0  0  0  0
   -3.7018   -2.4919    1.1249 H   0  0  0  0  0  0  0  0  0  0  0  0
   -5.4715   -0.7735    0.8602 H   0  0  0  0  0  0  0  0  0  0  0  0
  1 11  2  0  0  0  0
  2  3  1  0  0  0  0
  2  4  1  0  0  0  0
  2  5  1  0  0  0  0
  3  9  1  0  0  0  0
  3 10  1  0  0  0  0
  3 11  1  0  0  0  0
  4  6  1  0  0  0  0
  4 18  1  0  0  0  0
  4 19  1  0  0  0  0
  5  7  1  0  0  0  0
  5 20  1  0  0  0  0
  5 21  1  0  0  0  0
  6  8  1  0  0  0  0
  6 22  1  0  0  0  0
  6 23  1  0  0  0  0
  7  8  1  0  0  0  0
  7 24  1  0  0  0  0
  7 25  1  0  0  0  0
  8 26  1  0  0  0  0
  8 27  1  0  0  0  0
  9 28  1  0  0  0  0
  9 29  1  0  0  0  0
  9 30  1  0  0  0  0
 10 31  1  0  0  0  0
 10 32  1  0  0  0  0
 10 33  1  0  0  0  0
 11 12  1  0  0  0  0
 12 13  2  0  0  0  0
 12 14  1  0  0  0  0
 13 15  1  0  0  0  0
 13 34  1  0  0  0  0
 14 16  2  0  0  0  0
 14 35  1  0  0  0  0
 15 17  2  0  0  0  0
 15 36  1  0  0  0  0
 16 17  1  0  0  0  0
 16 37  1  0  0  0  0
 17 38  1  0  0  0  0
M  END
> <PUBCHEM_COMPOUND_CID>
202859

> <PUBCHEM_CONFORMER_RMSD>
0.6

> <PUBCHEM_CONFORMER_DIVERSEORDER>
1
12
4
14
7
16
22
10
17
15
20
5
19
18
9
6
11
8
21
3
13
2

> <PUBCHEM_MMFF94_PARTIAL_CHARGES>
17
1 -0.57
11 0.42
12 0.09
13 -0.15
14 -0.15
15 -0.15
16 -0.15
17 -0.15
2 -0.81
3 0.33
34 0.15
35 0.15
36 0.15
37 0.15
38 0.15
4 0.27
5 0.27

> <PUBCHEM_EFFECTIVE_ROTOR_COUNT>
4.2

> <PUBCHEM_PHARMACOPHORE_FEATURES>
5
1 1 acceptor
1 2 cation
3 3 9 10 hydrophobe
6 12 13 14 15 16 17 rings
6 2 4 5 6 7 8 rings

> <PUBCHEM_HEAVY_ATOM_COUNT>
17

> <PUBCHEM_ATOM_DEF_STEREO_COUNT>
0

> <PUBCHEM_ATOM_UDEF_STEREO_COUNT>
0

> <PUBCHEM_BOND_DEF_STEREO_COUNT>
0

> <PUBCHEM_BOND_UDEF_STEREO_COUNT>
0

> <PUBCHEM_ISOTOPIC_ATOM_COUNT>
0

> <PUBCHEM_COMPONENT_COUNT>
1

> <PUBCHEM_CACTVS_TAUTO_COUNT>
1

> <PUBCHEM_CONFORMER_ID>
0003186B00000001

> <PUBCHEM_MMFF94_ENERGY>
52.1208

> <PUBCHEM_FEATURE_SELFOVERLAP>
25.371

> <PUBCHEM_SHAPE_FINGERPRINT>
10465860 250 18410291380603629393
11128504 68 15791742892764921982
12032990 46 18409450271609783012
12251169 10 18270965747278603695
124424 183 18273493464455242937
12507560 40 18411698803138180193
12596602 18 16415192416420647970
12892183 10 17989208161408634851
13134695 92 17846773018563385825
13296908 3 18409728456499230586
13675066 3 18201432584377028008
14252887 29 18059862740229426614
15209289 33 17748828535750970619
15219456 202 18411134740408271711
15309172 13 16845573119077654743
15375358 24 18412542093848909870
15375462 189 17846773014442114706
15375462 478 17918278640573367905
15653759 3 18410293631562163913
16945 1 18270114754868891429
17804303 29 18259989284101910343
17834074 16 18335139795305390843
1813 80 17095245817029086852
18186145 218 10881681269635349684
18785283 64 18046906254122017368
19141452 34 18409732885206930035
19422 9 17967537895326777461
200 152 17988921154445585266
20645477 70 18202278061505822990
21267235 1 18412272709495255294
22094290 60 17458060443759970045
22485316 2 18333729108943952122
23175994 123 18060422400079630713
23184049 59 17704071780828317526
23402539 116 15647048240459563726
23557571 272 17385715881635303380
23559900 14 18336543807714782998
26918003 58 18412822461019327562
296302 2 18060136556915198192
3323516 105 18334012791760667506
42 15 18410858754594963643
449060 23 17604144921585798835
5104073 3 18410855455849110665
7364860 26 18192434284236924309
77779 3 18407761443029241737
83771 10 18408603656151410554
9709674 26 18190183567023971211

> <PUBCHEM_SHAPE_MULTIPOLES>
339
8.35
1.76
1.09
0.46
0.2
0.06
-2.43
-1.03
-0.42
-0.06
0.08
0.04
0.66

> <PUBCHEM_SHAPE_SELFOVERLAP>
708.546

> <PUBCHEM_SHAPE_VOLUME>
193.3

> <PUBCHEM_COORDINATE_TYPE>
2
5
10

$$$$
