138938
  -OEChem-11012400453D

 19 19  0     0  0  0  0  0  0999 V2000
    1.8573   -0.7904   -0.3507 S   0  0  0  0  0  0  0  0  0  0  0  0
    0.2533   -0.2608    0.3013 C   0  0  0  0  0  0  0  0  0  0  0  0
   -0.8684   -1.2297   -0.0502 C   0  0  0  0  0  0  0  0  0  0  0  0
   -0.2291    1.0454   -0.3174 C   0  0  0  0  0  0  0  0  0  0  0  0
   -2.1354   -0.4057    0.1645 C   0  0  0  0  0  0  0  0  0  0  0  0
   -1.7267    1.0570   -0.0198 C   0  0  0  0  0  0  0  0  0  0  0  0
    2.8490    0.5842    0.2723 C   0  0  0  0  0  0  0  0  0  0  0  0
    0.3218   -0.1655    1.3920 H   0  0  0  0  0  0  0  0  0  0  0  0
   -0.8597   -2.1304    0.5720 H   0  0  0  0  0  0  0  0  0  0  0  0
   -0.8170   -1.5426   -1.1010 H   0  0  0  0  0  0  0  0  0  0  0  0
   -0.0781    1.0586   -1.4044 H   0  0  0  0  0  0  0  0  0  0  0  0
    0.2622    1.9274    0.1051 H   0  0  0  0  0  0  0  0  0  0  0  0
   -2.5206   -0.5573    1.1796 H   0  0  0  0  0  0  0  0  0  0  0  0
   -2.9258   -0.6995   -0.5334 H   0  0  0  0  0  0  0  0  0  0  0  0
   -2.2884    1.5377   -0.8272 H   0  0  0  0  0  0  0  0  0  0  0  0
   -1.9298    1.6175    0.9000 H   0  0  0  0  0  0  0  0  0  0  0  0
    3.9060    0.3679    0.0937 H   0  0  0  0  0  0  0  0  0  0  0  0
    2.7034    0.7123    1.3482 H   0  0  0  0  0  0  0  0  0  0  0  0
    2.6020    1.5117   -0.2499 H   0  0  0  0  0  0  0  0  0  0  0  0
  1  2  1  0  0  0  0
  1  7  1  0  0  0  0
  2  3  1  0  0  0  0
  2  4  1  0  0  0  0
  2  8  1  0  0  0  0
  3  5  1  0  0  0  0
  3  9  1  0  0  0  0
  3 10  1  0  0  0  0
  4  6  1  0  0  0  0
  4 11  1  0  0  0  0
  4 12  1  0  0  0  0
  5  6  1  0  0  0  0
  5 13  1  0  0  0  0
  5 14  1  0  0  0  0
  6 15  1  0  0  0  0
  6 16  1  0  0  0  0
  7 17  1  0  0  0  0
  7 18  1  0  0  0  0
  7 19  1  0  0  0  0
M  END
> <PUBCHEM_COMPOUND_CID>
138938

> <PUBCHEM_CONFORMER_RMSD>
0.4

> <PUBCHEM_CONFORMER_DIVERSEORDER>
2
5
1
3
4

> <PUBCHEM_MMFF94_PARTIAL_CHARGES>
3
1 -0.46
2 0.23
7 0.23

> <PUBCHEM_EFFECTIVE_ROTOR_COUNT>
2

> <PUBCHEM_PHARMACOPHORE_FEATURES>
2
1 7 hydrophobe
5 2 3 4 5 6 rings

> <PUBCHEM_HEAVY_ATOM_COUNT>
7

> <PUBCHEM_ATOM_DEF_STEREO_COUNT>
0

> <PUBCHEM_ATOM_UDEF_STEREO_COUNT>
0

> <PUBCHEM_BOND_DEF_STEREO_COUNT>
0

> <PUBCHEM_BOND_UDEF_STEREO_COUNT>
0

> <PUBCHEM_ISOTOPIC_ATOM_COUNT>
0

> <PUBCHEM_COMPONENT_COUNT>
1

> <PUBCHEM_CACTVS_TAUTO_COUNT>
1

> <PUBCHEM_CONFORMER_ID>
00021EBA00000002

> <PUBCHEM_MMFF94_ENERGY>
11.6989

> <PUBCHEM_FEATURE_SELFOVERLAP>
10.148

> <PUBCHEM_SHAPE_FINGERPRINT>
10857977 72 18335136548235963442
14390081 3 18343299262689681376
16714656 1 18409731750765487919
20096714 4 18192431874670087146
21040471 1 18191589644520984517
23552423 10 18187651262774702222
24536 1 17703225088340173298
29004967 10 18336273417526339610
369184 2 16805316708476756064
5084963 1 17750527169393825046
5460574 1 9079117756379180986

> <PUBCHEM_SHAPE_MULTIPOLES>
147.91
3.5
1.33
0.69
1.74
0
-0.01
0.36
0.22
-0.2
-0.07
0.08
0
0.18

> <PUBCHEM_SHAPE_SELFOVERLAP>
267.789

> <PUBCHEM_SHAPE_VOLUME>
97.9

> <PUBCHEM_COORDINATE_TYPE>
2
5
10

$$$$
