5357943
  -OEChem-11012401273D

 27 27  0     0  0  0  0  0  0999 V2000
    0.3897   -0.2850   -0.4295 N   0  0  0  0  0  0  0  0  0  0  0  0
    3.0618    0.3526    0.4243 C   0  0  0  0  0  0  0  0  0  0  0  0
    1.9699    1.4181    0.3465 C   0  0  0  0  0  0  0  0  0  0  0  0
    2.4546   -1.0297    0.6570 C   0  0  0  0  0  0  0  0  0  0  0  0
    0.9134    1.0560   -0.6954 C   0  0  0  0  0  0  0  0  0  0  0  0
    1.3907   -1.3523   -0.3905 C   0  0  0  0  0  0  0  0  0  0  0  0
   -0.9471   -0.5364   -0.3208 C   0  0  0  0  0  0  0  0  0  0  0  0
   -1.9548    0.3385   -0.4302 C   0  0  0  0  0  0  0  0  0  0  0  0
   -3.4018   -0.0343   -0.3012 C   0  0  0  0  0  0  0  0  0  0  0  0
   -3.8763    0.0725    1.1397 C   0  0  0  0  0  0  0  0  0  0  0  0
    3.6373    0.3481   -0.5094 H   0  0  0  0  0  0  0  0  0  0  0  0
    3.7604    0.5936    1.2331 H   0  0  0  0  0  0  0  0  0  0  0  0
    1.4939    1.5197    1.3300 H   0  0  0  0  0  0  0  0  0  0  0  0
    2.4169    2.3881    0.1017 H   0  0  0  0  0  0  0  0  0  0  0  0
    3.2426   -1.7905    0.6333 H   0  0  0  0  0  0  0  0  0  0  0  0
    2.0040   -1.0612    1.6571 H   0  0  0  0  0  0  0  0  0  0  0  0
    0.1594    1.8461   -0.6887 H   0  0  0  0  0  0  0  0  0  0  0  0
    1.3612    1.0680   -1.6972 H   0  0  0  0  0  0  0  0  0  0  0  0
    1.8526   -1.4508   -1.3806 H   0  0  0  0  0  0  0  0  0  0  0  0
    0.9386   -2.3226   -0.1522 H   0  0  0  0  0  0  0  0  0  0  0  0
   -1.1709   -1.5826   -0.1351 H   0  0  0  0  0  0  0  0  0  0  0  0
   -1.7832    1.3934   -0.6112 H   0  0  0  0  0  0  0  0  0  0  0  0
   -4.0006    0.6218   -0.9431 H   0  0  0  0  0  0  0  0  0  0  0  0
   -3.5651   -1.0570   -0.6618 H   0  0  0  0  0  0  0  0  0  0  0  0
   -3.7527    1.0912    1.5227 H   0  0  0  0  0  0  0  0  0  0  0  0
   -3.3203   -0.6077    1.7939 H   0  0  0  0  0  0  0  0  0  0  0  0
   -4.9376   -0.1872    1.2075 H   0  0  0  0  0  0  0  0  0  0  0  0
  1  5  1  0  0  0  0
  1  6  1  0  0  0  0
  1  7  1  0  0  0  0
  2  3  1  0  0  0  0
  2  4  1  0  0  0  0
  2 11  1  0  0  0  0
  2 12  1  0  0  0  0
  3  5  1  0  0  0  0
  3 13  1  0  0  0  0
  3 14  1  0  0  0  0
  4  6  1  0  0  0  0
  4 15  1  0  0  0  0
  4 16  1  0  0  0  0
  5 17  1  0  0  0  0
  5 18  1  0  0  0  0
  6 19  1  0  0  0  0
  6 20  1  0  0  0  0
  7  8  2  0  0  0  0
  7 21  1  0  0  0  0
  8  9  1  0  0  0  0
  8 22  1  0  0  0  0
  9 10  1  0  0  0  0
  9 23  1  0  0  0  0
  9 24  1  0  0  0  0
 10 25  1  0  0  0  0
 10 26  1  0  0  0  0
 10 27  1  0  0  0  0
M  END
> <PUBCHEM_COMPOUND_CID>
5357943

> <PUBCHEM_CONFORMER_RMSD>
0.6

> <PUBCHEM_CONFORMER_DIVERSEORDER>
1
2
3
4
5

> <PUBCHEM_MMFF94_PARTIAL_CHARGES>
8
1 -0.84
21 0.15
22 0.15
5 0.37
6 0.37
7 -0.05
8 -0.29
9 0.14

> <PUBCHEM_EFFECTIVE_ROTOR_COUNT>
3.2

> <PUBCHEM_PHARMACOPHORE_FEATURES>
3
1 1 cation
1 10 hydrophobe
6 1 2 3 4 5 6 rings

> <PUBCHEM_HEAVY_ATOM_COUNT>
10

> <PUBCHEM_ATOM_DEF_STEREO_COUNT>
0

> <PUBCHEM_ATOM_UDEF_STEREO_COUNT>
0

> <PUBCHEM_BOND_DEF_STEREO_COUNT>
1

> <PUBCHEM_BOND_UDEF_STEREO_COUNT>
0

> <PUBCHEM_ISOTOPIC_ATOM_COUNT>
0

> <PUBCHEM_COMPONENT_COUNT>
1

> <PUBCHEM_CACTVS_TAUTO_COUNT>
1

> <PUBCHEM_CONFORMER_ID>
0051C17700000001

> <PUBCHEM_MMFF94_ENERGY>
8.019

> <PUBCHEM_FEATURE_SELFOVERLAP>
15.223

> <PUBCHEM_SHAPE_FINGERPRINT>
10149128 111 17418382402076721241
10219947 1 18410005533461013806
10857977 72 17385443228515896695
12932764 1 18408038511628047839
14325111 11 18411978087602247399
14390081 3 14620795990126233675
15501101 241 18334852805706534996
15775835 57 18060137690723449249
177051 138 16153431679401539225
20279233 1 17676202472969420459
20281407 28 16877944901905112259
20645477 70 18263066748270797663
20715346 28 17895184494106479597
20871998 22 18054508007049351174
22485316 2 14418127426730318337
3248919 1 17561362877152243175
57812782 119 17676201377620761281

> <PUBCHEM_SHAPE_MULTIPOLES>
200.81
6.09
1.29
0.93
5.1
0.03
-0.13
0.19
-1.96
-1.03
0.03
0.34
0.01
-0.03

> <PUBCHEM_SHAPE_SELFOVERLAP>
381.897

> <PUBCHEM_SHAPE_VOLUME>
120.4

> <PUBCHEM_COORDINATE_TYPE>
2
5
10

$$$$
