142512
  -OEChem-11012401233D

 42 43  0     1  0  0  0  0  0999 V2000
   -0.2094    1.4112    1.0608 O   0  0  0  0  0  0  0  0  0  0  0  0
    0.2095   -1.4114    1.0607 O   0  0  0  0  0  0  0  0  0  0  0  0
   -0.4754    0.6336   -0.1204 C   0  0  1  0  0  0  0  0  0  0  0  0
    0.4754   -0.6337   -0.1204 C   0  0  1  0  0  0  0  0  0  0  0  0
   -1.9636    0.2396   -0.1204 C   0  0  0  0  0  0  0  0  0  0  0  0
    1.9635   -0.2397   -0.1204 C   0  0  0  0  0  0  0  0  0  0  0  0
   -0.2010    1.5957   -1.2989 C   0  0  0  0  0  0  0  0  0  0  0  0
    0.2010   -1.5958   -1.2988 C   0  0  0  0  0  0  0  0  0  0  0  0
   -2.6244    0.1979   -1.3216 C   0  0  0  0  0  0  0  0  0  0  0  0
    2.6244   -0.1978   -1.3216 C   0  0  0  0  0  0  0  0  0  0  0  0
   -2.5585   -0.0515    1.0806 C   0  0  0  0  0  0  0  0  0  0  0  0
    2.5585    0.0515    1.0806 C   0  0  0  0  0  0  0  0  0  0  0  0
   -1.0026    2.5824    1.0825 C   0  0  0  0  0  0  0  0  0  0  0  0
    1.0029   -2.5827    1.0822 C   0  0  0  0  0  0  0  0  0  0  0  0
   -3.9727   -0.1592   -1.3218 C   0  0  0  0  0  0  0  0  0  0  0  0
    3.9727    0.1595   -1.3218 C   0  0  0  0  0  0  0  0  0  0  0  0
   -3.9070   -0.4088    1.0803 C   0  0  0  0  0  0  0  0  0  0  0  0
    3.9069    0.4089    1.0803 C   0  0  0  0  0  0  0  0  0  0  0  0
   -4.6139   -0.4626   -0.1209 C   0  0  0  0  0  0  0  0  0  0  0  0
    4.6139    0.4629   -0.1210 C   0  0  0  0  0  0  0  0  0  0  0  0
   -0.1102    1.0793   -2.2593 H   0  0  0  0  0  0  0  0  0  0  0  0
   -0.9700    2.3668   -1.4328 H   0  0  0  0  0  0  0  0  0  0  0  0
    0.7412    2.1380   -1.1480 H   0  0  0  0  0  0  0  0  0  0  0  0
    0.1101   -1.0793   -2.2593 H   0  0  0  0  0  0  0  0  0  0  0  0
   -0.7412   -2.1381   -1.1479 H   0  0  0  0  0  0  0  0  0  0  0  0
    0.9700   -2.3668   -1.4329 H   0  0  0  0  0  0  0  0  0  0  0  0
   -2.1621    0.3983   -2.2803 H   0  0  0  0  0  0  0  0  0  0  0  0
    2.1619   -0.3981   -2.2803 H   0  0  0  0  0  0  0  0  0  0  0  0
   -2.0244   -0.0296    2.0250 H   0  0  0  0  0  0  0  0  0  0  0  0
    2.0245    0.0295    2.0249 H   0  0  0  0  0  0  0  0  0  0  0  0
   -1.0826    2.8934    2.1299 H   0  0  0  0  0  0  0  0  0  0  0  0
   -2.0235    2.5106    0.6994 H   0  0  0  0  0  0  0  0  0  0  0  0
   -0.4798    3.3974    0.5703 H   0  0  0  0  0  0  0  0  0  0  0  0
    0.4800   -3.3978    0.5700 H   0  0  0  0  0  0  0  0  0  0  0  0
    1.0830   -2.8937    2.1296 H   0  0  0  0  0  0  0  0  0  0  0  0
    2.0236   -2.5106    0.6988 H   0  0  0  0  0  0  0  0  0  0  0  0
   -4.5222   -0.2076   -2.2575 H   0  0  0  0  0  0  0  0  0  0  0  0
    4.5221    0.2081   -2.2575 H   0  0  0  0  0  0  0  0  0  0  0  0
   -4.4057   -0.6486    2.0149 H   0  0  0  0  0  0  0  0  0  0  0  0
    4.4057    0.6486    2.0149 H   0  0  0  0  0  0  0  0  0  0  0  0
   -5.6632   -0.7430   -0.1214 H   0  0  0  0  0  0  0  0  0  0  0  0
    5.6630    0.7435   -0.1214 H   0  0  0  0  0  0  0  0  0  0  0  0
  1  3  1  0  0  0  0
  1 13  1  0  0  0  0
  2  4  1  0  0  0  0
  2 14  1  0  0  0  0
  3  4  1  0  0  0  0
  3  5  1  0  0  0  0
  3  7  1  0  0  0  0
  4  6  1  0  0  0  0
  4  8  1  0  0  0  0
  5  9  2  0  0  0  0
  5 11  1  0  0  0  0
  6 10  2  0  0  0  0
  6 12  1  0  0  0  0
  7 21  1  0  0  0  0
  7 22  1  0  0  0  0
  7 23  1  0  0  0  0
  8 24  1  0  0  0  0
  8 25  1  0  0  0  0
  8 26  1  0  0  0  0
  9 15  1  0  0  0  0
  9 27  1  0  0  0  0
 10 16  1  0  0  0  0
 10 28  1  0  0  0  0
 11 17  2  0  0  0  0
 11 29  1  0  0  0  0
 12 18  2  0  0  0  0
 12 30  1  0  0  0  0
 13 31  1  0  0  0  0
 13 32  1  0  0  0  0
 13 33  1  0  0  0  0
 14 34  1  0  0  0  0
 14 35  1  0  0  0  0
 14 36  1  0  0  0  0
 15 19  2  0  0  0  0
 15 37  1  0  0  0  0
 16 20  2  0  0  0  0
 16 38  1  0  0  0  0
 17 19  1  0  0  0  0
 17 39  1  0  0  0  0
 18 20  1  0  0  0  0
 18 40  1  0  0  0  0
 19 41  1  0  0  0  0
 20 42  1  0  0  0  0
M  END
> <PUBCHEM_COMPOUND_CID>
142512

> <PUBCHEM_CONFORMER_RMSD>
0.8

> <PUBCHEM_CONFORMER_DIVERSEORDER>
2
7
9
1
5
6
8
4
3

> <PUBCHEM_MMFF94_PARTIAL_CHARGES>
28
1 -0.56
10 -0.15
11 -0.15
12 -0.15
13 0.28
14 0.28
15 -0.15
16 -0.15
17 -0.15
18 -0.15
19 -0.15
2 -0.56
20 -0.15
27 0.15
28 0.15
29 0.15
3 0.42
30 0.15
37 0.15
38 0.15
39 0.15
4 0.42
40 0.15
41 0.15
42 0.15
5 -0.14
6 -0.14
9 -0.15

> <PUBCHEM_EFFECTIVE_ROTOR_COUNT>
5

> <PUBCHEM_PHARMACOPHORE_FEATURES>
4
1 1 acceptor
1 2 acceptor
6 5 9 11 15 17 19 rings
6 6 10 12 16 18 20 rings

> <PUBCHEM_HEAVY_ATOM_COUNT>
20

> <PUBCHEM_ATOM_DEF_STEREO_COUNT>
0

> <PUBCHEM_ATOM_UDEF_STEREO_COUNT>
2

> <PUBCHEM_BOND_DEF_STEREO_COUNT>
0

> <PUBCHEM_BOND_UDEF_STEREO_COUNT>
0

> <PUBCHEM_ISOTOPIC_ATOM_COUNT>
0

> <PUBCHEM_COMPONENT_COUNT>
1

> <PUBCHEM_CACTVS_TAUTO_COUNT>
1

> <PUBCHEM_CONFORMER_ID>
00022CB000000002

> <PUBCHEM_MMFF94_ENERGY>
102.0426

> <PUBCHEM_FEATURE_SELFOVERLAP>
20.3

> <PUBCHEM_SHAPE_FINGERPRINT>
10498660 4 17988637441875686177
10863032 1 15719110275039884544
10948715 1 15719390646231086074
11132069 177 18271522082512981702
11370993 70 16660637458088139371
12403814 3 17095522916009252351
12592029 89 16877940521049026850
128620 24 18410575080373386630
12969540 114 18336537330518862124
13140716 1 18194683889195155793
13224815 77 18410855417178488847
13538477 17 17822295751257007650
13583140 156 16226623999203766808
14004511 7 12757149065312643973
14787075 74 18267020733422015985
14955137 171 17988093304221451483
15848702 151 16558755615309794548
16945 1 18410575088958046210
17349148 13 17967249767503838554
17834072 14 17022901224871238299
1813 80 18202570595997193557
18186145 218 18410011078316676780
18981168 100 15696571278797340408
19010151 120 17821734926711245084
19422 9 15770058332451213223
200 152 16805320002832801048
20715895 44 16517349004251575101
21069387 34 14418138391602496744
21501502 16 18122624946542778057
23227448 37 17680440136753878516
23402539 116 18201718440515779748
23419403 2 17044805923337655844
23557571 272 16588023485760431423
23559900 14 17314774218674283306
265663 24 15647049382456491142
296302 2 17458063750958575893
312423 11 18267871575365955018
3286 77 18130508514287653422
3323516 105 16630807707800421910
34934 24 18200601276799517617
351380 180 15430033275008645116
474 4 17702369844487968344
568465 68 18189066424639458147
57426455 19 18334861636053689962
633830 44 18341902891322462268
69090 78 17775564264829338278
70251023 43 18052255090496904007
7495541 125 17313957445138994641
77779 3 15770060540053847292
9709674 26 14851612072151216832

> <PUBCHEM_SHAPE_MULTIPOLES>
399.85
7.91
1.8
1.59
0
0
-0.16
0
-0.65
0
0.59
0
0
-0.11

> <PUBCHEM_SHAPE_SELFOVERLAP>
855.308

> <PUBCHEM_SHAPE_VOLUME>
221.8

> <PUBCHEM_COORDINATE_TYPE>
2
5
10

$$$$
