80718
  -OEChem-11012400573D

 38 42  0     0  0  0  0  0  0999 V2000
    5.6757    0.2879    1.2381 O   0  0  0  0  0  0  0  0  0  0  0  0
   -5.6757   -0.2878    1.2382 O   0  0  0  0  0  0  0  0  0  0  0  0
    5.8691    0.2615   -1.0265 O   0  0  0  0  0  0  0  0  0  0  0  0
   -5.8690   -0.2611   -1.0264 O   0  0  0  0  0  0  0  0  0  0  0  0
    1.3960   -0.2545   -0.0192 C   0  0  0  0  0  0  0  0  0  0  0  0
   -1.3960    0.2544   -0.0192 C   0  0  0  0  0  0  0  0  0  0  0  0
    0.9256    1.0855   -0.0191 C   0  0  0  0  0  0  0  0  0  0  0  0
   -0.9256   -1.0856   -0.0192 C   0  0  0  0  0  0  0  0  0  0  0  0
    0.4831   -1.3424   -0.0191 C   0  0  0  0  0  0  0  0  0  0  0  0
   -0.4831    1.3423   -0.0190 C   0  0  0  0  0  0  0  0  0  0  0  0
    2.8029   -0.5109   -0.0193 C   0  0  0  0  0  0  0  0  0  0  0  0
   -2.8028    0.5108   -0.0193 C   0  0  0  0  0  0  0  0  0  0  0  0
    1.9011    2.1149   -0.0190 C   0  0  0  0  0  0  0  0  0  0  0  0
   -1.9011   -2.1150   -0.0192 C   0  0  0  0  0  0  0  0  0  0  0  0
    1.0327   -2.6497   -0.0191 C   0  0  0  0  0  0  0  0  0  0  0  0
   -1.0328    2.6496   -0.0191 C   0  0  0  0  0  0  0  0  0  0  0  0
    3.7173    0.5439   -0.0194 C   0  0  0  0  0  0  0  0  0  0  0  0
   -3.7174   -0.5439   -0.0194 C   0  0  0  0  0  0  0  0  0  0  0  0
    3.2864   -1.8203   -0.0193 C   0  0  0  0  0  0  0  0  0  0  0  0
   -3.2864    1.8203   -0.0194 C   0  0  0  0  0  0  0  0  0  0  0  0
    3.2689    1.8524   -0.0192 C   0  0  0  0  0  0  0  0  0  0  0  0
   -3.2689   -1.8525   -0.0193 C   0  0  0  0  0  0  0  0  0  0  0  0
    2.4052   -2.8866   -0.0192 C   0  0  0  0  0  0  0  0  0  0  0  0
   -2.4052    2.8865   -0.0193 C   0  0  0  0  0  0  0  0  0  0  0  0
    5.1663    0.3536   -0.0196 C   0  0  0  0  0  0  0  0  0  0  0  0
   -5.1664   -0.3535   -0.0196 C   0  0  0  0  0  0  0  0  0  0  0  0
    1.6183    3.1642   -0.0188 H   0  0  0  0  0  0  0  0  0  0  0  0
   -1.6182   -3.1642   -0.0192 H   0  0  0  0  0  0  0  0  0  0  0  0
    0.3981   -3.5318   -0.0191 H   0  0  0  0  0  0  0  0  0  0  0  0
   -0.3982    3.5318   -0.0191 H   0  0  0  0  0  0  0  0  0  0  0  0
    4.3491   -2.0490   -0.0197 H   0  0  0  0  0  0  0  0  0  0  0  0
   -4.3491    2.0489   -0.0200 H   0  0  0  0  0  0  0  0  0  0  0  0
    3.9682    2.6849   -0.0193 H   0  0  0  0  0  0  0  0  0  0  0  0
   -3.9682   -2.6850   -0.0196 H   0  0  0  0  0  0  0  0  0  0  0  0
    2.7805   -3.9057   -0.0193 H   0  0  0  0  0  0  0  0  0  0  0  0
   -2.7805    3.9057   -0.0195 H   0  0  0  0  0  0  0  0  0  0  0  0
    6.6482    0.1599    1.2323 H   0  0  0  0  0  0  0  0  0  0  0  0
   -6.6482   -0.1596    1.2325 H   0  0  0  0  0  0  0  0  0  0  0  0
  1 25  1  0  0  0  0
  1 37  1  0  0  0  0
  2 26  1  0  0  0  0
  2 38  1  0  0  0  0
  3 25  2  0  0  0  0
  4 26  2  0  0  0  0
  5  7  1  0  0  0  0
  5  9  2  0  0  0  0
  5 11  1  0  0  0  0
  6  8  1  0  0  0  0
  6 10  2  0  0  0  0
  6 12  1  0  0  0  0
  7 10  1  0  0  0  0
  7 13  2  0  0  0  0
  8  9  1  0  0  0  0
  8 14  2  0  0  0  0
  9 15  1  0  0  0  0
 10 16  1  0  0  0  0
 11 17  1  0  0  0  0
 11 19  2  0  0  0  0
 12 18  1  0  0  0  0
 12 20  2  0  0  0  0
 13 21  1  0  0  0  0
 13 27  1  0  0  0  0
 14 22  1  0  0  0  0
 14 28  1  0  0  0  0
 15 23  2  0  0  0  0
 15 29  1  0  0  0  0
 16 24  2  0  0  0  0
 16 30  1  0  0  0  0
 17 21  2  0  0  0  0
 17 25  1  0  0  0  0
 18 22  2  0  0  0  0
 18 26  1  0  0  0  0
 19 23  1  0  0  0  0
 19 31  1  0  0  0  0
 20 24  1  0  0  0  0
 20 32  1  0  0  0  0
 21 33  1  0  0  0  0
 22 34  1  0  0  0  0
 23 35  1  0  0  0  0
 24 36  1  0  0  0  0
M  END
> <PUBCHEM_COMPOUND_CID>
80718

> <PUBCHEM_CONFORMER_RMSD>
0.6

> <PUBCHEM_CONFORMER_DIVERSEORDER>
1
2

> <PUBCHEM_MMFF94_PARTIAL_CHARGES>
30
1 -0.65
13 -0.15
14 -0.15
15 -0.15
16 -0.15
17 0.09
18 0.09
19 -0.15
2 -0.65
20 -0.15
21 -0.15
22 -0.15
23 -0.15
24 -0.15
25 0.63
26 0.63
27 0.15
28 0.15
29 0.15
3 -0.57
30 0.15
31 0.15
32 0.15
33 0.15
34 0.15
35 0.15
36 0.15
37 0.5
38 0.5
4 -0.57

> <PUBCHEM_EFFECTIVE_ROTOR_COUNT>
2

> <PUBCHEM_PHARMACOPHORE_FEATURES>
11
1 1 acceptor
1 2 acceptor
1 3 acceptor
1 4 acceptor
3 1 3 25 anion
3 2 4 26 anion
6 5 6 7 8 9 10 rings
6 5 7 11 13 17 21 rings
6 5 9 11 15 19 23 rings
6 6 10 12 16 20 24 rings
6 6 8 12 14 18 22 rings

> <PUBCHEM_HEAVY_ATOM_COUNT>
26

> <PUBCHEM_ATOM_DEF_STEREO_COUNT>
0

> <PUBCHEM_ATOM_UDEF_STEREO_COUNT>
0

> <PUBCHEM_BOND_DEF_STEREO_COUNT>
0

> <PUBCHEM_BOND_UDEF_STEREO_COUNT>
0

> <PUBCHEM_ISOTOPIC_ATOM_COUNT>
0

> <PUBCHEM_COMPONENT_COUNT>
1

> <PUBCHEM_CACTVS_TAUTO_COUNT>
1

> <PUBCHEM_CONFORMER_ID>
00013B4E00000001

> <PUBCHEM_MMFF94_ENERGY>
112.2667

> <PUBCHEM_FEATURE_SELFOVERLAP>
56.085

> <PUBCHEM_SHAPE_FINGERPRINT>
10411042 1 17834114143508922711
10616163 171 18411139138576225598
10670039 82 18261971652343740404
10906281 52 18263099806248504619
10967382 1 18410575106143196663
1100329 8 13006537509306368232
11513181 2 18059010562714820055
11578080 2 17096915863570203367
11963148 33 18335134340666244651
12011746 2 18410573998036353351
12107183 9 17689997834324056210
12553582 1 18411127061191447233
12788726 201 18335979787897871745
12838862 33 18339059571364473860
13140716 1 18194683893490123057
13402501 40 18410855490192932960
13862211 1 18410569612916980815
14178342 30 18266448829116345816
14223421 5 18338234838832689053
14617045 38 18410864264906246047
14790565 3 17905054999079277813
15131766 46 14691419915765318528
15196674 1 18338516318099079181
1601671 61 18410292523571468710
16945 1 18410573959381647380
17349148 13 18114459045735321332
17492 89 18266458702882532451
1813 80 17313111825585469197
18681886 176 18337951298715713504
19591789 44 18122907800278096886
20028762 73 18201716318491245366
20691752 17 17387142974634356904
20905425 154 18341615871558628126
21267235 1 18410302422964553927
21421861 104 18188204299796048442
21792934 111 18338226051994285561
21857420 4 13282035764416318533
221357 26 18343867701648080972
221490 88 18265902345592698906
22393880 68 18196379121988732006
23366157 5 17897733063713837802
23402539 116 18270674380665390343
23559900 14 18339355400111682648
23566358 2 18340205172286037351
335352 9 18410574023806157263
34934 24 18411695508766798223
350125 39 18410295821705782708
3545911 37 18410012147626402959
3680242 22 18334857169451518762
392239 28 18114755914144113451
463206 1 18268988872432178871
5104073 3 18266741281369621401
5486654 2 18410014364014293574
59755656 215 18409448081039461766
9709674 26 18339366262073197327

> <PUBCHEM_SHAPE_MULTIPOLES>
511.59
11.14
3.05
0.75
0
0
-0.04
0
-0.18
0
0.03
0
0
0.03

> <PUBCHEM_SHAPE_SELFOVERLAP>
1194.483

> <PUBCHEM_SHAPE_VOLUME>
260.6

> <PUBCHEM_COORDINATE_TYPE>
2
5
10

$$$$
