138590
  -OEChem-10312420462D

 57 56  0     0  0  0  0  0  0999 V2000
    3.4030    0.7500    0.0000 O   0  0  0  0  0  0  0  0  0  0  0  0
    4.2690   -0.7500    0.0000 O   0  0  0  0  0  0  0  0  0  0  0  0
    2.5369    0.2500    0.0000 O   0  0  0  0  0  0  0  0  0  0  0  0
   12.0632    0.7500    0.0000 C   0  0  0  0  0  0  0  0  0  0  0  0
   11.1972    0.2500    0.0000 C   0  0  0  0  0  0  0  0  0  0  0  0
   12.9292    0.2500    0.0000 C   0  0  0  0  0  0  0  0  0  0  0  0
   10.3312    0.7500    0.0000 C   0  0  0  0  0  0  0  0  0  0  0  0
   13.7953    0.7500    0.0000 C   0  0  0  0  0  0  0  0  0  0  0  0
    9.4651    0.2500    0.0000 C   0  0  0  0  0  0  0  0  0  0  0  0
   14.6613    0.2500    0.0000 C   0  0  0  0  0  0  0  0  0  0  0  0
    8.5991    0.7500    0.0000 C   0  0  0  0  0  0  0  0  0  0  0  0
   15.5273    0.7500    0.0000 C   0  0  0  0  0  0  0  0  0  0  0  0
    7.7331    0.2500    0.0000 C   0  0  0  0  0  0  0  0  0  0  0  0
   16.3933    0.2500    0.0000 C   0  0  0  0  0  0  0  0  0  0  0  0
    6.8671    0.7500    0.0000 C   0  0  0  0  0  0  0  0  0  0  0  0
   17.2594    0.7500    0.0000 C   0  0  0  0  0  0  0  0  0  0  0  0
    6.0010    0.2500    0.0000 C   0  0  0  0  0  0  0  0  0  0  0  0
   18.1254    0.2500    0.0000 C   0  0  0  0  0  0  0  0  0  0  0  0
    5.1350    0.7500    0.0000 C   0  0  0  0  0  0  0  0  0  0  0  0
   18.9914    0.7500    0.0000 C   0  0  0  0  0  0  0  0  0  0  0  0
    4.2690    0.2500    0.0000 C   0  0  0  0  0  0  0  0  0  0  0  0
   12.4617    1.2250    0.0000 H   0  0  0  0  0  0  0  0  0  0  0  0
   11.6647    1.2250    0.0000 H   0  0  0  0  0  0  0  0  0  0  0  0
   10.7987   -0.2249    0.0000 H   0  0  0  0  0  0  0  0  0  0  0  0
   11.5957   -0.2249    0.0000 H   0  0  0  0  0  0  0  0  0  0  0  0
   12.5307   -0.2249    0.0000 H   0  0  0  0  0  0  0  0  0  0  0  0
   13.3278   -0.2249    0.0000 H   0  0  0  0  0  0  0  0  0  0  0  0
   10.7297    1.2250    0.0000 H   0  0  0  0  0  0  0  0  0  0  0  0
    9.9326    1.2250    0.0000 H   0  0  0  0  0  0  0  0  0  0  0  0
   14.1938    1.2250    0.0000 H   0  0  0  0  0  0  0  0  0  0  0  0
   13.3967    1.2250    0.0000 H   0  0  0  0  0  0  0  0  0  0  0  0
    9.0666   -0.2249    0.0000 H   0  0  0  0  0  0  0  0  0  0  0  0
    9.8637   -0.2249    0.0000 H   0  0  0  0  0  0  0  0  0  0  0  0
   14.2628   -0.2249    0.0000 H   0  0  0  0  0  0  0  0  0  0  0  0
   15.0598   -0.2249    0.0000 H   0  0  0  0  0  0  0  0  0  0  0  0
    8.9976    1.2250    0.0000 H   0  0  0  0  0  0  0  0  0  0  0  0
    8.2006    1.2250    0.0000 H   0  0  0  0  0  0  0  0  0  0  0  0
   15.9258    1.2250    0.0000 H   0  0  0  0  0  0  0  0  0  0  0  0
   15.1288    1.2250    0.0000 H   0  0  0  0  0  0  0  0  0  0  0  0
    7.3346   -0.2249    0.0000 H   0  0  0  0  0  0  0  0  0  0  0  0
    8.1316   -0.2249    0.0000 H   0  0  0  0  0  0  0  0  0  0  0  0
   15.9948   -0.2249    0.0000 H   0  0  0  0  0  0  0  0  0  0  0  0
   16.7919   -0.2249    0.0000 H   0  0  0  0  0  0  0  0  0  0  0  0
    7.2656    1.2250    0.0000 H   0  0  0  0  0  0  0  0  0  0  0  0
    6.4685    1.2250    0.0000 H   0  0  0  0  0  0  0  0  0  0  0  0
   17.6579    1.2250    0.0000 H   0  0  0  0  0  0  0  0  0  0  0  0
   16.8608    1.2250    0.0000 H   0  0  0  0  0  0  0  0  0  0  0  0
    5.6025   -0.2249    0.0000 H   0  0  0  0  0  0  0  0  0  0  0  0
    6.3996   -0.2249    0.0000 H   0  0  0  0  0  0  0  0  0  0  0  0
   17.7269   -0.2249    0.0000 H   0  0  0  0  0  0  0  0  0  0  0  0
   18.5239   -0.2249    0.0000 H   0  0  0  0  0  0  0  0  0  0  0  0
    5.5335    1.2250    0.0000 H   0  0  0  0  0  0  0  0  0  0  0  0
    4.7365    1.2250    0.0000 H   0  0  0  0  0  0  0  0  0  0  0  0
   19.3014    0.2131    0.0000 H   0  0  0  0  0  0  0  0  0  0  0  0
   19.5284    1.0600    0.0000 H   0  0  0  0  0  0  0  0  0  0  0  0
   18.6814    1.2869    0.0000 H   0  0  0  0  0  0  0  0  0  0  0  0
    2.0000    0.5600    0.0000 H   0  0  0  0  0  0  0  0  0  0  0  0
  1  3  1  0  0  0  0
  1 21  1  0  0  0  0
  2 21  2  0  0  0  0
  3 57  1  0  0  0  0
  4  5  1  0  0  0  0
  4  6  1  0  0  0  0
  4 22  1  0  0  0  0
  4 23  1  0  0  0  0
  5  7  1  0  0  0  0
  5 24  1  0  0  0  0
  5 25  1  0  0  0  0
  6  8  1  0  0  0  0
  6 26  1  0  0  0  0
  6 27  1  0  0  0  0
  7  9  1  0  0  0  0
  7 28  1  0  0  0  0
  7 29  1  0  0  0  0
  8 10  1  0  0  0  0
  8 30  1  0  0  0  0
  8 31  1  0  0  0  0
  9 11  1  0  0  0  0
  9 32  1  0  0  0  0
  9 33  1  0  0  0  0
 10 12  1  0  0  0  0
 10 34  1  0  0  0  0
 10 35  1  0  0  0  0
 11 13  1  0  0  0  0
 11 36  1  0  0  0  0
 11 37  1  0  0  0  0
 12 14  1  0  0  0  0
 12 38  1  0  0  0  0
 12 39  1  0  0  0  0
 13 15  1  0  0  0  0
 13 40  1  0  0  0  0
 13 41  1  0  0  0  0
 14 16  1  0  0  0  0
 14 42  1  0  0  0  0
 14 43  1  0  0  0  0
 15 17  1  0  0  0  0
 15 44  1  0  0  0  0
 15 45  1  0  0  0  0
 16 18  1  0  0  0  0
 16 46  1  0  0  0  0
 16 47  1  0  0  0  0
 17 19  1  0  0  0  0
 17 48  1  0  0  0  0
 17 49  1  0  0  0  0
 18 20  1  0  0  0  0
 18 50  1  0  0  0  0
 18 51  1  0  0  0  0
 19 21  1  0  0  0  0
 19 52  1  0  0  0  0
 19 53  1  0  0  0  0
 20 54  1  0  0  0  0
 20 55  1  0  0  0  0
 20 56  1  0  0  0  0
M  END
> <PUBCHEM_COMPOUND_CID>
138590

> <PUBCHEM_COMPOUND_CANONICALIZED>
1

> <PUBCHEM_CACTVS_COMPLEXITY>
217

> <PUBCHEM_CACTVS_HBOND_ACCEPTOR>
3

> <PUBCHEM_CACTVS_HBOND_DONOR>
1

> <PUBCHEM_CACTVS_ROTATABLE_BOND>
17

> <PUBCHEM_CACTVS_SUBSKEYS>
AAADcfB4MAAAAAAAAAAAAAAAAAAAAAAAAAAAAAAAAAAAAAAAAAAAGgAADAAACACAgAACCAAAAAAIAACQCAAAAAAAAAAAAAEAAAAAABIAAAAAAAAEAAAAAAGIyKCAAAAAAAAAAAAAAAAAAAAAAAAAAAAAAA==

> <PUBCHEM_IUPAC_OPENEYE_NAME>
octadecaneperoxoic acid

> <PUBCHEM_IUPAC_CAS_NAME>
octadecaneperoxoic acid

> <PUBCHEM_IUPAC_NAME_MARKUP>
octadecaneperoxoic acid

> <PUBCHEM_IUPAC_NAME>
octadecaneperoxoic acid

> <PUBCHEM_IUPAC_SYSTEMATIC_NAME>
octadecaneperoxoic acid

> <PUBCHEM_IUPAC_TRADITIONAL_NAME>
peroxystearic acid

> <PUBCHEM_IUPAC_INCHI>
InChI=1S/C18H36O3/c1-2-3-4-5-6-7-8-9-10-11-12-13-14-15-16-17-18(19)21-20/h20H,2-17H2,1H3

> <PUBCHEM_IUPAC_INCHIKEY>
SHBUUTHKGIVMJT-UHFFFAOYSA-N

> <PUBCHEM_XLOGP3_AA>
8

> <PUBCHEM_EXACT_MASS>
300.26644501

> <PUBCHEM_MOLECULAR_FORMULA>
C18H36O3

> <PUBCHEM_MOLECULAR_WEIGHT>
300.5

> <PUBCHEM_OPENEYE_CAN_SMILES>
CCCCCCCCCCCCCCCCCC(=O)OO

> <PUBCHEM_OPENEYE_ISO_SMILES>
CCCCCCCCCCCCCCCCCC(=O)OO

> <PUBCHEM_CACTVS_TPSA>
46.5

> <PUBCHEM_MONOISOTOPIC_WEIGHT>
300.26644501

> <PUBCHEM_TOTAL_CHARGE>
0

> <PUBCHEM_HEAVY_ATOM_COUNT>
21

> <PUBCHEM_ATOM_DEF_STEREO_COUNT>
0

> <PUBCHEM_ATOM_UDEF_STEREO_COUNT>
0

> <PUBCHEM_BOND_DEF_STEREO_COUNT>
0

> <PUBCHEM_BOND_UDEF_STEREO_COUNT>
0

> <PUBCHEM_ISOTOPIC_ATOM_COUNT>
0

> <PUBCHEM_COMPONENT_COUNT>
1

> <PUBCHEM_CACTVS_TAUTO_COUNT>
-1

> <PUBCHEM_COORDINATE_TYPE>
1
5
255

$$$$
