6262774
  -OEChem-11012401253D

 30 30  0     0  0  0  0  0  0999 V2000
   -2.2253    1.3689    0.3787 C   0  0  0  0  0  0  0  0  0  0  0  0
   -1.5143   -1.7338    0.6415 C   0  0  0  0  0  0  0  0  0  0  0  0
   -1.1069    2.3698    0.0611 C   0  0  0  0  0  0  0  0  0  0  0  0
   -0.2858   -2.5848    0.2798 C   0  0  0  0  0  0  0  0  0  0  0  0
    2.6077    1.1282    0.1013 C   0  0  0  0  0  0  0  0  0  0  0  0
    2.8356   -0.3243   -0.3363 C   0  0  0  0  0  0  0  0  0  0  0  0
   -2.3695    0.2922   -0.6610 C   0  0  0  0  0  0  0  0  0  0  0  0
   -2.1029   -1.0181   -0.5428 C   0  0  0  0  0  0  0  0  0  0  0  0
    0.2447    1.8717    0.4856 C   0  0  0  0  0  0  0  0  0  0  0  0
    0.8017   -1.7741   -0.3616 C   0  0  0  0  0  0  0  0  0  0  0  0
    1.2722    1.6582   -0.3499 C   0  0  0  0  0  0  0  0  0  0  0  0
    1.8428   -1.2540    0.3036 C   0  0  0  0  0  0  0  0  0  0  0  0
   -3.1771    1.9156    0.4017 H   0  0  0  0  0  0  0  0  0  0  0  0
   -2.1015    0.9547    1.3849 H   0  0  0  0  0  0  0  0  0  0  0  0
   -1.2369   -1.0341    1.4366 H   0  0  0  0  0  0  0  0  0  0  0  0
   -2.2836   -2.3939    1.0597 H   0  0  0  0  0  0  0  0  0  0  0  0
   -1.3013    3.2965    0.6155 H   0  0  0  0  0  0  0  0  0  0  0  0
   -1.1178    2.6363   -1.0030 H   0  0  0  0  0  0  0  0  0  0  0  0
   -0.5727   -3.3914   -0.4061 H   0  0  0  0  0  0  0  0  0  0  0  0
    0.0870   -3.0729    1.1888 H   0  0  0  0  0  0  0  0  0  0  0  0
    3.3926    1.7616   -0.3289 H   0  0  0  0  0  0  0  0  0  0  0  0
    2.7092    1.2080    1.1913 H   0  0  0  0  0  0  0  0  0  0  0  0
    3.8449   -0.6385   -0.0454 H   0  0  0  0  0  0  0  0  0  0  0  0
    2.7907   -0.3957   -1.4305 H   0  0  0  0  0  0  0  0  0  0  0  0
   -2.7767    0.6266   -1.6144 H   0  0  0  0  0  0  0  0  0  0  0  0
   -2.3192   -1.6449   -1.4068 H   0  0  0  0  0  0  0  0  0  0  0  0
    0.3753    1.6732    1.5470 H   0  0  0  0  0  0  0  0  0  0  0  0
    0.6873   -1.5573   -1.4212 H   0  0  0  0  0  0  0  0  0  0  0  0
    1.1505    1.8481   -1.4130 H   0  0  0  0  0  0  0  0  0  0  0  0
    1.9519   -1.4421    1.3684 H   0  0  0  0  0  0  0  0  0  0  0  0
  1  3  1  0  0  0  0
  1  7  1  0  0  0  0
  1 13  1  0  0  0  0
  1 14  1  0  0  0  0
  2  4  1  0  0  0  0
  2  8  1  0  0  0  0
  2 15  1  0  0  0  0
  2 16  1  0  0  0  0
  3  9  1  0  0  0  0
  3 17  1  0  0  0  0
  3 18  1  0  0  0  0
  4 10  1  0  0  0  0
  4 19  1  0  0  0  0
  4 20  1  0  0  0  0
  5  6  1  0  0  0  0
  5 11  1  0  0  0  0
  5 21  1  0  0  0  0
  5 22  1  0  0  0  0
  6 12  1  0  0  0  0
  6 23  1  0  0  0  0
  6 24  1  0  0  0  0
  7  8  2  0  0  0  0
  7 25  1  0  0  0  0
  8 26  1  0  0  0  0
  9 11  2  0  0  0  0
  9 27  1  0  0  0  0
 10 12  2  0  0  0  0
 10 28  1  0  0  0  0
 11 29  1  0  0  0  0
 12 30  1  0  0  0  0
M  END
> <PUBCHEM_COMPOUND_CID>
6262774

> <PUBCHEM_CONFORMER_RMSD>
0.4

> <PUBCHEM_CONFORMER_DIVERSEORDER>
1

> <PUBCHEM_MMFF94_PARTIAL_CHARGES>
18
1 0.14
10 -0.29
11 -0.29
12 -0.29
2 0.14
25 0.15
26 0.15
27 0.15
28 0.15
29 0.15
3 0.14
30 0.15
4 0.14
5 0.14
6 0.14
7 -0.29
8 -0.29
9 -0.29

> <PUBCHEM_EFFECTIVE_ROTOR_COUNT>
1.2

> <PUBCHEM_PHARMACOPHORE_FEATURES>
0

> <PUBCHEM_HEAVY_ATOM_COUNT>
12

> <PUBCHEM_ATOM_DEF_STEREO_COUNT>
0

> <PUBCHEM_ATOM_UDEF_STEREO_COUNT>
0

> <PUBCHEM_BOND_DEF_STEREO_COUNT>
3

> <PUBCHEM_BOND_UDEF_STEREO_COUNT>
0

> <PUBCHEM_ISOTOPIC_ATOM_COUNT>
0

> <PUBCHEM_COMPONENT_COUNT>
1

> <PUBCHEM_CACTVS_TAUTO_COUNT>
1

> <PUBCHEM_CONFORMER_ID>
005F8FF600000001

> <PUBCHEM_MMFF94_ENERGY>
5.0785

> <PUBCHEM_FEATURE_SELFOVERLAP>
0

> <PUBCHEM_SHAPE_FINGERPRINT>
1420 336 18338796706565413842
14251711 518 17690836761981106183
14251717 144 17762331419225237069
14251745 187 18343294881907409712
15775835 57 18196661691602061789
16945 1 18196086642741423020
20201158 50 18265889348915834951
22802520 49 17985287199981354198
2334 1 18411138081876997232
23590187 152 17477746344630622760
2748010 2 18194964277597913796
2897 32 18193840340470182356
66348 1 18338796831008429256

> <PUBCHEM_SHAPE_MULTIPOLES>
246.95
3.88
3.17
0.79
0.91
0.22
0.01
-0.42
0.37
-0.49
-0.37
-0.15
0.05
-0.02

> <PUBCHEM_SHAPE_SELFOVERLAP>
473.655

> <PUBCHEM_SHAPE_VOLUME>
143.6

> <PUBCHEM_COORDINATE_TYPE>
2
5
10

$$$$
