726455
  -OEChem-11012401043D

 15 15  0     1  0  0  0  0  0999 V2000
    1.6209   -1.4416    0.4733 O   0  0  0  0  0  0  0  0  0  0  0  0
   -1.6264   -1.4384    0.4740 O   0  0  0  0  0  0  0  0  0  0  0  0
    1.8665    0.0485   -1.2342 O   0  0  0  0  0  0  0  0  0  0  0  0
   -1.8643    0.0501   -1.2358 O   0  0  0  0  0  0  0  0  0  0  0  0
    0.7509    0.6941    0.7819 C   0  0  2  0  0  0  0  0  0  0  0  0
   -0.7498    0.6948    0.7811 C   0  0  1  0  0  0  0  0  0  0  0  0
    0.0013    1.8505    0.1881 C   0  0  0  0  0  0  0  0  0  0  0  0
    1.4660   -0.2297   -0.1136 C   0  0  0  0  0  0  0  0  0  0  0  0
   -1.4651   -0.2283   -0.1149 C   0  0  0  0  0  0  0  0  0  0  0  0
    1.2361    0.8729    1.7367 H   0  0  0  0  0  0  0  0  0  0  0  0
   -1.2358    0.8742    1.7355 H   0  0  0  0  0  0  0  0  0  0  0  0
    0.0015    2.7846    0.7386 H   0  0  0  0  0  0  0  0  0  0  0  0
    0.0019    1.9815   -0.8873 H   0  0  0  0  0  0  0  0  0  0  0  0
    2.0945   -2.0730   -0.1092 H   0  0  0  0  0  0  0  0  0  0  0  0
   -2.1019   -2.0687   -0.1081 H   0  0  0  0  0  0  0  0  0  0  0  0
  1  8  1  0  0  0  0
  1 14  1  0  0  0  0
  2  9  1  0  0  0  0
  2 15  1  0  0  0  0
  3  8  2  0  0  0  0
  4  9  2  0  0  0  0
  5  6  1  0  0  0  0
  5  7  1  0  0  0  0
  5  8  1  0  0  0  0
  5 10  1  0  0  0  0
  6  7  1  0  0  0  0
  6  9  1  0  0  0  0
  6 11  1  0  0  0  0
  7 12  1  0  0  0  0
  7 13  1  0  0  0  0
M  END
> <PUBCHEM_COMPOUND_CID>
726455

> <PUBCHEM_CONFORMER_RMSD>
0.6

> <PUBCHEM_CONFORMER_DIVERSEORDER>
1
2
3
4

> <PUBCHEM_MMFF94_PARTIAL_CHARGES>
15
1 -0.65
10 0.1
11 0.1
12 0.1
13 0.1
14 0.5
15 0.5
2 -0.65
3 -0.57
4 -0.57
5 -0.1
6 -0.1
7 -0.2
8 0.72
9 0.72

> <PUBCHEM_EFFECTIVE_ROTOR_COUNT>
2.6

> <PUBCHEM_PHARMACOPHORE_FEATURES>
6
1 1 acceptor
1 2 acceptor
1 3 acceptor
1 4 acceptor
3 1 3 8 anion
3 2 4 9 anion

> <PUBCHEM_HEAVY_ATOM_COUNT>
9

> <PUBCHEM_ATOM_DEF_STEREO_COUNT>
2

> <PUBCHEM_ATOM_UDEF_STEREO_COUNT>
0

> <PUBCHEM_BOND_DEF_STEREO_COUNT>
0

> <PUBCHEM_BOND_UDEF_STEREO_COUNT>
0

> <PUBCHEM_ISOTOPIC_ATOM_COUNT>
0

> <PUBCHEM_COMPONENT_COUNT>
1

> <PUBCHEM_CACTVS_TAUTO_COUNT>
1

> <PUBCHEM_CONFORMER_ID>
000B15B700000001

> <PUBCHEM_MMFF94_ENERGY>
15.41

> <PUBCHEM_FEATURE_SELFOVERLAP>
30.56

> <PUBCHEM_SHAPE_FINGERPRINT>
137420 1 13853230611667613712
18185500 45 18337397045501010122
20653085 51 16298958536943246052
21040471 1 17408815314974798408
24536 1 18198614630696239521
29004967 10 18270115841495558961

> <PUBCHEM_SHAPE_MULTIPOLES>
161.74
2.37
1.52
1.04
0
0.26
0.22
-0.89
0.5
0
-0.29
0
-0.03
0

> <PUBCHEM_SHAPE_SELFOVERLAP>
326.793

> <PUBCHEM_SHAPE_VOLUME>
95.4

> <PUBCHEM_COORDINATE_TYPE>
2
5
10

$$$$
