385987
  -OEChem-11012400363D

 16 16  0     0  0  0  0  0  0999 V2000
   -2.2654   -1.3019   -0.0002 O   0  0  0  0  0  0  0  0  0  0  0  0
    0.6492    1.6485   -0.0001 N   0  0  0  0  0  0  0  0  0  0  0  0
    1.7479    0.8746    0.0000 N   0  0  0  0  0  0  0  0  0  0  0  0
   -1.0361   -1.5285    0.0002 N   0  0  0  0  0  0  0  0  0  0  0  0
   -0.5199    0.9457   -0.0001 C   0  0  0  0  0  0  0  0  0  0  0  0
   -0.1609   -0.3801   -0.0003 C   0  0  0  0  0  0  0  0  0  0  0  0
    1.2468   -0.3636    0.0000 C   0  0  0  0  0  0  0  0  0  0  0  0
   -1.8302    1.6196    0.0003 C   0  0  0  0  0  0  0  0  0  0  0  0
    2.1686   -1.5143    0.0001 C   0  0  0  0  0  0  0  0  0  0  0  0
    0.7731    2.6534    0.0000 H   0  0  0  0  0  0  0  0  0  0  0  0
   -1.7254    2.7099    0.0004 H   0  0  0  0  0  0  0  0  0  0  0  0
   -2.4077    1.3436   -0.8879 H   0  0  0  0  0  0  0  0  0  0  0  0
   -2.4073    1.3434    0.8886 H   0  0  0  0  0  0  0  0  0  0  0  0
    3.2172   -1.1979    0.0002 H   0  0  0  0  0  0  0  0  0  0  0  0
    2.0080   -2.1352    0.8875 H   0  0  0  0  0  0  0  0  0  0  0  0
    2.0081   -2.1354   -0.8871 H   0  0  0  0  0  0  0  0  0  0  0  0
  1  4  2  0  0  0  0
  2  3  1  0  0  0  0
  2  5  1  0  0  0  0
  2 10  1  0  0  0  0
  3  7  2  0  0  0  0
  4  6  1  0  0  0  0
  5  6  2  0  0  0  0
  5  8  1  0  0  0  0
  6  7  1  0  0  0  0
  7  9  1  0  0  0  0
  8 11  1  0  0  0  0
  8 12  1  0  0  0  0
  8 13  1  0  0  0  0
  9 14  1  0  0  0  0
  9 15  1  0  0  0  0
  9 16  1  0  0  0  0
M  END
> <PUBCHEM_COMPOUND_CID>
385987

> <PUBCHEM_CONFORMER_RMSD>
0.4

> <PUBCHEM_CONFORMER_DIVERSEORDER>
1
2

> <PUBCHEM_MMFF94_PARTIAL_CHARGES>
10
1 -0.16
10 0.27
2 0.3
3 -0.71
4 -0.09
5 -0.33
6 0.25
7 0.11
8 0.18
9 0.18

> <PUBCHEM_EFFECTIVE_ROTOR_COUNT>
1

> <PUBCHEM_PHARMACOPHORE_FEATURES>
3
1 2 donor
1 3 acceptor
5 2 3 5 6 7 rings

> <PUBCHEM_HEAVY_ATOM_COUNT>
9

> <PUBCHEM_ATOM_DEF_STEREO_COUNT>
0

> <PUBCHEM_ATOM_UDEF_STEREO_COUNT>
0

> <PUBCHEM_BOND_DEF_STEREO_COUNT>
0

> <PUBCHEM_BOND_UDEF_STEREO_COUNT>
0

> <PUBCHEM_ISOTOPIC_ATOM_COUNT>
0

> <PUBCHEM_COMPONENT_COUNT>
1

> <PUBCHEM_CACTVS_TAUTO_COUNT>
1

> <PUBCHEM_CONFORMER_ID>
0005E3C300000001

> <PUBCHEM_MMFF94_ENERGY>
7.8972

> <PUBCHEM_FEATURE_SELFOVERLAP>
15.223

> <PUBCHEM_SHAPE_FINGERPRINT>
16714656 1 17905049157785689134
18185500 45 17909549802317570807
21040471 1 18194683665952074436
23552423 10 18260554415656137974
2748010 2 18410854334910027406
29004967 10 18047192135365272011
5084963 1 17770207259147131488

> <PUBCHEM_SHAPE_MULTIPOLES>
164.4
2.78
1.97
0.58
0.4
0.38
0
0.33
0
-0.63
0
0.01
-0.01
0

> <PUBCHEM_SHAPE_SELFOVERLAP>
335.768

> <PUBCHEM_SHAPE_VOLUME>
97

> <PUBCHEM_COORDINATE_TYPE>
2
5
10

$$$$
