137114
  -OEChem-11012401033D

 28 29  0     0  0  0  0  0  0999 V2000
    0.4056   -0.1155   -0.3766 N   0  0  0  0  0  0  0  0  0  0  0  0
    1.1635    1.0547   -0.8228 C   0  0  0  0  0  0  0  0  0  0  0  0
    1.1787   -1.3521   -0.2508 C   0  0  0  0  0  0  0  0  0  0  0  0
   -0.9448   -0.0784   -0.1837 C   0  0  0  0  0  0  0  0  0  0  0  0
    2.3352    1.3079    0.1238 C   0  0  0  0  0  0  0  0  0  0  0  0
    2.3501   -1.1383    0.7059 C   0  0  0  0  0  0  0  0  0  0  0  0
    3.2000    0.0589    0.2841 C   0  0  0  0  0  0  0  0  0  0  0  0
   -1.6147    1.2011    0.2178 C   0  0  0  0  0  0  0  0  0  0  0  0
   -3.0065    0.7392    0.6478 C   0  0  0  0  0  0  0  0  0  0  0  0
   -3.2291   -0.6111   -0.0285 C   0  0  0  0  0  0  0  0  0  0  0  0
   -1.8380   -1.0664   -0.3169 C   0  0  0  0  0  0  0  0  0  0  0  0
    0.5559    1.9630   -0.8856 H   0  0  0  0  0  0  0  0  0  0  0  0
    1.5397    0.8671   -1.8365 H   0  0  0  0  0  0  0  0  0  0  0  0
    1.5465   -1.6517   -1.2398 H   0  0  0  0  0  0  0  0  0  0  0  0
    0.5751   -2.1829    0.1317 H   0  0  0  0  0  0  0  0  0  0  0  0
    1.9519    1.6101    1.1065 H   0  0  0  0  0  0  0  0  0  0  0  0
    2.9459    2.1356   -0.2536 H   0  0  0  0  0  0  0  0  0  0  0  0
    2.9709   -2.0403    0.7415 H   0  0  0  0  0  0  0  0  0  0  0  0
    1.9674   -0.9684    1.7201 H   0  0  0  0  0  0  0  0  0  0  0  0
    3.7024   -0.1640   -0.6651 H   0  0  0  0  0  0  0  0  0  0  0  0
    3.9827    0.2409    1.0288 H   0  0  0  0  0  0  0  0  0  0  0  0
   -1.1036    1.7065    1.0434 H   0  0  0  0  0  0  0  0  0  0  0  0
   -1.6903    1.8864   -0.6337 H   0  0  0  0  0  0  0  0  0  0  0  0
   -3.7828    1.4654    0.3859 H   0  0  0  0  0  0  0  0  0  0  0  0
   -3.0340    0.6154    1.7384 H   0  0  0  0  0  0  0  0  0  0  0  0
   -3.7964   -0.5088   -0.9592 H   0  0  0  0  0  0  0  0  0  0  0  0
   -3.7557   -1.3028    0.6354 H   0  0  0  0  0  0  0  0  0  0  0  0
   -1.6112   -2.0759   -0.6292 H   0  0  0  0  0  0  0  0  0  0  0  0
  1  2  1  0  0  0  0
  1  3  1  0  0  0  0
  1  4  1  0  0  0  0
  2  5  1  0  0  0  0
  2 12  1  0  0  0  0
  2 13  1  0  0  0  0
  3  6  1  0  0  0  0
  3 14  1  0  0  0  0
  3 15  1  0  0  0  0
  4  8  1  0  0  0  0
  4 11  2  0  0  0  0
  5  7  1  0  0  0  0
  5 16  1  0  0  0  0
  5 17  1  0  0  0  0
  6  7  1  0  0  0  0
  6 18  1  0  0  0  0
  6 19  1  0  0  0  0
  7 20  1  0  0  0  0
  7 21  1  0  0  0  0
  8  9  1  0  0  0  0
  8 22  1  0  0  0  0
  8 23  1  0  0  0  0
  9 10  1  0  0  0  0
  9 24  1  0  0  0  0
  9 25  1  0  0  0  0
 10 11  1  0  0  0  0
 10 26  1  0  0  0  0
 10 27  1  0  0  0  0
 11 28  1  0  0  0  0
M  END
> <PUBCHEM_COMPOUND_CID>
137114

> <PUBCHEM_CONFORMER_RMSD>
0.6

> <PUBCHEM_CONFORMER_DIVERSEORDER>
1
2

> <PUBCHEM_MMFF94_PARTIAL_CHARGES>
8
1 -0.84
10 0.14
11 -0.29
2 0.37
28 0.15
3 0.37
4 -0.04
8 0.14

> <PUBCHEM_EFFECTIVE_ROTOR_COUNT>
2.8

> <PUBCHEM_PHARMACOPHORE_FEATURES>
3
1 1 cation
5 4 8 9 10 11 rings
6 1 2 3 5 6 7 rings

> <PUBCHEM_HEAVY_ATOM_COUNT>
11

> <PUBCHEM_ATOM_DEF_STEREO_COUNT>
0

> <PUBCHEM_ATOM_UDEF_STEREO_COUNT>
0

> <PUBCHEM_BOND_DEF_STEREO_COUNT>
0

> <PUBCHEM_BOND_UDEF_STEREO_COUNT>
0

> <PUBCHEM_ISOTOPIC_ATOM_COUNT>
0

> <PUBCHEM_COMPONENT_COUNT>
1

> <PUBCHEM_CACTVS_TAUTO_COUNT>
1

> <PUBCHEM_CONFORMER_ID>
0002179A00000001

> <PUBCHEM_MMFF94_ENERGY>
13.7336

> <PUBCHEM_FEATURE_SELFOVERLAP>
15.223

> <PUBCHEM_SHAPE_FINGERPRINT>
10219947 1 17895192229363710996
10857977 72 17346598612240803825
12251169 10 18410571773322473586
12696612 119 18335144189093754076
12932764 1 18187367597169167135
14144814 61 18410575071883698139
14325111 11 18412826910294177132
15775835 57 18271812353661998344
16945 1 18411134697458585878
19973954 147 18342179903785954385
20201158 50 18113616789579161731
20279233 1 16081083796681492475
20711985 344 15576101075613555556
20871998 184 17917433198021233079
20871998 22 18122342377004106082
22445834 79 18335980887256472779
23463225 33 18408603656140939036
23552423 10 18261678163668158407
2748010 2 17690561879531067431
3248919 1 17917428696662871711
369184 2 18335419067264253617
5084963 1 18114175371566524220
7364860 26 18130512924839498646

> <PUBCHEM_SHAPE_MULTIPOLES>
221.39
5.3
1.49
0.8
0.84
0.01
0
0.06
-0.97
-0.31
0
-0.07
0.03
-0.43

> <PUBCHEM_SHAPE_SELFOVERLAP>
449.468

> <PUBCHEM_SHAPE_VOLUME>
129.7

> <PUBCHEM_COORDINATE_TYPE>
2
5
10

$$$$
