79550
  -OEChem-11012401123D

 24 24  0     0  0  0  0  0  0999 V2000
    1.6300   -0.2867   -0.2742 O   0  0  0  0  0  0  0  0  0  0  0  0
    0.4150    1.4114    0.7142 O   0  0  0  0  0  0  0  0  0  0  0  0
   -0.6850   -0.2689   -0.6160 C   0  0  0  0  0  0  0  0  0  0  0  0
   -1.7865    0.7423   -0.9422 C   0  0  0  0  0  0  0  0  0  0  0  0
   -1.3177   -1.2980    0.3292 C   0  0  0  0  0  0  0  0  0  0  0  0
   -2.7975    0.5846    0.1838 C   0  0  0  0  0  0  0  0  0  0  0  0
   -2.7884   -0.9109    0.4427 C   0  0  0  0  0  0  0  0  0  0  0  0
    0.4923    0.4014    0.0279 C   0  0  0  0  0  0  0  0  0  0  0  0
    2.8369    0.2474    0.2792 C   0  0  0  0  0  0  0  0  0  0  0  0
    4.0010   -0.6226   -0.1445 C   0  0  0  0  0  0  0  0  0  0  0  0
   -0.3504   -0.7363   -1.5502 H   0  0  0  0  0  0  0  0  0  0  0  0
   -2.2613    0.4683   -1.8929 H   0  0  0  0  0  0  0  0  0  0  0  0
   -1.4378    1.7754   -1.0368 H   0  0  0  0  0  0  0  0  0  0  0  0
   -0.8470   -1.2799    1.3195 H   0  0  0  0  0  0  0  0  0  0  0  0
   -1.2134   -2.3165   -0.0600 H   0  0  0  0  0  0  0  0  0  0  0  0
   -3.7892    0.9520   -0.0948 H   0  0  0  0  0  0  0  0  0  0  0  0
   -2.4666    1.1290    1.0758 H   0  0  0  0  0  0  0  0  0  0  0  0
   -3.2110   -1.1690    1.4180 H   0  0  0  0  0  0  0  0  0  0  0  0
   -3.3716   -1.4300   -0.3274 H   0  0  0  0  0  0  0  0  0  0  0  0
    2.9858    1.2693   -0.0872 H   0  0  0  0  0  0  0  0  0  0  0  0
    2.7628    0.2602    1.3723 H   0  0  0  0  0  0  0  0  0  0  0  0
    4.9421   -0.2422    0.2623 H   0  0  0  0  0  0  0  0  0  0  0  0
    3.8576   -1.6524    0.1994 H   0  0  0  0  0  0  0  0  0  0  0  0
    4.0769   -0.6598   -1.2362 H   0  0  0  0  0  0  0  0  0  0  0  0
  1  8  1  0  0  0  0
  1  9  1  0  0  0  0
  2  8  2  0  0  0  0
  3  4  1  0  0  0  0
  3  5  1  0  0  0  0
  3  8  1  0  0  0  0
  3 11  1  0  0  0  0
  4  6  1  0  0  0  0
  4 12  1  0  0  0  0
  4 13  1  0  0  0  0
  5  7  1  0  0  0  0
  5 14  1  0  0  0  0
  5 15  1  0  0  0  0
  6  7  1  0  0  0  0
  6 16  1  0  0  0  0
  6 17  1  0  0  0  0
  7 18  1  0  0  0  0
  7 19  1  0  0  0  0
  9 10  1  0  0  0  0
  9 20  1  0  0  0  0
  9 21  1  0  0  0  0
 10 22  1  0  0  0  0
 10 23  1  0  0  0  0
 10 24  1  0  0  0  0
M  END
> <PUBCHEM_COMPOUND_CID>
79550

> <PUBCHEM_CONFORMER_RMSD>
0.6

> <PUBCHEM_CONFORMER_DIVERSEORDER>
1
10
9
16
14
7
5
17
4
2
3
6
18
8
13
15
11
12

> <PUBCHEM_MMFF94_PARTIAL_CHARGES>
5
1 -0.43
2 -0.57
3 0.06
8 0.66
9 0.28

> <PUBCHEM_EFFECTIVE_ROTOR_COUNT>
4

> <PUBCHEM_PHARMACOPHORE_FEATURES>
2
1 2 acceptor
5 3 4 5 6 7 rings

> <PUBCHEM_HEAVY_ATOM_COUNT>
10

> <PUBCHEM_ATOM_DEF_STEREO_COUNT>
0

> <PUBCHEM_ATOM_UDEF_STEREO_COUNT>
0

> <PUBCHEM_BOND_DEF_STEREO_COUNT>
0

> <PUBCHEM_BOND_UDEF_STEREO_COUNT>
0

> <PUBCHEM_ISOTOPIC_ATOM_COUNT>
0

> <PUBCHEM_COMPONENT_COUNT>
1

> <PUBCHEM_CACTVS_TAUTO_COUNT>
1

> <PUBCHEM_CONFORMER_ID>
000136BE00000001

> <PUBCHEM_MMFF94_ENERGY>
9.3106

> <PUBCHEM_FEATURE_SELFOVERLAP>
10.148

> <PUBCHEM_SHAPE_FINGERPRINT>
11062470 55 14261350245400319755
124424 183 18343015571288202372
12897270 3 7997697480126121011
12932764 1 17313093155742473452
13024252 1 14562530674263109709
14325111 11 18333449846154772350
15310529 11 16660917794829652018
20201158 50 18412826863239642430
20281407 28 18187083983298918474
20645464 45 18343588425536558655
21061003 4 18273219711402488792
23402539 116 17703787012471637613
23552423 10 17823135798961213855
29004967 10 18131356318787224434
369184 2 15410894076251686383
5084963 1 18261671571141317741

> <PUBCHEM_SHAPE_MULTIPOLES>
194.06
5.61
1.19
0.82
4.93
0.07
0.05
0.99
-0.15
-0.48
-0.13
-0.16
-0.11
0.34

> <PUBCHEM_SHAPE_SELFOVERLAP>
379.37

> <PUBCHEM_SHAPE_VOLUME>
118.7

> <PUBCHEM_COORDINATE_TYPE>
2
5
10

$$$$
