283893
  -OEChem-11012400513D

 28 29  0     0  0  0  0  0  0999 V2000
    0.8219   -2.5386    0.8846 O   0  0  0  0  0  0  0  0  0  0  0  0
    1.8078   -1.6260   -1.8085 O   0  0  0  0  0  0  0  0  0  0  0  0
   -4.6254    1.9271   -0.8617 O   0  5  0  0  0  0  0  0  0  0  0  0
   -5.4033    0.5206    0.6335 O   0  0  0  0  0  0  0  0  0  0  0  0
   -4.4710    0.9518   -0.0874 N   0  3  0  0  0  0  0  0  0  0  0  0
   -0.7344   -0.9204    0.0948 C   0  0  0  0  0  0  0  0  0  0  0  0
    2.6608   -0.0856   -0.2074 C   0  0  0  0  0  0  0  0  0  0  0  0
    0.5878   -1.5833    0.1587 C   0  0  0  0  0  0  0  0  0  0  0  0
   -0.9061    0.1537   -0.7574 C   0  0  0  0  0  0  0  0  0  0  0  0
   -1.7618   -1.3939    0.8886 C   0  0  0  0  0  0  0  0  0  0  0  0
    1.7314   -1.0918   -0.6955 C   0  0  0  0  0  0  0  0  0  0  0  0
   -3.2029    0.3163   -0.0254 C   0  0  0  0  0  0  0  0  0  0  0  0
   -2.1519    0.7780   -0.8180 C   0  0  0  0  0  0  0  0  0  0  0  0
   -3.0077   -0.7697    0.8280 C   0  0  0  0  0  0  0  0  0  0  0  0
    2.5050    0.4451    1.0731 C   0  0  0  0  0  0  0  0  0  0  0  0
    3.7086    0.3486   -1.0196 C   0  0  0  0  0  0  0  0  0  0  0  0
    3.3967    1.4101    1.5415 C   0  0  0  0  0  0  0  0  0  0  0  0
    4.6003    1.3136   -0.5511 C   0  0  0  0  0  0  0  0  0  0  0  0
    4.4442    1.8443    0.7294 C   0  0  0  0  0  0  0  0  0  0  0  0
   -0.1123    0.5374   -1.3896 H   0  0  0  0  0  0  0  0  0  0  0  0
   -1.6274   -2.2380    1.5586 H   0  0  0  0  0  0  0  0  0  0  0  0
   -2.2679    1.6210   -1.4946 H   0  0  0  0  0  0  0  0  0  0  0  0
   -3.8033   -1.1564    1.4598 H   0  0  0  0  0  0  0  0  0  0  0  0
    1.7034    0.1305    1.7347 H   0  0  0  0  0  0  0  0  0  0  0  0
    3.8481   -0.0513   -2.0205 H   0  0  0  0  0  0  0  0  0  0  0  0
    3.2759    1.8233    2.5386 H   0  0  0  0  0  0  0  0  0  0  0  0
    5.4161    1.6520   -1.1832 H   0  0  0  0  0  0  0  0  0  0  0  0
    5.1386    2.5956    1.0941 H   0  0  0  0  0  0  0  0  0  0  0  0
  1  8  2  0  0  0  0
  2 11  2  0  0  0  0
  3  5  1  0  0  0  0
  4  5  2  0  0  0  0
  5 12  1  0  0  0  0
  6  8  1  0  0  0  0
  6  9  2  0  0  0  0
  6 10  1  0  0  0  0
  7 11  1  0  0  0  0
  7 15  2  0  0  0  0
  7 16  1  0  0  0  0
  8 11  1  0  0  0  0
  9 13  1  0  0  0  0
  9 20  1  0  0  0  0
 10 14  2  0  0  0  0
 10 21  1  0  0  0  0
 12 13  2  0  0  0  0
 12 14  1  0  0  0  0
 13 22  1  0  0  0  0
 14 23  1  0  0  0  0
 15 17  1  0  0  0  0
 15 24  1  0  0  0  0
 16 18  2  0  0  0  0
 16 25  1  0  0  0  0
 17 19  2  0  0  0  0
 17 26  1  0  0  0  0
 18 19  1  0  0  0  0
 18 27  1  0  0  0  0
 19 28  1  0  0  0  0
M  CHG  2   3  -1   5   1
M  END
> <PUBCHEM_COMPOUND_CID>
283893

> <PUBCHEM_CONFORMER_RMSD>
0.6

> <PUBCHEM_CONFORMER_DIVERSEORDER>
1
22
12
24
21
14
6
13
18
15
19
5
17
20
4
11
3
16
8
10
7
9
2
23

> <PUBCHEM_MMFF94_PARTIAL_CHARGES>
28
1 -0.57
10 -0.15
11 0.48
12 0.13
13 -0.15
14 -0.15
15 -0.15
16 -0.15
17 -0.15
18 -0.15
19 -0.15
2 -0.57
20 0.15
21 0.15
22 0.15
23 0.15
24 0.15
25 0.15
26 0.15
27 0.15
28 0.15
3 -0.52
4 -0.52
5 0.91
6 0.09
7 0.09
8 0.48
9 -0.15

> <PUBCHEM_EFFECTIVE_ROTOR_COUNT>
4

> <PUBCHEM_PHARMACOPHORE_FEATURES>
7
1 1 acceptor
1 2 acceptor
1 3 acceptor
1 3 anion
1 4 acceptor
6 6 9 10 12 13 14 rings
6 7 15 16 17 18 19 rings

> <PUBCHEM_HEAVY_ATOM_COUNT>
19

> <PUBCHEM_ATOM_DEF_STEREO_COUNT>
0

> <PUBCHEM_ATOM_UDEF_STEREO_COUNT>
0

> <PUBCHEM_BOND_DEF_STEREO_COUNT>
0

> <PUBCHEM_BOND_UDEF_STEREO_COUNT>
0

> <PUBCHEM_ISOTOPIC_ATOM_COUNT>
0

> <PUBCHEM_COMPONENT_COUNT>
1

> <PUBCHEM_CACTVS_TAUTO_COUNT>
1

> <PUBCHEM_CONFORMER_ID>
000454F500000001

> <PUBCHEM_MMFF94_ENERGY>
56.2187

> <PUBCHEM_FEATURE_SELFOVERLAP>
35.605

> <PUBCHEM_SHAPE_FINGERPRINT>
10498660 4 18341893012839899808
11128504 68 15554445219173460249
11132069 177 17967254204289373359
11543360 7 17417802933969190895
122479 349 18339078327987471086
12403259 415 18199760296232345898
12596602 18 16081372989657002825
12633257 1 16660638600660202920
12730499 353 18202012035584601783
12788726 201 16375260482151563802
12892183 10 15574978573263382972
12969540 114 18201711852041216269
13544653 18 11674865711197339578
13955234 65 18266464192019581179
14178342 30 17749395892468009715
14252887 29 11458422453554955156
14341114 328 16588024649470111224
14848178 96 18266176141379205721
15210252 30 18273497888098414416
15375358 24 18335138691646423885
17834072 32 18265332983495951104
1798214 55 18408319995068183144
1813 80 9367351461246897202
18186145 218 17489314143684561682
193927 3 8214148490100137312
19784866 170 18113622282931802469
19862831 5 15267346240439023286
20374829 77 10519992551696798293
21452121 103 18262794073491847418
21618674 25 18334854996398390171
231179 274 18343584057792033008
23227448 37 18200028593959339677
23402655 69 17346884476732327624
23403322 49 9799429822747879656
23557571 272 18265067975186372639
23559900 14 18042413447314600918
23598291 2 15768114310247517798
25 1 17989495147234704226
2838139 119 18271795844034838432
3060560 45 17275388694644752102
341906 21 17967816050293976221
4028521 119 18131071562466224768
427121 178 18186804668917637146
465052 167 9583226284568701921
474 4 18341331170961627881
495365 180 18337945671907577035
5104073 3 17896606090201938761
633830 44 18411131459475413510
6442390 28 18337114556785962811
7364860 26 18192148196555281362
7808743 9 18116719710694146404
90316 7 16298379158803182437

> <PUBCHEM_SHAPE_MULTIPOLES>
362.55
9.96
2.01
1.3
4.47
0.45
-0.03
-7.3
0.42
-0.22
0.13
-0.73
0.05
1.32

> <PUBCHEM_SHAPE_SELFOVERLAP>
789.866

> <PUBCHEM_SHAPE_VOLUME>
197.5

> <PUBCHEM_COORDINATE_TYPE>
2
5
10

$$$$
