69324
  -OEChem-11012400473D

 55 55  0     0  0  0  0  0  0999 V2000
   -4.1616   -1.3104    0.0000 O   0  0  0  0  0  0  0  0  0  0  0  0
   -5.3188    0.7349   -0.0201 N   0  0  0  0  0  0  0  0  0  0  0  0
    4.7523    0.4614    0.0445 C   0  0  0  0  0  0  0  0  0  0  0  0
    3.4589   -0.3549   -0.0065 C   0  0  0  0  0  0  0  0  0  0  0  0
    6.0179   -0.3968   -0.0389 C   0  0  0  0  0  0  0  0  0  0  0  0
    2.2278    0.5525    0.0688 C   0  0  0  0  0  0  0  0  0  0  0  0
    7.3117    0.4214   -0.0124 C   0  0  0  0  0  0  0  0  0  0  0  0
    0.9346   -0.2610   -0.0143 C   0  0  0  0  0  0  0  0  0  0  0  0
    8.5410   -0.4906   -0.0253 C   0  0  0  0  0  0  0  0  0  0  0  0
   -0.3313    0.5998    0.0341 C   0  0  0  0  0  0  0  0  0  0  0  0
    9.8678    0.2734    0.0271 C   0  0  0  0  0  0  0  0  0  0  0  0
   -1.6611   -0.1615   -0.0239 C   0  0  0  0  0  0  0  0  0  0  0  0
   11.1332   -0.5870   -0.0060 C   0  0  0  0  0  0  0  0  0  0  0  0
   -2.9082    0.7217   -0.0311 C   0  0  0  0  0  0  0  0  0  0  0  0
   12.4200    0.2231   -0.0051 C   0  0  0  0  0  0  0  0  0  0  0  0
   -4.1964   -0.0832   -0.0131 C   0  0  0  0  0  0  0  0  0  0  0  0
   -6.6763    0.3359   -0.0078 C   0  0  0  0  0  0  0  0  0  0  0  0
   -7.6861    1.2983   -0.0173 C   0  0  0  0  0  0  0  0  0  0  0  0
   -7.0050   -1.0195    0.0132 C   0  0  0  0  0  0  0  0  0  0  0  0
   -9.0243    0.9052   -0.0057 C   0  0  0  0  0  0  0  0  0  0  0  0
   -8.3433   -1.4126    0.0246 C   0  0  0  0  0  0  0  0  0  0  0  0
   -9.3530   -0.4501    0.0153 C   0  0  0  0  0  0  0  0  0  0  0  0
    4.7760    1.0445    0.9734 H   0  0  0  0  0  0  0  0  0  0  0  0
    4.7566    1.1829   -0.7820 H   0  0  0  0  0  0  0  0  0  0  0  0
    3.4429   -1.0697    0.8249 H   0  0  0  0  0  0  0  0  0  0  0  0
    3.4320   -0.9374   -0.9354 H   0  0  0  0  0  0  0  0  0  0  0  0
    5.9881   -0.9936   -0.9590 H   0  0  0  0  0  0  0  0  0  0  0  0
    6.0198   -1.1062    0.7981 H   0  0  0  0  0  0  0  0  0  0  0  0
    2.2443    1.1215    1.0061 H   0  0  0  0  0  0  0  0  0  0  0  0
    2.2545    1.2791   -0.7521 H   0  0  0  0  0  0  0  0  0  0  0  0
    7.3402    1.0948   -0.8772 H   0  0  0  0  0  0  0  0  0  0  0  0
    7.3311    1.0478    0.8875 H   0  0  0  0  0  0  0  0  0  0  0  0
    0.9306   -0.8448   -0.9431 H   0  0  0  0  0  0  0  0  0  0  0  0
    0.9064   -0.9817    0.8123 H   0  0  0  0  0  0  0  0  0  0  0  0
    8.4950   -1.1771    0.8291 H   0  0  0  0  0  0  0  0  0  0  0  0
    8.5224   -1.1103   -0.9303 H   0  0  0  0  0  0  0  0  0  0  0  0
   -0.3146    1.2005    0.9522 H   0  0  0  0  0  0  0  0  0  0  0  0
   -0.3013    1.3116   -0.8007 H   0  0  0  0  0  0  0  0  0  0  0  0
    9.8846    0.8876    0.9364 H   0  0  0  0  0  0  0  0  0  0  0  0
    9.8993    0.9733   -0.8179 H   0  0  0  0  0  0  0  0  0  0  0  0
   -1.6661   -0.7945   -0.9206 H   0  0  0  0  0  0  0  0  0  0  0  0
   -1.7052   -0.8461    0.8330 H   0  0  0  0  0  0  0  0  0  0  0  0
   11.1343   -1.2603    0.8592 H   0  0  0  0  0  0  0  0  0  0  0  0
   11.1152   -1.2203   -0.9009 H   0  0  0  0  0  0  0  0  0  0  0  0
   -2.9081    1.3569   -0.9245 H   0  0  0  0  0  0  0  0  0  0  0  0
   -2.9027    1.3766    0.8483 H   0  0  0  0  0  0  0  0  0  0  0  0
   12.4692    0.8789   -0.8801 H   0  0  0  0  0  0  0  0  0  0  0  0
   13.2887   -0.4423   -0.0281 H   0  0  0  0  0  0  0  0  0  0  0  0
   12.4892    0.8440    0.8937 H   0  0  0  0  0  0  0  0  0  0  0  0
   -5.1639    1.7408   -0.0345 H   0  0  0  0  0  0  0  0  0  0  0  0
   -7.4439    2.3579   -0.0337 H   0  0  0  0  0  0  0  0  0  0  0  0
   -6.2807   -1.8218    0.0218 H   0  0  0  0  0  0  0  0  0  0  0  0
   -9.8106    1.6545   -0.0130 H   0  0  0  0  0  0  0  0  0  0  0  0
   -8.6007   -2.4677    0.0409 H   0  0  0  0  0  0  0  0  0  0  0  0
  -10.3950   -0.7561    0.0243 H   0  0  0  0  0  0  0  0  0  0  0  0
  1 16  2  0  0  0  0
  2 16  1  0  0  0  0
  2 17  1  0  0  0  0
  2 50  1  0  0  0  0
  3  4  1  0  0  0  0
  3  5  1  0  0  0  0
  3 23  1  0  0  0  0
  3 24  1  0  0  0  0
  4  6  1  0  0  0  0
  4 25  1  0  0  0  0
  4 26  1  0  0  0  0
  5  7  1  0  0  0  0
  5 27  1  0  0  0  0
  5 28  1  0  0  0  0
  6  8  1  0  0  0  0
  6 29  1  0  0  0  0
  6 30  1  0  0  0  0
  7  9  1  0  0  0  0
  7 31  1  0  0  0  0
  7 32  1  0  0  0  0
  8 10  1  0  0  0  0
  8 33  1  0  0  0  0
  8 34  1  0  0  0  0
  9 11  1  0  0  0  0
  9 35  1  0  0  0  0
  9 36  1  0  0  0  0
 10 12  1  0  0  0  0
 10 37  1  0  0  0  0
 10 38  1  0  0  0  0
 11 13  1  0  0  0  0
 11 39  1  0  0  0  0
 11 40  1  0  0  0  0
 12 14  1  0  0  0  0
 12 41  1  0  0  0  0
 12 42  1  0  0  0  0
 13 15  1  0  0  0  0
 13 43  1  0  0  0  0
 13 44  1  0  0  0  0
 14 16  1  0  0  0  0
 14 45  1  0  0  0  0
 14 46  1  0  0  0  0
 15 47  1  0  0  0  0
 15 48  1  0  0  0  0
 15 49  1  0  0  0  0
 17 18  2  0  0  0  0
 17 19  1  0  0  0  0
 18 20  1  0  0  0  0
 18 51  1  0  0  0  0
 19 21  2  0  0  0  0
 19 52  1  0  0  0  0
 20 22  2  0  0  0  0
 20 53  1  0  0  0  0
 21 22  1  0  0  0  0
 21 54  1  0  0  0  0
 22 55  1  0  0  0  0
M  END
> <PUBCHEM_COMPOUND_CID>
69324

> <PUBCHEM_CONFORMER_RMSD>
1.4

> <PUBCHEM_CONFORMER_DIVERSEORDER>
1
30
64
11
50
27
62
14
7
44
48
72
55
22
8
60
54
21
25
33
59
76
15
63
45
88
56
47
87
71
49
4
28
85
79
43
41
57
68
16
84
78
39
5
18
81
74
73
70
6
23
29
38
82
32
13
26
36
61
12
10
34
86
46
2
67
58
40
37
89
75
19
77
9
35
80
83
31
52
53
66
69
17
24
3
20
65
51
42

> <PUBCHEM_MMFF94_PARTIAL_CHARGES>
16
1 -0.57
14 0.06
16 0.57
17 0.12
18 -0.15
19 -0.15
2 -0.55
20 -0.15
21 -0.15
22 -0.15
50 0.37
51 0.15
52 0.15
53 0.15
54 0.15
55 0.15

> <PUBCHEM_EFFECTIVE_ROTOR_COUNT>
14

> <PUBCHEM_PHARMACOPHORE_FEATURES>
4
1 1 acceptor
1 15 hydrophobe
1 2 donor
6 17 18 19 20 21 22 rings

> <PUBCHEM_HEAVY_ATOM_COUNT>
22

> <PUBCHEM_ATOM_DEF_STEREO_COUNT>
0

> <PUBCHEM_ATOM_UDEF_STEREO_COUNT>
0

> <PUBCHEM_BOND_DEF_STEREO_COUNT>
0

> <PUBCHEM_BOND_UDEF_STEREO_COUNT>
0

> <PUBCHEM_ISOTOPIC_ATOM_COUNT>
0

> <PUBCHEM_COMPONENT_COUNT>
1

> <PUBCHEM_CACTVS_TAUTO_COUNT>
2

> <PUBCHEM_CONFORMER_ID>
00010ECC00000001

> <PUBCHEM_MMFF94_ENERGY>
25.7234

> <PUBCHEM_FEATURE_SELFOVERLAP>
20.297

> <PUBCHEM_SHAPE_FINGERPRINT>
10299344 5 18186237329818693595
11315181 36 18273498975731805377
12498461 61 17489020561570318367
13885169 127 18412826863840918617
14251764 18 18040712563514720507
14251764 46 18410292511008164300
14251920 1 18410855455833194499
14251920 17 18412263970492582176
14344974 52 18412261779457433056
15061470 23 18335419059007245700
15510794 2 18272092686736824446
21362267 2 17968366957924940108
21362267 20 18342454867561999350
21362267 313 18115863002421039032
232437 2 18407759231938748826
23521765 1 18341894091213937157
23528940 14 18130224974308367223
23581129 1 18409448085244621508
33684 2 18408041810537347240
57676310 188 17458620117171193675
59521270 166 18114177515382933199
67123 10 18410573989451693188
8209 1 18410575084668373152
9663363 56 16415479342396198417

> <PUBCHEM_SHAPE_MULTIPOLES>
441.9
48.68
1.08
0.61
83.68
0.09
0
2.67
0.04
-2.08
0
0.04
0
0.06

> <PUBCHEM_SHAPE_SELFOVERLAP>
852.114

> <PUBCHEM_SHAPE_VOLUME>
268.3

> <PUBCHEM_COORDINATE_TYPE>
2
5
10

$$$$
