9595
  -OEChem-11012401133D

 22 22  0     0  0  0  0  0  0999 V2000
   -2.9933    1.2871   -1.0909 F   0  0  0  0  0  0  0  0  0  0  0  0
   -3.8336   -0.3959    0.0000 F   0  0  0  0  0  0  0  0  0  0  0  0
   -3.0143    1.2948    1.0835 F   0  0  0  0  0  0  0  0  0  0  0  0
    3.8592   -0.7838   -0.0021 O   0  0  0  0  0  0  0  0  0  0  0  0
    2.1119    0.7989    0.0011 N   0  0  0  0  0  0  0  0  0  0  0  0
   -1.4531   -0.1583    0.0010 C   0  0  0  0  0  0  0  0  0  0  0  0
    0.9566    0.0166    0.0010 C   0  0  0  0  0  0  0  0  0  0  0  0
   -0.2988    0.6249    0.0011 C   0  0  0  0  0  0  0  0  0  0  0  0
   -1.3521   -1.5496    0.0009 C   0  0  0  0  0  0  0  0  0  0  0  0
    1.0574   -1.3747    0.0009 C   0  0  0  0  0  0  0  0  0  0  0  0
   -0.0969   -2.1578    0.0008 C   0  0  0  0  0  0  0  0  0  0  0  0
   -2.7955    0.4918    0.0006 C   0  0  0  0  0  0  0  0  0  0  0  0
    3.4463    0.3713    0.0011 C   0  0  0  0  0  0  0  0  0  0  0  0
    4.4061    1.5345    0.0011 C   0  0  0  0  0  0  0  0  0  0  0  0
   -0.3824    1.7094    0.0012 H   0  0  0  0  0  0  0  0  0  0  0  0
   -2.2395   -2.1764    0.0007 H   0  0  0  0  0  0  0  0  0  0  0  0
    1.9922   -1.9175    0.0011 H   0  0  0  0  0  0  0  0  0  0  0  0
   -0.0194   -3.2412    0.0007 H   0  0  0  0  0  0  0  0  0  0  0  0
    1.9552    1.8048    0.0013 H   0  0  0  0  0  0  0  0  0  0  0  0
    4.2658    2.1292   -0.9058 H   0  0  0  0  0  0  0  0  0  0  0  0
    5.4353    1.1659    0.0291 H   0  0  0  0  0  0  0  0  0  0  0  0
    4.2303    2.1609    0.8802 H   0  0  0  0  0  0  0  0  0  0  0  0
  1 12  1  0  0  0  0
  2 12  1  0  0  0  0
  3 12  1  0  0  0  0
  4 13  2  0  0  0  0
  5  7  1  0  0  0  0
  5 13  1  0  0  0  0
  5 19  1  0  0  0  0
  6  8  2  0  0  0  0
  6  9  1  0  0  0  0
  6 12  1  0  0  0  0
  7  8  1  0  0  0  0
  7 10  2  0  0  0  0
  8 15  1  0  0  0  0
  9 11  2  0  0  0  0
  9 16  1  0  0  0  0
 10 11  1  0  0  0  0
 10 17  1  0  0  0  0
 11 18  1  0  0  0  0
 13 14  1  0  0  0  0
 14 20  1  0  0  0  0
 14 21  1  0  0  0  0
 14 22  1  0  0  0  0
M  END
> <PUBCHEM_COMPOUND_CID>
9595

> <PUBCHEM_CONFORMER_RMSD>
0.6

> <PUBCHEM_CONFORMER_DIVERSEORDER>
2
3
1
4

> <PUBCHEM_MMFF94_PARTIAL_CHARGES>
19
1 -0.34
10 -0.15
11 -0.15
12 1.16
13 0.57
14 0.06
15 0.15
16 0.15
17 0.15
18 0.15
19 0.37
2 -0.34
3 -0.34
4 -0.57
5 -0.55
6 -0.14
7 0.12
8 -0.15
9 -0.15

> <PUBCHEM_EFFECTIVE_ROTOR_COUNT>
3

> <PUBCHEM_PHARMACOPHORE_FEATURES>
3
1 4 acceptor
1 5 donor
6 6 7 8 9 10 11 rings

> <PUBCHEM_HEAVY_ATOM_COUNT>
14

> <PUBCHEM_ATOM_DEF_STEREO_COUNT>
0

> <PUBCHEM_ATOM_UDEF_STEREO_COUNT>
0

> <PUBCHEM_BOND_DEF_STEREO_COUNT>
0

> <PUBCHEM_BOND_UDEF_STEREO_COUNT>
0

> <PUBCHEM_ISOTOPIC_ATOM_COUNT>
0

> <PUBCHEM_COMPONENT_COUNT>
1

> <PUBCHEM_CACTVS_TAUTO_COUNT>
2

> <PUBCHEM_CONFORMER_ID>
0000257B00000002

> <PUBCHEM_MMFF94_ENERGY>
30.269

> <PUBCHEM_FEATURE_SELFOVERLAP>
15.223

> <PUBCHEM_SHAPE_FINGERPRINT>
10219947 1 18186241714574146892
10608611 8 18268989963617615976
11543360 7 15841260545408946116
12346645 44 18413392012036698481
12500047 106 18341044237772080306
12932764 1 17385711513785204206
13380535 76 18411700984633783766
14144814 61 18408884036064487136
14325111 11 18410574002695304194
14897335 6 18411133654114076078
15775835 57 18335139817128055626
16945 1 17978228253810873895
18186145 218 18342182133227363516
20281407 28 7853854983829307548
20510252 161 18270405034613059130
20645477 56 18338236089164278184
20645477 70 17775577420762585222
21499 59 18411694370499737991
21524375 3 18410572898530370278
23402539 116 18201712985822820541
23402655 69 18269540668946240021
23463225 33 18334573517126770538
23559900 14 18201441407252684248
25 1 18343022159905119530
2748010 2 18338249196956384607
3071541 12 18125164822840780742
366044 4 18410574006668804019
6333449 129 18341048622279756646
633830 44 18130796607371227812
6430166 295 18335696131425628320
69090 78 18341609356088257518
7364860 26 18125724487207738630
81228 2 17833818744231712851

> <PUBCHEM_SHAPE_MULTIPOLES>
255.44
7.04
1.8
0.7
3.92
0.62
0
-3.29
0
-0.09
0
-0.34
-0.16
0

> <PUBCHEM_SHAPE_SELFOVERLAP>
533.414

> <PUBCHEM_SHAPE_VOLUME>
145.4

> <PUBCHEM_COORDINATE_TYPE>
2
5
10

$$$$
