24216
  -OEChem-11012401113D

 26 27  0     0  0  0  0  0  0999 V2000
    1.3079   -2.2302   -0.2824 O   0  0  0  0  0  0  0  0  0  0  0  0
   -0.0871   -0.0116   -1.4203 C   0  0  0  0  0  0  0  0  0  0  0  0
    1.1736    0.1425   -0.5937 C   0  0  0  0  0  0  0  0  0  0  0  0
   -1.3447    0.0324   -0.6196 C   0  0  0  0  0  0  0  0  0  0  0  0
    1.7986   -0.9766   -0.0723 C   0  0  0  0  0  0  0  0  0  0  0  0
    1.6711    1.4164   -0.3805 C   0  0  0  0  0  0  0  0  0  0  0  0
   -1.9836    1.2511   -0.3909 C   0  0  0  0  0  0  0  0  0  0  0  0
   -1.8824   -1.1452   -0.1001 C   0  0  0  0  0  0  0  0  0  0  0  0
    2.9581   -0.8170    0.6864 C   0  0  0  0  0  0  0  0  0  0  0  0
    2.8307    1.5758    0.3783 C   0  0  0  0  0  0  0  0  0  0  0  0
   -3.1600    1.2923    0.3577 C   0  0  0  0  0  0  0  0  0  0  0  0
   -3.0588   -1.1039    0.6485 C   0  0  0  0  0  0  0  0  0  0  0  0
    3.4741    0.4592    0.9117 C   0  0  0  0  0  0  0  0  0  0  0  0
   -3.6975    0.1149    0.8773 C   0  0  0  0  0  0  0  0  0  0  0  0
   -0.0443   -0.9407   -2.0050 H   0  0  0  0  0  0  0  0  0  0  0  0
   -0.1121    0.7720   -2.1912 H   0  0  0  0  0  0  0  0  0  0  0  0
    1.1789    2.2931   -0.7913 H   0  0  0  0  0  0  0  0  0  0  0  0
   -1.5768    2.1763   -0.7904 H   0  0  0  0  0  0  0  0  0  0  0  0
   -1.4032   -2.1041   -0.2753 H   0  0  0  0  0  0  0  0  0  0  0  0
    3.4698   -1.6779    1.1081 H   0  0  0  0  0  0  0  0  0  0  0  0
    3.2326    2.5695    0.5537 H   0  0  0  0  0  0  0  0  0  0  0  0
   -3.6575    2.2411    0.5356 H   0  0  0  0  0  0  0  0  0  0  0  0
   -3.4785   -2.0210    1.0516 H   0  0  0  0  0  0  0  0  0  0  0  0
    4.3769    0.5836    1.5025 H   0  0  0  0  0  0  0  0  0  0  0  0
   -4.6136    0.1469    1.4596 H   0  0  0  0  0  0  0  0  0  0  0  0
    1.8826   -2.8751    0.1643 H   0  0  0  0  0  0  0  0  0  0  0  0
  1  5  1  0  0  0  0
  1 26  1  0  0  0  0
  2  3  1  0  0  0  0
  2  4  1  0  0  0  0
  2 15  1  0  0  0  0
  2 16  1  0  0  0  0
  3  5  1  0  0  0  0
  3  6  2  0  0  0  0
  4  7  2  0  0  0  0
  4  8  1  0  0  0  0
  5  9  2  0  0  0  0
  6 10  1  0  0  0  0
  6 17  1  0  0  0  0
  7 11  1  0  0  0  0
  7 18  1  0  0  0  0
  8 12  2  0  0  0  0
  8 19  1  0  0  0  0
  9 13  1  0  0  0  0
  9 20  1  0  0  0  0
 10 13  2  0  0  0  0
 10 21  1  0  0  0  0
 11 14  2  0  0  0  0
 11 22  1  0  0  0  0
 12 14  1  0  0  0  0
 12 23  1  0  0  0  0
 13 24  1  0  0  0  0
 14 25  1  0  0  0  0
M  END
> <PUBCHEM_COMPOUND_CID>
24216

> <PUBCHEM_CONFORMER_RMSD>
0.6

> <PUBCHEM_CONFORMER_DIVERSEORDER>
1
7
4
6
3
2
5

> <PUBCHEM_MMFF94_PARTIAL_CHARGES>
24
1 -0.53
10 -0.15
11 -0.15
12 -0.15
13 -0.15
14 -0.15
17 0.15
18 0.15
19 0.15
2 0.29
20 0.15
21 0.15
22 0.15
23 0.15
24 0.15
25 0.15
26 0.45
3 -0.14
4 -0.14
5 0.08
6 -0.15
7 -0.15
8 -0.15
9 -0.15

> <PUBCHEM_EFFECTIVE_ROTOR_COUNT>
2

> <PUBCHEM_PHARMACOPHORE_FEATURES>
3
1 1 donor
6 3 5 6 9 10 13 rings
6 4 7 8 11 12 14 rings

> <PUBCHEM_HEAVY_ATOM_COUNT>
14

> <PUBCHEM_ATOM_DEF_STEREO_COUNT>
0

> <PUBCHEM_ATOM_UDEF_STEREO_COUNT>
0

> <PUBCHEM_BOND_DEF_STEREO_COUNT>
0

> <PUBCHEM_BOND_UDEF_STEREO_COUNT>
0

> <PUBCHEM_ISOTOPIC_ATOM_COUNT>
0

> <PUBCHEM_COMPONENT_COUNT>
1

> <PUBCHEM_CACTVS_TAUTO_COUNT>
3

> <PUBCHEM_CONFORMER_ID>
00005E9800000001

> <PUBCHEM_MMFF94_ENERGY>
36.9136

> <PUBCHEM_FEATURE_SELFOVERLAP>
15.223

> <PUBCHEM_SHAPE_FINGERPRINT>
10498660 4 13973691577146904771
10608611 8 18410572847207034101
10799339 124 18409449159123738737
11471102 22 18333730234531131032
12251169 10 18335137609087649485
12382932 28 18409446972964233937
12696612 119 18334577966396378308
13296908 3 15357970196281688277
13693222 15 18114460149457468473
13705890 14 10737286840229527640
13764800 53 15841558526039934007
14144814 61 18409730655617431665
15653759 3 18186519877946579377
15775835 57 17775282802420914280
16945 1 18410008797525356740
17804303 29 18190751829551133767
19049666 15 17974282119194428805
200 152 18271227422603922719
20361792 2 15285359530889238639
20528008 55 18409163320839933365
20559304 39 18334587857590191861
20871999 31 10087630482495689257
21501925 9 18040719207681362583
21730867 7 18409451388332954576
22445834 79 18259701177321297907
22802520 49 10015576225145872063
2748010 2 18120368748714263054
5374978 207 18409173229498368489
7364860 26 18201445714118659710
81228 2 15720214098962688605

> <PUBCHEM_SHAPE_MULTIPOLES>
282.24
6.43
1.75
1.04
1.22
0.22
-0.1
-0.77
2.63
-0.34
0.02
0.01
-0.02
0.14

> <PUBCHEM_SHAPE_SELFOVERLAP>
608.581

> <PUBCHEM_SHAPE_VOLUME>
154.9

> <PUBCHEM_COORDINATE_TYPE>
2
5
10

$$$$
