5324276
  -OEChem-11012401033D

 15 14  0     0  0  0  0  0  0999 V2000
   -1.3980    1.3433   -0.0273 O   0  0  0  0  0  0  0  0  0  0  0  0
   -1.3295   -0.0303    0.2082 N   0  0  0  0  0  0  0  0  0  0  0  0
    0.9914    0.3049   -0.6581 C   0  0  0  0  0  0  0  0  0  0  0  0
   -0.1660   -0.5100   -0.1099 C   0  0  0  0  0  0  0  0  0  0  0  0
    1.8275    0.8749    0.4729 C   0  0  0  0  0  0  0  0  0  0  0  0
    0.0747   -1.9828    0.1141 C   0  0  0  0  0  0  0  0  0  0  0  0
    1.6117   -0.3463   -1.2839 H   0  0  0  0  0  0  0  0  0  0  0  0
    0.6220    1.1070   -1.3042 H   0  0  0  0  0  0  0  0  0  0  0  0
    2.2297    0.0780    1.1071 H   0  0  0  0  0  0  0  0  0  0  0  0
    2.6681    1.4501    0.0730 H   0  0  0  0  0  0  0  0  0  0  0  0
    1.2319    1.5367    1.1101 H   0  0  0  0  0  0  0  0  0  0  0  0
   -0.8264   -2.4687    0.4983 H   0  0  0  0  0  0  0  0  0  0  0  0
    0.3559   -2.4518   -0.8326 H   0  0  0  0  0  0  0  0  0  0  0  0
    0.8856   -2.1135    0.8353 H   0  0  0  0  0  0  0  0  0  0  0  0
   -2.3061    1.5452    0.2550 H   0  0  0  0  0  0  0  0  0  0  0  0
  1  2  1  0  0  0  0
  1 15  1  0  0  0  0
  2  4  2  0  0  0  0
  3  4  1  0  0  0  0
  3  5  1  0  0  0  0
  3  7  1  0  0  0  0
  3  8  1  0  0  0  0
  4  6  1  0  0  0  0
  5  9  1  0  0  0  0
  5 10  1  0  0  0  0
  5 11  1  0  0  0  0
  6 12  1  0  0  0  0
  6 13  1  0  0  0  0
  6 14  1  0  0  0  0
M  END
> <PUBCHEM_COMPOUND_CID>
5324276

> <PUBCHEM_CONFORMER_RMSD>
0.4

> <PUBCHEM_CONFORMER_DIVERSEORDER>
1
4
3
2

> <PUBCHEM_MMFF94_PARTIAL_CHARGES>
6
1 -0.34
15 0.4
2 -0.51
3 0.06
4 0.33
6 0.06

> <PUBCHEM_EFFECTIVE_ROTOR_COUNT>
1

> <PUBCHEM_PHARMACOPHORE_FEATURES>
3
1 1 anion
1 2 acceptor
1 5 hydrophobe

> <PUBCHEM_HEAVY_ATOM_COUNT>
6

> <PUBCHEM_ATOM_DEF_STEREO_COUNT>
0

> <PUBCHEM_ATOM_UDEF_STEREO_COUNT>
0

> <PUBCHEM_BOND_DEF_STEREO_COUNT>
1

> <PUBCHEM_BOND_UDEF_STEREO_COUNT>
0

> <PUBCHEM_ISOTOPIC_ATOM_COUNT>
0

> <PUBCHEM_COMPONENT_COUNT>
1

> <PUBCHEM_CACTVS_TAUTO_COUNT>
2

> <PUBCHEM_CONFORMER_ID>
00513DF400000001

> <PUBCHEM_MMFF94_ENERGY>
7.942

> <PUBCHEM_FEATURE_SELFOVERLAP>
15.223

> <PUBCHEM_SHAPE_FINGERPRINT>
139733 1 9507026791262739838
16714656 1 18121237616414045932
20096714 4 18341898433046143245
21040471 1 18409737278398947444
23552449 1 17908980259641980664
5943 1 12318351704039201698

> <PUBCHEM_SHAPE_MULTIPOLES>
112.63
1.92
1.68
0.72
1.07
0.15
-0.04
-0.11
0.28
-0.88
0.07
0.17
-0.05
0.01

> <PUBCHEM_SHAPE_SELFOVERLAP>
197.4

> <PUBCHEM_SHAPE_VOLUME>
75.3

> <PUBCHEM_COORDINATE_TYPE>
2
5
10

$$$$
