420771
  -OEChem-11012400513D

 21 21  0     0  0  0  0  0  0999 V2000
    2.9036    0.4472    0.1835 O   0  0  0  0  0  0  0  0  0  0  0  0
   -2.2126    0.2924   -0.2554 N   0  0  0  0  0  0  0  0  0  0  0  0
    0.6240   -0.2637    0.2595 C   0  0  0  0  0  0  0  0  0  0  0  0
    0.1315    1.0995   -0.2426 C   0  0  0  0  0  0  0  0  0  0  0  0
   -0.3676   -1.3608   -0.1479 C   0  0  0  0  0  0  0  0  0  0  0  0
   -1.3118    1.3583    0.1887 C   0  0  0  0  0  0  0  0  0  0  0  0
   -1.7916   -1.0047    0.2788 C   0  0  0  0  0  0  0  0  0  0  0  0
    2.0246   -0.5681   -0.2646 C   0  0  0  0  0  0  0  0  0  0  0  0
    0.6680   -0.2157    1.3566 H   0  0  0  0  0  0  0  0  0  0  0  0
    0.1962    1.1410   -1.3379 H   0  0  0  0  0  0  0  0  0  0  0  0
    0.7669    1.9046    0.1446 H   0  0  0  0  0  0  0  0  0  0  0  0
   -0.0781   -2.3150    0.3079 H   0  0  0  0  0  0  0  0  0  0  0  0
   -0.3397   -1.5055   -1.2359 H   0  0  0  0  0  0  0  0  0  0  0  0
   -1.3675    1.4679    1.2787 H   0  0  0  0  0  0  0  0  0  0  0  0
   -1.6493    2.3063   -0.2445 H   0  0  0  0  0  0  0  0  0  0  0  0
   -2.4777   -1.7757   -0.0888 H   0  0  0  0  0  0  0  0  0  0  0  0
   -1.8696   -1.0037    1.3730 H   0  0  0  0  0  0  0  0  0  0  0  0
    2.0451   -0.5939   -1.3592 H   0  0  0  0  0  0  0  0  0  0  0  0
    2.3803   -1.5308    0.1168 H   0  0  0  0  0  0  0  0  0  0  0  0
   -3.1589    0.4967    0.0646 H   0  0  0  0  0  0  0  0  0  0  0  0
    3.7879    0.2325   -0.1588 H   0  0  0  0  0  0  0  0  0  0  0  0
  1  8  1  0  0  0  0
  1 21  1  0  0  0  0
  2  6  1  0  0  0  0
  2  7  1  0  0  0  0
  2 20  1  0  0  0  0
  3  4  1  0  0  0  0
  3  5  1  0  0  0  0
  3  8  1  0  0  0  0
  3  9  1  0  0  0  0
  4  6  1  0  0  0  0
  4 10  1  0  0  0  0
  4 11  1  0  0  0  0
  5  7  1  0  0  0  0
  5 12  1  0  0  0  0
  5 13  1  0  0  0  0
  6 14  1  0  0  0  0
  6 15  1  0  0  0  0
  7 16  1  0  0  0  0
  7 17  1  0  0  0  0
  8 18  1  0  0  0  0
  8 19  1  0  0  0  0
M  END
> <PUBCHEM_COMPOUND_CID>
420771

> <PUBCHEM_CONFORMER_RMSD>
0.4

> <PUBCHEM_CONFORMER_DIVERSEORDER>
1
8
3
2
9
5
10
6
4
7

> <PUBCHEM_MMFF94_PARTIAL_CHARGES>
7
1 -0.68
2 -0.9
20 0.36
21 0.4
6 0.27
7 0.27
8 0.28

> <PUBCHEM_EFFECTIVE_ROTOR_COUNT>
2.2

> <PUBCHEM_PHARMACOPHORE_FEATURES>
5
1 1 acceptor
1 1 donor
1 2 cation
1 2 donor
6 2 3 4 5 6 7 rings

> <PUBCHEM_HEAVY_ATOM_COUNT>
8

> <PUBCHEM_ATOM_DEF_STEREO_COUNT>
0

> <PUBCHEM_ATOM_UDEF_STEREO_COUNT>
0

> <PUBCHEM_BOND_DEF_STEREO_COUNT>
0

> <PUBCHEM_BOND_UDEF_STEREO_COUNT>
0

> <PUBCHEM_ISOTOPIC_ATOM_COUNT>
0

> <PUBCHEM_COMPONENT_COUNT>
1

> <PUBCHEM_CACTVS_TAUTO_COUNT>
1

> <PUBCHEM_CONFORMER_ID>
00066BA300000001

> <PUBCHEM_MMFF94_ENERGY>
1.6043

> <PUBCHEM_FEATURE_SELFOVERLAP>
25.371

> <PUBCHEM_SHAPE_FINGERPRINT>
10857977 72 18338227279806286376
14390081 3 18343298154577543520
16714656 1 18411139134149292015
18185500 45 18334013921089009799
21040471 1 18193279593813754909
23235685 24 18338513045687609389
23552423 10 18187933841631899966
29004967 10 18411989095403148858
369184 2 16732979829905974952

> <PUBCHEM_SHAPE_MULTIPOLES>
153.79
3.18
1.46
0.65
1.57
0.04
0
0.14
0.07
-0.48
0
-0.01
-0.01
0.08

> <PUBCHEM_SHAPE_SELFOVERLAP>
292.373

> <PUBCHEM_SHAPE_VOLUME>
94.3

> <PUBCHEM_COORDINATE_TYPE>
2
5
10

$$$$
