5323794
  -OEChem-11012401073D

 19 19  0     0  0  0  0  0  0999 V2000
    3.2867   -0.9888   -0.5600 S   0  0  0  0  0  0  0  0  0  0  0  0
   -2.4582    1.7640   -0.2442 F   0  0  0  0  0  0  0  0  0  0  0  0
   -3.7305    0.5022    0.9988 F   0  0  0  0  0  0  0  0  0  0  0  0
   -3.7054    0.2313   -1.1633 F   0  0  0  0  0  0  0  0  0  0  0  0
    0.6530   -2.0466    0.2987 O   0  0  0  0  0  0  0  0  0  0  0  0
   -2.0223   -1.6927    0.1978 O   0  0  0  0  0  0  0  0  0  0  0  0
    1.9853   -0.0777    0.0530 C   0  0  0  0  0  0  0  0  0  0  0  0
    0.6882   -0.6798    0.1104 C   0  0  0  0  0  0  0  0  0  0  0  0
    2.3434    1.1823    0.4384 C   0  0  0  0  0  0  0  0  0  0  0  0
   -0.4195    0.0704   -0.0044 C   0  0  0  0  0  0  0  0  0  0  0  0
   -1.8001   -0.4947    0.0502 C   0  0  0  0  0  0  0  0  0  0  0  0
    3.7328    1.4159    0.2261 C   0  0  0  0  0  0  0  0  0  0  0  0
    4.3658    0.3174   -0.3124 C   0  0  0  0  0  0  0  0  0  0  0  0
   -2.9192    0.4968   -0.0892 C   0  0  0  0  0  0  0  0  0  0  0  0
   -0.3453    1.1416   -0.1604 H   0  0  0  0  0  0  0  0  0  0  0  0
    1.6720    1.9189    0.8621 H   0  0  0  0  0  0  0  0  0  0  0  0
    4.2426    2.3418    0.4587 H   0  0  0  0  0  0  0  0  0  0  0  0
    5.4105    0.2192   -0.5717 H   0  0  0  0  0  0  0  0  0  0  0  0
    1.5666   -2.3711    0.3769 H   0  0  0  0  0  0  0  0  0  0  0  0
  1  7  1  0  0  0  0
  1 13  1  0  0  0  0
  2 14  1  0  0  0  0
  3 14  1  0  0  0  0
  4 14  1  0  0  0  0
  5  8  1  0  0  0  0
  5 19  1  0  0  0  0
  6 11  2  0  0  0  0
  7  8  1  0  0  0  0
  7  9  2  0  0  0  0
  8 10  2  0  0  0  0
  9 12  1  0  0  0  0
  9 16  1  0  0  0  0
 10 11  1  0  0  0  0
 10 15  1  0  0  0  0
 11 14  1  0  0  0  0
 12 13  2  0  0  0  0
 12 17  1  0  0  0  0
 13 18  1  0  0  0  0
M  END
> <PUBCHEM_COMPOUND_CID>
5323794

> <PUBCHEM_CONFORMER_RMSD>
0.6

> <PUBCHEM_CONFORMER_DIVERSEORDER>
1
12
9
8
13
4
10
6
5
2
11
3
7

> <PUBCHEM_MMFF94_PARTIAL_CHARGES>
19
1 -0.08
10 -0.14
11 0.49
12 -0.15
13 -0.11
14 1.08
15 0.15
16 0.15
17 0.15
18 0.15
19 0.45
2 -0.34
3 -0.34
4 -0.34
5 -0.53
6 -0.57
7 -0.01
8 0.12
9 -0.15

> <PUBCHEM_EFFECTIVE_ROTOR_COUNT>
3

> <PUBCHEM_PHARMACOPHORE_FEATURES>
3
1 5 donor
1 6 acceptor
5 1 7 9 12 13 rings

> <PUBCHEM_HEAVY_ATOM_COUNT>
14

> <PUBCHEM_ATOM_DEF_STEREO_COUNT>
0

> <PUBCHEM_ATOM_UDEF_STEREO_COUNT>
0

> <PUBCHEM_BOND_DEF_STEREO_COUNT>
1

> <PUBCHEM_BOND_UDEF_STEREO_COUNT>
0

> <PUBCHEM_ISOTOPIC_ATOM_COUNT>
0

> <PUBCHEM_COMPONENT_COUNT>
1

> <PUBCHEM_CACTVS_TAUTO_COUNT>
3

> <PUBCHEM_CONFORMER_ID>
00513C1200000001

> <PUBCHEM_MMFF94_ENERGY>
23.4856

> <PUBCHEM_FEATURE_SELFOVERLAP>
15.223

> <PUBCHEM_SHAPE_FINGERPRINT>
10608611 8 18340768264453511432
11132069 177 18187640340604218924
11471102 20 18342738512181346380
11543360 7 16415191329951670764
12346645 44 18335137583476159834
12932764 1 17822003207680083282
13081056 2 18411140242398781268
13380535 76 18409164406992353794
13922767 16 18341608209896063168
14144814 61 18408322159610205800
14252887 29 8142089792656625412
14325111 11 18411138073682747026
14415576 193 18411704318145259364
14897335 6 18408878533968976086
15219456 202 18341901813570631030
15442244 35 18125725578450542106
15775835 57 18410014342597180362
18186145 218 18342746212788708618
200 152 17131835369737393942
20279233 1 18413392051081852590
20645477 56 18408042930864538980
20645477 70 17988370286752503070
22485316 2 10159702378273331804
231179 274 17894903014824284460
23402539 116 15554453981355013648
23402655 69 18130786724535597372
23559900 14 18272092717291659886
25 1 18412548691229789490
276578 36 17240480308612068042
4028521 119 18334566928499297741
6333449 129 18410292553377854899
6430166 295 18408318874466626440
69090 78 18273212019031828078
7364860 26 18266737978936058426
83771 10 9007062370075697574
93112 12 18342458162122187374

> <PUBCHEM_SHAPE_MULTIPOLES>
258.4
7.84
1.61
0.77
0.51
0.23
-0.06
-2.26
-0.75
-0.21
0.11
0.26
-0.03
0.36

> <PUBCHEM_SHAPE_SELFOVERLAP>
530.794

> <PUBCHEM_SHAPE_VOLUME>
149.4

> <PUBCHEM_COORDINATE_TYPE>
2
5
10

$$$$
