139076
  -OEChem-11012401173D

 20 19  0     0  0  0  0  0  0999 V2000
   -1.7037    0.2201   -0.0283 O   0  0  0  0  0  0  0  0  0  0  0  0
    0.0080    0.9739    2.0092 O   0  5  0  0  0  0  0  0  0  0  0  0
    0.7817   -0.0269   -2.3472 O   0  5  0  0  0  0  0  0  0  0  0  0
    1.5738   -2.1966    0.7564 O   0  5  0  0  0  0  0  0  0  0  0  0
    2.0134    1.4372    1.2529 O   0  0  0  0  0  0  0  0  0  0  0  0
    1.0008    1.8673   -1.2618 O   0  0  0  0  0  0  0  0  0  0  0  0
    2.9150   -0.8978   -0.3955 O   0  0  0  0  0  0  0  0  0  0  0  0
   -3.3131   -1.4355    0.0441 O   0  0  0  0  0  0  0  0  0  0  0  0
    0.9330    0.8346    1.1948 N   0  3  0  0  0  0  0  0  0  0  0  0
    0.8669    0.6360   -1.3030 N   0  3  0  0  0  0  0  0  0  0  0  0
    1.8216   -1.1579    0.1289 N   0  3  0  0  0  0  0  0  0  0  0  0
    0.7119   -0.1129    0.0192 C   0  0  0  0  0  0  0  0  0  0  0  0
   -0.6751   -0.7644    0.0386 C   0  0  0  0  0  0  0  0  0  0  0  0
   -2.9828   -0.2590   -0.0171 C   0  0  0  0  0  0  0  0  0  0  0  0
   -3.9517    0.8820   -0.0913 C   0  0  0  0  0  0  0  0  0  0  0  0
   -0.8168   -1.3414    0.9626 H   0  0  0  0  0  0  0  0  0  0  0  0
   -0.7904   -1.4603   -0.8033 H   0  0  0  0  0  0  0  0  0  0  0  0
   -3.7997    1.4370   -1.0204 H   0  0  0  0  0  0  0  0  0  0  0  0
   -3.8203    1.5361    0.7743 H   0  0  0  0  0  0  0  0  0  0  0  0
   -4.9734    0.4917   -0.0814 H   0  0  0  0  0  0  0  0  0  0  0  0
  1 13  1  0  0  0  0
  1 14  1  0  0  0  0
  2  9  1  0  0  0  0
  3 10  1  0  0  0  0
  4 11  1  0  0  0  0
  5  9  2  0  0  0  0
  6 10  2  0  0  0  0
  7 11  2  0  0  0  0
  8 14  2  0  0  0  0
  9 12  1  0  0  0  0
 10 12  1  0  0  0  0
 11 12  1  0  0  0  0
 12 13  1  0  0  0  0
 13 16  1  0  0  0  0
 13 17  1  0  0  0  0
 14 15  1  0  0  0  0
 15 18  1  0  0  0  0
 15 19  1  0  0  0  0
 15 20  1  0  0  0  0
M  CHG  6   2  -1   3  -1   4  -1   9   1  10   1  11   1
M  END
> <PUBCHEM_COMPOUND_CID>
139076

> <PUBCHEM_CONFORMER_RMSD>
0.8

> <PUBCHEM_CONFORMER_DIVERSEORDER>
1
2
5
6
7
8
4
3

> <PUBCHEM_MMFF94_PARTIAL_CHARGES>
15
1 -0.43
10 0.8
11 0.8
12 0.72
13 0.28
14 0.66
15 0.06
2 -0.52
3 -0.52
4 -0.52
5 -0.52
6 -0.52
7 -0.52
8 -0.57
9 0.8

> <PUBCHEM_EFFECTIVE_ROTOR_COUNT>
6

> <PUBCHEM_PHARMACOPHORE_FEATURES>
10
1 2 acceptor
1 2 anion
1 3 acceptor
1 3 anion
1 4 acceptor
1 4 anion
1 5 acceptor
1 6 acceptor
1 7 acceptor
1 8 acceptor

> <PUBCHEM_HEAVY_ATOM_COUNT>
15

> <PUBCHEM_ATOM_DEF_STEREO_COUNT>
0

> <PUBCHEM_ATOM_UDEF_STEREO_COUNT>
0

> <PUBCHEM_BOND_DEF_STEREO_COUNT>
0

> <PUBCHEM_BOND_UDEF_STEREO_COUNT>
0

> <PUBCHEM_ISOTOPIC_ATOM_COUNT>
0

> <PUBCHEM_COMPONENT_COUNT>
1

> <PUBCHEM_CACTVS_TAUTO_COUNT>
1

> <PUBCHEM_CONFORMER_ID>
00021F4400000001

> <PUBCHEM_MMFF94_ENERGY>
35.6511

> <PUBCHEM_FEATURE_SELFOVERLAP>
51.006

> <PUBCHEM_SHAPE_FINGERPRINT>
12326174 3 17417819486171821195
12423570 1 13673888523184874172
12725867 57 18261669285791624076
12932764 1 18129951186504535535
14128692 85 18336555936148636519
14344429 50 18131634465311960761
14648413 74 17749685072462496495
14817 1 10442366919291233844
16945 1 18200296737257356074
20233049 118 18200033915619095593
20711985 344 16985214261317449065
21524375 3 16553101037656907865
23419403 2 17830133997678501850
3248919 1 17894907486307375579
5084963 1 18334296470250734067
528886 8 17822017505652695846

> <PUBCHEM_SHAPE_MULTIPOLES>
246.8
4.77
1.66
1.54
5.29
0.22
-0.27
0.59
0
-0.64
0.21
-0.88
-0.63
0.02

> <PUBCHEM_SHAPE_SELFOVERLAP>
486.435

> <PUBCHEM_SHAPE_VOLUME>
143.9

> <PUBCHEM_COORDINATE_TYPE>
2
5
10

$$$$
