15712
  -OEChem-11012400353D

 42 42  0     0  0  0  0  0  0999 V2000
    2.6721   -0.3323   -0.2755 C   0  0  0  0  0  0  0  0  0  0  0  0
    2.8828    1.0569    0.3417 C   0  0  0  0  0  0  0  0  0  0  0  0
    3.8442   -1.2636    0.0618 C   0  0  0  0  0  0  0  0  0  0  0  0
    1.3503   -0.9367    0.1949 C   0  0  0  0  0  0  0  0  0  0  0  0
    4.2234    1.6599   -0.0716 C   0  0  0  0  0  0  0  0  0  0  0  0
    5.1833   -0.6567   -0.3510 C   0  0  0  0  0  0  0  0  0  0  0  0
    5.3853    0.7277    0.2572 C   0  0  0  0  0  0  0  0  0  0  0  0
    0.1585   -0.0823   -0.2363 C   0  0  0  0  0  0  0  0  0  0  0  0
   -1.1642   -0.7090    0.2075 C   0  0  0  0  0  0  0  0  0  0  0  0
   -2.3590    0.1279   -0.2528 C   0  0  0  0  0  0  0  0  0  0  0  0
   -3.6807   -0.4817    0.2202 C   0  0  0  0  0  0  0  0  0  0  0  0
   -4.8724    0.3751   -0.2134 C   0  0  0  0  0  0  0  0  0  0  0  0
   -6.2194   -0.1740    0.2615 C   0  0  0  0  0  0  0  0  0  0  0  0
   -7.4042    0.6888   -0.1442 C   0  0  0  0  0  0  0  0  0  0  0  0
    2.6346   -0.2213   -1.3682 H   0  0  0  0  0  0  0  0  0  0  0  0
    2.8345    0.9946    1.4363 H   0  0  0  0  0  0  0  0  0  0  0  0
    2.1048    1.7572    0.0231 H   0  0  0  0  0  0  0  0  0  0  0  0
    3.7143   -2.2278   -0.4441 H   0  0  0  0  0  0  0  0  0  0  0  0
    3.8592   -1.4697    1.1397 H   0  0  0  0  0  0  0  0  0  0  0  0
    1.3507   -1.0470    1.2866 H   0  0  0  0  0  0  0  0  0  0  0  0
    1.2407   -1.9444   -0.2254 H   0  0  0  0  0  0  0  0  0  0  0  0
    4.3677    2.6206    0.4355 H   0  0  0  0  0  0  0  0  0  0  0  0
    4.2146    1.8657   -1.1492 H   0  0  0  0  0  0  0  0  0  0  0  0
    5.2297   -0.5854   -1.4447 H   0  0  0  0  0  0  0  0  0  0  0  0
    5.9992   -1.3186   -0.0395 H   0  0  0  0  0  0  0  0  0  0  0  0
    6.3217    1.1603   -0.1128 H   0  0  0  0  0  0  0  0  0  0  0  0
    5.4831    0.6369    1.3461 H   0  0  0  0  0  0  0  0  0  0  0  0
    0.2121    0.9178    0.2044 H   0  0  0  0  0  0  0  0  0  0  0  0
    0.1630    0.0372   -1.3264 H   0  0  0  0  0  0  0  0  0  0  0  0
   -1.1774   -0.8013    1.3005 H   0  0  0  0  0  0  0  0  0  0  0  0
   -1.2486   -1.7224   -0.2035 H   0  0  0  0  0  0  0  0  0  0  0  0
   -2.3581    0.2015   -1.3471 H   0  0  0  0  0  0  0  0  0  0  0  0
   -2.2649    1.1476    0.1401 H   0  0  0  0  0  0  0  0  0  0  0  0
   -3.7887   -1.4941   -0.1872 H   0  0  0  0  0  0  0  0  0  0  0  0
   -3.6748   -0.5712    1.3133 H   0  0  0  0  0  0  0  0  0  0  0  0
   -4.8829    0.4544   -1.3076 H   0  0  0  0  0  0  0  0  0  0  0  0
   -4.7459    1.3930    0.1762 H   0  0  0  0  0  0  0  0  0  0  0  0
   -6.2086   -0.2665    1.3541 H   0  0  0  0  0  0  0  0  0  0  0  0
   -6.3616   -1.1839   -0.1412 H   0  0  0  0  0  0  0  0  0  0  0  0
   -7.4694    0.7742   -1.2335 H   0  0  0  0  0  0  0  0  0  0  0  0
   -8.3377    0.2490    0.2203 H   0  0  0  0  0  0  0  0  0  0  0  0
   -7.3150    1.6961    0.2747 H   0  0  0  0  0  0  0  0  0  0  0  0
  1  2  1  0  0  0  0
  1  3  1  0  0  0  0
  1  4  1  0  0  0  0
  1 15  1  0  0  0  0
  2  5  1  0  0  0  0
  2 16  1  0  0  0  0
  2 17  1  0  0  0  0
  3  6  1  0  0  0  0
  3 18  1  0  0  0  0
  3 19  1  0  0  0  0
  4  8  1  0  0  0  0
  4 20  1  0  0  0  0
  4 21  1  0  0  0  0
  5  7  1  0  0  0  0
  5 22  1  0  0  0  0
  5 23  1  0  0  0  0
  6  7  1  0  0  0  0
  6 24  1  0  0  0  0
  6 25  1  0  0  0  0
  7 26  1  0  0  0  0
  7 27  1  0  0  0  0
  8  9  1  0  0  0  0
  8 28  1  0  0  0  0
  8 29  1  0  0  0  0
  9 10  1  0  0  0  0
  9 30  1  0  0  0  0
  9 31  1  0  0  0  0
 10 11  1  0  0  0  0
 10 32  1  0  0  0  0
 10 33  1  0  0  0  0
 11 12  1  0  0  0  0
 11 34  1  0  0  0  0
 11 35  1  0  0  0  0
 12 13  1  0  0  0  0
 12 36  1  0  0  0  0
 12 37  1  0  0  0  0
 13 14  1  0  0  0  0
 13 38  1  0  0  0  0
 13 39  1  0  0  0  0
 14 40  1  0  0  0  0
 14 41  1  0  0  0  0
 14 42  1  0  0  0  0
M  END
> <PUBCHEM_COMPOUND_CID>
15712

> <PUBCHEM_CONFORMER_RMSD>
0.8

> <PUBCHEM_CONFORMER_DIVERSEORDER>
1
42
78
25
91
109
9
110
84
122
15
2
107
12
58
114
101
16
21
50
57
120
36
93
39
6
81
127
5
14
108
113
123
124
136
3
111
48
18
23
73
133
126
132
98
59
71
11
138
112
63
142
33
28
143
95
117
92
65
27
82
49
7
96
128
40
68
8
44
88
4
86
118
55
66
87
45
46
51
37
17
104
20
34
102
79
54
60
22
80
13
140
70
62
31
105
10
99
24
76
64
19
47
53
89
69
125
115
130
26
129
119
41
103
74
85
30
35
67
90
75
100
121
141
97
137
61
38
29
134
72
56
77
32
106
94
43
116
83
139
135
131
52

> <PUBCHEM_MMFF94_PARTIAL_CHARGES>
0

> <PUBCHEM_EFFECTIVE_ROTOR_COUNT>
8.2

> <PUBCHEM_PHARMACOPHORE_FEATURES>
2
1 14 hydrophobe
6 1 2 3 5 6 7 rings

> <PUBCHEM_HEAVY_ATOM_COUNT>
14

> <PUBCHEM_ATOM_DEF_STEREO_COUNT>
0

> <PUBCHEM_ATOM_UDEF_STEREO_COUNT>
0

> <PUBCHEM_BOND_DEF_STEREO_COUNT>
0

> <PUBCHEM_BOND_UDEF_STEREO_COUNT>
0

> <PUBCHEM_ISOTOPIC_ATOM_COUNT>
0

> <PUBCHEM_COMPONENT_COUNT>
1

> <PUBCHEM_CACTVS_TAUTO_COUNT>
1

> <PUBCHEM_CONFORMER_ID>
00003D6000000001

> <PUBCHEM_MMFF94_ENERGY>
1.2553

> <PUBCHEM_FEATURE_SELFOVERLAP>
10.148

> <PUBCHEM_SHAPE_FINGERPRINT>
10354089 29 18408603669273721736
11287383 113 18409168835388238827
12714333 28 17775003500971851473
13081056 2 18334856112652115196
13167372 99 18272374118478934625
13533116 47 17313375678395910090
1420 363 17967536770419898699
14251732 16 18337111267589613051
14251764 46 18410573980861784587
14933364 13 18409450280679914933
15048467 5 18413670219049776857
17834072 33 18202561808757395311
17834076 25 18333169466589907439
20281389 69 18261109652233592861
20645477 70 18343022147411147214
20767249 213 18413671314466741455
21130983 4 18410015438167444113
212847 35 18201999945414823760
221357 26 18343302544050308032
23402539 116 18202559597033763463
23402655 69 18272650190666017278
23536379 177 18343302552919421291
23557571 272 17168144477623112143
29717793 49 17418381276837474700
300161 21 17988920097788788831
3545911 37 18334576845256835583
42788 4 18411419505751956727
4463277 17 18410573977268560701
522135 26 18413671305861125526
54446538 1 18272934903737151161
8209 1 18412262827107582775

> <PUBCHEM_SHAPE_MULTIPOLES>
288.11
18.01
1.25
0.67
25.26
0.21
0
3.73
0.15
-1.55
-0.03
-0.03
0
0.32

> <PUBCHEM_SHAPE_SELFOVERLAP>
537.432

> <PUBCHEM_SHAPE_VOLUME>
179.3

> <PUBCHEM_COORDINATE_TYPE>
2
5
10

$$$$
