73895
  -OEChem-11012401183D

 14 14  0     0  0  0  0  0  0999 V2000
    0.3450   -2.1272   -0.0011 F   0  0  0  0  0  0  0  0  0  0  0  0
    2.2594    1.4366    0.0004 O   0  5  0  0  0  0  0  0  0  0  0  0
    2.3583   -0.7564    0.0006 O   0  0  0  0  0  0  0  0  0  0  0  0
    1.7014    0.3127    0.0000 N   0  3  0  0  0  0  0  0  0  0  0  0
    0.2829    0.2487   -0.0005 C   0  0  0  0  0  0  0  0  0  0  0  0
   -0.3622   -0.9880    0.0003 C   0  0  0  0  0  0  0  0  0  0  0  0
   -0.4656    1.4258   -0.0007 C   0  0  0  0  0  0  0  0  0  0  0  0
   -1.7557   -1.0476    0.0008 C   0  0  0  0  0  0  0  0  0  0  0  0
   -1.8592    1.3661   -0.0002 C   0  0  0  0  0  0  0  0  0  0  0  0
   -2.5043    0.1294    0.0004 C   0  0  0  0  0  0  0  0  0  0  0  0
    0.0022    2.4070   -0.0011 H   0  0  0  0  0  0  0  0  0  0  0  0
   -2.2578   -2.0107    0.0010 H   0  0  0  0  0  0  0  0  0  0  0  0
   -2.4425    2.2822   -0.0004 H   0  0  0  0  0  0  0  0  0  0  0  0
   -3.5894    0.0829    0.0006 H   0  0  0  0  0  0  0  0  0  0  0  0
  1  6  1  0  0  0  0
  2  4  1  0  0  0  0
  3  4  2  0  0  0  0
  4  5  1  0  0  0  0
  5  6  1  0  0  0  0
  5  7  2  0  0  0  0
  6  8  2  0  0  0  0
  7  9  1  0  0  0  0
  7 11  1  0  0  0  0
  8 10  1  0  0  0  0
  8 12  1  0  0  0  0
  9 10  2  0  0  0  0
  9 13  1  0  0  0  0
 10 14  1  0  0  0  0
M  CHG  2   2  -1   4   1
M  END
> <PUBCHEM_COMPOUND_CID>
73895

> <PUBCHEM_CONFORMER_RMSD>
0.4

> <PUBCHEM_CONFORMER_DIVERSEORDER>
1

> <PUBCHEM_MMFF94_PARTIAL_CHARGES>
14
1 -0.19
10 -0.15
11 0.15
12 0.15
13 0.15
14 0.15
2 -0.52
3 -0.52
4 0.91
5 0.13
6 0.19
7 -0.15
8 -0.15
9 -0.15

> <PUBCHEM_EFFECTIVE_ROTOR_COUNT>
1

> <PUBCHEM_PHARMACOPHORE_FEATURES>
4
1 2 acceptor
1 2 anion
1 3 acceptor
6 5 6 7 8 9 10 rings

> <PUBCHEM_HEAVY_ATOM_COUNT>
10

> <PUBCHEM_ATOM_DEF_STEREO_COUNT>
0

> <PUBCHEM_ATOM_UDEF_STEREO_COUNT>
0

> <PUBCHEM_BOND_DEF_STEREO_COUNT>
0

> <PUBCHEM_BOND_UDEF_STEREO_COUNT>
0

> <PUBCHEM_ISOTOPIC_ATOM_COUNT>
0

> <PUBCHEM_COMPONENT_COUNT>
1

> <PUBCHEM_CACTVS_TAUTO_COUNT>
1

> <PUBCHEM_CONFORMER_ID>
000120A700000001

> <PUBCHEM_MMFF94_ENERGY>
26.405

> <PUBCHEM_FEATURE_SELFOVERLAP>
20.379

> <PUBCHEM_SHAPE_FINGERPRINT>
12897270 3 18410009910138287429
14325111 11 18410856559703365925
16945 1 18266740186353407079
18185500 45 17833270100718921590
21040471 1 18410575127660322080
23552423 10 18333733519943852414
241688 4 17042323835709011091
2748010 2 18410294743626338821
29004967 10 18189058762048549625
369184 2 18341893017224251833
5084963 1 18201999906433005409

> <PUBCHEM_SHAPE_MULTIPOLES>
181.8
3.15
1.81
0.58
0.67
0.27
0
-0.47
0
0.06
0
-0.07
-0.02
0

> <PUBCHEM_SHAPE_SELFOVERLAP>
383.897

> <PUBCHEM_SHAPE_VOLUME>
102.4

> <PUBCHEM_COORDINATE_TYPE>
2
5
10

$$$$
