13417699
  -OEChem-11012401153D

 40 42  0     0  0  0  0  0  0999 V2000
   -1.5253   -0.6570    0.0459 Si  0  0  0  0  0  0  0  0  0  0  0  0
   -2.8001   -1.7423    0.1718 O   0  0  0  0  0  0  0  0  0  0  0  0
   -1.6579    0.4591    1.2932 O   0  0  0  0  0  0  0  0  0  0  0  0
   -1.6722    0.1620   -1.4123 O   0  0  0  0  0  0  0  0  0  0  0  0
    1.2622   -0.6861    0.0601 O   0  0  0  0  0  0  0  0  0  0  0  0
    2.6786   -2.4863    0.2879 O   0  0  0  0  0  0  0  0  0  0  0  0
   -4.4162    0.9237   -0.1124 N   0  0  0  0  0  0  0  0  0  0  0  0
   -4.9071   -0.4264    0.1477 C   0  0  0  0  0  0  0  0  0  0  0  0
   -3.8175    1.6519    1.0024 C   0  0  0  0  0  0  0  0  0  0  0  0
   -3.9213    1.2161   -1.4545 C   0  0  0  0  0  0  0  0  0  0  0  0
   -3.9710   -1.3852    0.9017 C   0  0  0  0  0  0  0  0  0  0  0  0
   -2.2824    1.7188    1.0589 C   0  0  0  0  0  0  0  0  0  0  0  0
   -2.9324    0.2159   -2.0759 C   0  0  0  0  0  0  0  0  0  0  0  0
    0.1110   -1.5516    0.1355 C   0  0  0  0  0  0  0  0  0  0  0  0
    2.4743   -1.2903    0.1503 C   0  0  0  0  0  0  0  0  0  0  0  0
    3.5606   -0.2830    0.0550 C   0  0  0  0  0  0  0  0  0  0  0  0
    4.7714   -0.6574   -0.4910 C   0  0  0  0  0  0  0  0  0  0  0  0
    3.3261    0.9968    0.5148 C   0  0  0  0  0  0  0  0  0  0  0  0
    5.7922    0.2889   -0.5809 C   0  0  0  0  0  0  0  0  0  0  0  0
    4.3469    1.9431    0.4248 C   0  0  0  0  0  0  0  0  0  0  0  0
    5.5799    1.5892   -0.1230 C   0  0  0  0  0  0  0  0  0  0  0  0
   -5.2285   -0.8965   -0.7901 H   0  0  0  0  0  0  0  0  0  0  0  0
   -5.8217   -0.3280    0.7464 H   0  0  0  0  0  0  0  0  0  0  0  0
   -4.1985    1.2613    1.9542 H   0  0  0  0  0  0  0  0  0  0  0  0
   -4.1857    2.6845    0.9490 H   0  0  0  0  0  0  0  0  0  0  0  0
   -3.4851    2.2223   -1.4831 H   0  0  0  0  0  0  0  0  0  0  0  0
   -4.7945    1.2638   -2.1178 H   0  0  0  0  0  0  0  0  0  0  0  0
   -3.7194   -1.0213    1.9059 H   0  0  0  0  0  0  0  0  0  0  0  0
   -4.5205   -2.3205    1.0652 H   0  0  0  0  0  0  0  0  0  0  0  0
   -1.8522    2.2203    0.1828 H   0  0  0  0  0  0  0  0  0  0  0  0
   -2.0118    2.3521    1.9129 H   0  0  0  0  0  0  0  0  0  0  0  0
   -3.3659   -0.7856   -2.1905 H   0  0  0  0  0  0  0  0  0  0  0  0
   -2.7201    0.5548   -3.0976 H   0  0  0  0  0  0  0  0  0  0  0  0
    0.1666   -2.2710   -0.6896 H   0  0  0  0  0  0  0  0  0  0  0  0
    0.1566   -2.1059    1.0801 H   0  0  0  0  0  0  0  0  0  0  0  0
    4.9476   -1.6656   -0.8540 H   0  0  0  0  0  0  0  0  0  0  0  0
    2.3806    1.2948    0.9581 H   0  0  0  0  0  0  0  0  0  0  0  0
    6.7521    0.0136   -1.0081 H   0  0  0  0  0  0  0  0  0  0  0  0
    4.1832    2.9550    0.7842 H   0  0  0  0  0  0  0  0  0  0  0  0
    6.3749    2.3259   -0.1924 H   0  0  0  0  0  0  0  0  0  0  0  0
  1  2  1  0  0  0  0
  1  3  1  0  0  0  0
  1  4  1  0  0  0  0
  1 14  1  0  0  0  0
  2 11  1  0  0  0  0
  3 12  1  0  0  0  0
  4 13  1  0  0  0  0
  5 14  1  0  0  0  0
  5 15  1  0  0  0  0
  6 15  2  0  0  0  0
  7  8  1  0  0  0  0
  7  9  1  0  0  0  0
  7 10  1  0  0  0  0
  8 11  1  0  0  0  0
  8 22  1  0  0  0  0
  8 23  1  0  0  0  0
  9 12  1  0  0  0  0
  9 24  1  0  0  0  0
  9 25  1  0  0  0  0
 10 13  1  0  0  0  0
 10 26  1  0  0  0  0
 10 27  1  0  0  0  0
 11 28  1  0  0  0  0
 11 29  1  0  0  0  0
 12 30  1  0  0  0  0
 12 31  1  0  0  0  0
 13 32  1  0  0  0  0
 13 33  1  0  0  0  0
 14 34  1  0  0  0  0
 14 35  1  0  0  0  0
 15 16  1  0  0  0  0
 16 17  2  0  0  0  0
 16 18  1  0  0  0  0
 17 19  1  0  0  0  0
 17 36  1  0  0  0  0
 18 20  2  0  0  0  0
 18 37  1  0  0  0  0
 19 21  2  0  0  0  0
 19 38  1  0  0  0  0
 20 21  1  0  0  0  0
 20 39  1  0  0  0  0
 21 40  1  0  0  0  0
M  END
> <PUBCHEM_COMPOUND_CID>
13417699

> <PUBCHEM_CONFORMER_RMSD>
0.8

> <PUBCHEM_CONFORMER_DIVERSEORDER>
1
8
10
7
6
4
11
3
13
2
12
5
9

> <PUBCHEM_MMFF94_PARTIAL_CHARGES>
26
1 0.97
10 0.27
11 0.28
12 0.28
13 0.28
14 0.2
15 0.63
16 0.09
17 -0.15
18 -0.15
19 -0.15
2 -0.58
20 -0.15
21 -0.15
3 -0.58
36 0.15
37 0.15
38 0.15
39 0.15
4 -0.58
40 0.15
5 -0.43
6 -0.57
7 -0.81
8 0.27
9 0.27

> <PUBCHEM_EFFECTIVE_ROTOR_COUNT>
5.8

> <PUBCHEM_PHARMACOPHORE_FEATURES>
3
1 6 acceptor
1 7 cation
6 16 17 18 19 20 21 rings

> <PUBCHEM_HEAVY_ATOM_COUNT>
21

> <PUBCHEM_ATOM_DEF_STEREO_COUNT>
0

> <PUBCHEM_ATOM_UDEF_STEREO_COUNT>
0

> <PUBCHEM_BOND_DEF_STEREO_COUNT>
0

> <PUBCHEM_BOND_UDEF_STEREO_COUNT>
0

> <PUBCHEM_ISOTOPIC_ATOM_COUNT>
0

> <PUBCHEM_COMPONENT_COUNT>
1

> <PUBCHEM_CACTVS_TAUTO_COUNT>
1

> <PUBCHEM_CONFORMER_ID>
00CCBCE300000001

> <PUBCHEM_MMFF94_ENERGY>
66.4933

> <PUBCHEM_FEATURE_SELFOVERLAP>
15.223

> <PUBCHEM_SHAPE_FINGERPRINT>
10498660 4 18408321090601445720
10670039 82 18339656572705146876
12107183 9 17691693285797207930
12236239 1 17989488502334806277
12403259 415 18040998401698305310
12788726 201 17346042138882080361
13224815 77 18333448738079590196
13631057 29 18189899888782123139
13994607 96 18201720652566193175
14528608 73 18413388752472973286
15183329 4 18341060636379411190
15196674 1 18413112770938931960
15788980 27 17060340712810183596
17844677 252 18271254845637804270
17857418 61 7997966860490730928
1813 80 12463569569540211810
19489759 90 16153423952454796973
20645477 56 17967811630830657415
21033648 29 18262226820224022432
21623110 236 18262525895908289717
221357 26 18060424625162801440
23402655 69 18201719561707887782
23557571 272 17822015297928677742
23559900 14 18267860580181579962
3545911 37 18408326583495222234
4325135 7 18411418449290449791
474 4 18334579074888246112
5104073 3 18113618949916167659
542803 24 18202003218047904436
543368 44 18201997758986644392
5924683 9 12540990632806286233
633830 44 18200878357349561607

> <PUBCHEM_SHAPE_MULTIPOLES>
416.06
13.23
2.09
1.27
11.48
0.11
0.49
-4.06
1.01
0.4
-0.46
-1.52
-0.34
0.32

> <PUBCHEM_SHAPE_SELFOVERLAP>
859.426

> <PUBCHEM_SHAPE_VOLUME>
236

> <PUBCHEM_COORDINATE_TYPE>
2
5
10

$$$$
