136893
  -OEChem-11012401083D

 20 20  0     1  0  0  0  0  0999 V2000
   -1.1891    1.0019   -0.2329 O   0  0  0  0  0  0  0  0  0  0  0  0
    1.1888    1.0019   -0.2332 O   0  0  0  0  0  0  0  0  0  0  0  0
    0.0001   -1.0957   -0.0525 C   0  0  0  0  0  0  0  0  0  0  0  0
   -1.2531   -0.3080    0.3394 C   0  0  2  0  0  0  0  0  0  0  0  0
    1.2531   -0.3079    0.3394 C   0  0  1  0  0  0  0  0  0  0  0  0
   -2.5179   -0.9851   -0.1667 C   0  0  0  0  0  0  0  0  0  0  0  0
    2.5181   -0.9847   -0.1666 C   0  0  0  0  0  0  0  0  0  0  0  0
   -0.0002    1.6777    0.1730 C   0  0  0  0  0  0  0  0  0  0  0  0
    0.0001   -2.0863    0.4155 H   0  0  0  0  0  0  0  0  0  0  0  0
    0.0001   -1.2353   -1.1417 H   0  0  0  0  0  0  0  0  0  0  0  0
   -1.3155   -0.2113    1.4307 H   0  0  0  0  0  0  0  0  0  0  0  0
    1.3154   -0.2110    1.4308 H   0  0  0  0  0  0  0  0  0  0  0  0
   -2.5190   -1.0497   -1.2604 H   0  0  0  0  0  0  0  0  0  0  0  0
   -2.6215   -1.9933    0.2454 H   0  0  0  0  0  0  0  0  0  0  0  0
   -3.4008   -0.4005    0.1135 H   0  0  0  0  0  0  0  0  0  0  0  0
    2.6219   -1.9929    0.2457 H   0  0  0  0  0  0  0  0  0  0  0  0
    2.5194   -1.0496   -1.2603 H   0  0  0  0  0  0  0  0  0  0  0  0
    3.4009   -0.3999    0.1135 H   0  0  0  0  0  0  0  0  0  0  0  0
   -0.0002    2.6618   -0.3043 H   0  0  0  0  0  0  0  0  0  0  0  0
    0.0000    1.8353    1.2588 H   0  0  0  0  0  0  0  0  0  0  0  0
  1  4  1  0  0  0  0
  1  8  1  0  0  0  0
  2  5  1  0  0  0  0
  2  8  1  0  0  0  0
  3  4  1  0  0  0  0
  3  5  1  0  0  0  0
  3  9  1  0  0  0  0
  3 10  1  0  0  0  0
  4  6  1  0  0  0  0
  4 11  1  0  0  0  0
  5  7  1  0  0  0  0
  5 12  1  0  0  0  0
  6 13  1  0  0  0  0
  6 14  1  0  0  0  0
  6 15  1  0  0  0  0
  7 16  1  0  0  0  0
  7 17  1  0  0  0  0
  7 18  1  0  0  0  0
  8 19  1  0  0  0  0
  8 20  1  0  0  0  0
M  END
> <PUBCHEM_COMPOUND_CID>
136893

> <PUBCHEM_CONFORMER_RMSD>
0.4

> <PUBCHEM_CONFORMER_DIVERSEORDER>
2
4
1
3

> <PUBCHEM_MMFF94_PARTIAL_CHARGES>
5
1 -0.56
2 -0.56
4 0.28
5 0.28
8 0.56

> <PUBCHEM_EFFECTIVE_ROTOR_COUNT>
1.2

> <PUBCHEM_PHARMACOPHORE_FEATURES>
3
1 1 acceptor
1 2 acceptor
6 1 2 3 4 5 8 rings

> <PUBCHEM_HEAVY_ATOM_COUNT>
8

> <PUBCHEM_ATOM_DEF_STEREO_COUNT>
0

> <PUBCHEM_ATOM_UDEF_STEREO_COUNT>
2

> <PUBCHEM_BOND_DEF_STEREO_COUNT>
0

> <PUBCHEM_BOND_UDEF_STEREO_COUNT>
0

> <PUBCHEM_ISOTOPIC_ATOM_COUNT>
0

> <PUBCHEM_COMPONENT_COUNT>
1

> <PUBCHEM_CACTVS_TAUTO_COUNT>
1

> <PUBCHEM_CONFORMER_ID>
000216BD00000002

> <PUBCHEM_MMFF94_ENERGY>
12.781

> <PUBCHEM_FEATURE_SELFOVERLAP>
15.258

> <PUBCHEM_SHAPE_FINGERPRINT>
14128692 85 18412549837727523278
16714656 1 18267027150319524982
18185500 45 18268989963090010775
21040471 1 17185032215826641793
23552423 10 18044384833393534694
29004967 10 18336828713890211563
5084963 1 18272932725835193674

> <PUBCHEM_SHAPE_MULTIPOLES>
152.9
2.99
1.61
0.65
0
0.54
0.02
-1.38
-0.21
0
-0.04
0
-0.02
0

> <PUBCHEM_SHAPE_SELFOVERLAP>
292.169

> <PUBCHEM_SHAPE_VOLUME>
93

> <PUBCHEM_COORDINATE_TYPE>
2
5
10

$$$$
