141568
  -OEChem-11012400423D

 35 39  0     1  0  0  0  0  0999 V2000
   -0.2424    2.6232    0.0000 O   0  0  0  0  0  0  0  0  0  0  0  0
    0.2366    1.2818   -0.0077 C   0  0  0  0  0  0  0  0  0  0  0  0
   -0.2778    0.5287   -1.2641 C   0  0  1  0  0  0  0  0  0  0  0  0
   -0.2761    0.5413    1.2560 C   0  0  2  0  0  0  0  0  0  0  0  0
    0.3081   -0.9071   -1.2588 C   0  0  2  0  0  0  0  0  0  0  0  0
    0.3088   -0.8950    1.2650 C   0  0  1  0  0  0  0  0  0  0  0  0
   -0.1940   -1.6494    0.0068 C   0  0  0  0  0  0  0  0  0  0  0  0
    2.3408   -0.1075   -0.0002 C   0  0  0  0  0  0  0  0  0  0  0  0
   -2.3059   -0.2760    0.0011 C   0  0  0  0  0  0  0  0  0  0  0  0
    1.7749    1.3163   -0.0059 C   0  0  0  0  0  0  0  0  0  0  0  0
   -1.8163    0.4585   -1.2554 C   0  0  0  0  0  0  0  0  0  0  0  0
   -1.8148    0.4700    1.2502 C   0  0  0  0  0  0  0  0  0  0  0  0
    1.8438   -0.8483   -1.2495 C   0  0  0  0  0  0  0  0  0  0  0  0
    1.8443   -0.8377    1.2552 C   0  0  0  0  0  0  0  0  0  0  0  0
   -1.7298   -1.6988    0.0074 C   0  0  0  0  0  0  0  0  0  0  0  0
    0.0348    1.0628   -2.1705 H   0  0  0  0  0  0  0  0  0  0  0  0
    0.0369    1.0808    2.1592 H   0  0  0  0  0  0  0  0  0  0  0  0
   -0.0229   -1.4437   -2.1568 H   0  0  0  0  0  0  0  0  0  0  0  0
   -0.0225   -1.4226    2.1683 H   0  0  0  0  0  0  0  0  0  0  0  0
    0.1954   -2.6752    0.0116 H   0  0  0  0  0  0  0  0  0  0  0  0
    3.4358   -0.0725   -0.0006 H   0  0  0  0  0  0  0  0  0  0  0  0
   -3.4006   -0.3201    0.0020 H   0  0  0  0  0  0  0  0  0  0  0  0
    2.1395    1.8743    0.8664 H   0  0  0  0  0  0  0  0  0  0  0  0
    2.1377    1.8693   -0.8820 H   0  0  0  0  0  0  0  0  0  0  0  0
   -2.1689   -0.0630   -2.1539 H   0  0  0  0  0  0  0  0  0  0  0  0
   -2.2433    1.4679   -1.2902 H   0  0  0  0  0  0  0  0  0  0  0  0
   -2.2429    1.4792    1.2771 H   0  0  0  0  0  0  0  0  0  0  0  0
   -2.1657   -0.0437    2.1538 H   0  0  0  0  0  0  0  0  0  0  0  0
    2.2027   -0.3412   -2.1535 H   0  0  0  0  0  0  0  0  0  0  0  0
    2.2558   -1.8648   -1.2701 H   0  0  0  0  0  0  0  0  0  0  0  0
    2.2557   -1.8541    1.2841 H   0  0  0  0  0  0  0  0  0  0  0  0
    2.2038   -0.3233    2.1548 H   0  0  0  0  0  0  0  0  0  0  0  0
   -2.0853   -2.2432    0.8908 H   0  0  0  0  0  0  0  0  0  0  0  0
   -2.0858   -2.2513   -0.8708 H   0  0  0  0  0  0  0  0  0  0  0  0
    0.0746    3.0505    0.8140 H   0  0  0  0  0  0  0  0  0  0  0  0
  1  2  1  0  0  0  0
  1 35  1  0  0  0  0
  2  3  1  0  0  0  0
  2  4  1  0  0  0  0
  2 10  1  0  0  0  0
  3  5  1  0  0  0  0
  3 11  1  0  0  0  0
  3 16  1  0  0  0  0
  4  6  1  0  0  0  0
  4 12  1  0  0  0  0
  4 17  1  0  0  0  0
  5  7  1  0  0  0  0
  5 13  1  0  0  0  0
  5 18  1  0  0  0  0
  6  7  1  0  0  0  0
  6 14  1  0  0  0  0
  6 19  1  0  0  0  0
  7 15  1  0  0  0  0
  7 20  1  0  0  0  0
  8 10  1  0  0  0  0
  8 13  1  0  0  0  0
  8 14  1  0  0  0  0
  8 21  1  0  0  0  0
  9 11  1  0  0  0  0
  9 12  1  0  0  0  0
  9 15  1  0  0  0  0
  9 22  1  0  0  0  0
 10 23  1  0  0  0  0
 10 24  1  0  0  0  0
 11 25  1  0  0  0  0
 11 26  1  0  0  0  0
 12 27  1  0  0  0  0
 12 28  1  0  0  0  0
 13 29  1  0  0  0  0
 13 30  1  0  0  0  0
 14 31  1  0  0  0  0
 14 32  1  0  0  0  0
 15 33  1  0  0  0  0
 15 34  1  0  0  0  0
M  END
> <PUBCHEM_COMPOUND_CID>
141568

> <PUBCHEM_CONFORMER_RMSD>
0.6

> <PUBCHEM_CONFORMER_DIVERSEORDER>
1

> <PUBCHEM_MMFF94_PARTIAL_CHARGES>
3
1 -0.68
2 0.28
35 0.4

> <PUBCHEM_EFFECTIVE_ROTOR_COUNT>
1.2

> <PUBCHEM_PHARMACOPHORE_FEATURES>
9
1 1 acceptor
1 1 donor
6 2 3 4 5 6 7 rings
6 2 3 4 9 11 12 rings
6 2 3 5 8 10 13 rings
6 2 4 6 8 10 14 rings
6 3 5 7 9 11 15 rings
6 4 6 7 9 12 15 rings
6 5 6 7 8 13 14 rings

> <PUBCHEM_HEAVY_ATOM_COUNT>
15

> <PUBCHEM_ATOM_DEF_STEREO_COUNT>
0

> <PUBCHEM_ATOM_UDEF_STEREO_COUNT>
4

> <PUBCHEM_BOND_DEF_STEREO_COUNT>
0

> <PUBCHEM_BOND_UDEF_STEREO_COUNT>
0

> <PUBCHEM_ISOTOPIC_ATOM_COUNT>
0

> <PUBCHEM_COMPONENT_COUNT>
1

> <PUBCHEM_CACTVS_TAUTO_COUNT>
1

> <PUBCHEM_CONFORMER_ID>
0002290000000001

> <PUBCHEM_MMFF94_ENERGY>
45.4629

> <PUBCHEM_FEATURE_SELFOVERLAP>
71.08

> <PUBCHEM_SHAPE_FINGERPRINT>
10863032 1 18265049304783753566
10948715 1 18194401314786295589
12423570 1 15464604879839501206
12491281 212 18057071127123946632
13024252 1 16805323292804071586
141345 1 8237203509404091434
144361 1 17981311606210404051
14817 1 12441828229906432018
15557651 10 17896063046646291735
15775835 57 18113054956264320751
16945 1 18338517439164788130
23419403 2 15540572809572073935
241688 4 18127992822486653714
2748010 2 18340772636255341694
369184 2 18187076269664170810
5084963 1 18118684563220124061
528886 8 18202013113526018790
54276843 12 17987517185370857899

> <PUBCHEM_SHAPE_MULTIPOLES>
302.82
2.7
1.83
1.47
0.07
0.53
0
-0.3
0
-0.07
0
0.01
-0.13
0

> <PUBCHEM_SHAPE_SELFOVERLAP>
696.05

> <PUBCHEM_SHAPE_VOLUME>
149.8

> <PUBCHEM_COORDINATE_TYPE>
2
5
10

$$$$
