138803
  -OEChem-11012401163D

 23 24  0     1  0  0  0  0  0999 V2000
    0.1119    1.2653    0.5800 C   0  0  2  0  0  0  0  0  0  0  0  0
   -0.0989   -1.2179    0.6426 C   0  0  1  0  0  0  0  0  0  0  0  0
    0.0362    0.0458    1.5049 C   0  0  0  0  0  0  0  0  0  0  0  0
   -1.1927    1.3673   -0.2364 C   0  0  0  0  0  0  0  0  0  0  0  0
   -1.4335   -1.1704   -0.1194 C   0  0  0  0  0  0  0  0  0  0  0  0
   -1.5712    0.0873   -0.9861 C   0  0  0  0  0  0  0  0  0  0  0  0
    1.3754    1.1657   -0.3053 C   0  0  0  0  0  0  0  0  0  0  0  0
    1.0519   -1.3135   -0.3296 C   0  0  0  0  0  0  0  0  0  0  0  0
    1.7209   -0.2297   -0.7506 C   0  0  0  0  0  0  0  0  0  0  0  0
    0.1947    2.1760    1.1866 H   0  0  0  0  0  0  0  0  0  0  0  0
   -0.0817   -2.0962    1.2984 H   0  0  0  0  0  0  0  0  0  0  0  0
   -0.8177    0.1353    2.1878 H   0  0  0  0  0  0  0  0  0  0  0  0
    0.9367   -0.0108    2.1302 H   0  0  0  0  0  0  0  0  0  0  0  0
   -1.1303    2.2016   -0.9452 H   0  0  0  0  0  0  0  0  0  0  0  0
   -2.0104    1.6123    0.4545 H   0  0  0  0  0  0  0  0  0  0  0  0
   -2.2576   -1.1918    0.6053 H   0  0  0  0  0  0  0  0  0  0  0  0
   -1.5487   -2.0608   -0.7496 H   0  0  0  0  0  0  0  0  0  0  0  0
   -0.9439   -0.0093   -1.8802 H   0  0  0  0  0  0  0  0  0  0  0  0
   -2.6023    0.1680   -1.3502 H   0  0  0  0  0  0  0  0  0  0  0  0
    2.2324    1.5451    0.2658 H   0  0  0  0  0  0  0  0  0  0  0  0
    1.2717    1.8136   -1.1834 H   0  0  0  0  0  0  0  0  0  0  0  0
    1.3263   -2.2947   -0.7050 H   0  0  0  0  0  0  0  0  0  0  0  0
    2.5434   -0.3480   -1.4494 H   0  0  0  0  0  0  0  0  0  0  0  0
  1  3  1  0  0  0  0
  1  4  1  0  0  0  0
  1  7  1  0  0  0  0
  1 10  1  0  0  0  0
  2  3  1  0  0  0  0
  2  5  1  0  0  0  0
  2  8  1  0  0  0  0
  2 11  1  0  0  0  0
  3 12  1  0  0  0  0
  3 13  1  0  0  0  0
  4  6  1  0  0  0  0
  4 14  1  0  0  0  0
  4 15  1  0  0  0  0
  5  6  1  0  0  0  0
  5 16  1  0  0  0  0
  5 17  1  0  0  0  0
  6 18  1  0  0  0  0
  6 19  1  0  0  0  0
  7  9  1  0  0  0  0
  7 20  1  0  0  0  0
  7 21  1  0  0  0  0
  8  9  2  0  0  0  0
  8 22  1  0  0  0  0
  9 23  1  0  0  0  0
M  END
> <PUBCHEM_COMPOUND_CID>
138803

> <PUBCHEM_CONFORMER_RMSD>
0.4

> <PUBCHEM_CONFORMER_DIVERSEORDER>
1
2

> <PUBCHEM_MMFF94_PARTIAL_CHARGES>
6
2 0.14
22 0.15
23 0.15
7 0.14
8 -0.29
9 -0.29

> <PUBCHEM_EFFECTIVE_ROTOR_COUNT>
1

> <PUBCHEM_PHARMACOPHORE_FEATURES>
2
6 1 2 3 4 5 6 rings
6 1 2 3 7 8 9 rings

> <PUBCHEM_HEAVY_ATOM_COUNT>
9

> <PUBCHEM_ATOM_DEF_STEREO_COUNT>
0

> <PUBCHEM_ATOM_UDEF_STEREO_COUNT>
2

> <PUBCHEM_BOND_DEF_STEREO_COUNT>
0

> <PUBCHEM_BOND_UDEF_STEREO_COUNT>
0

> <PUBCHEM_ISOTOPIC_ATOM_COUNT>
0

> <PUBCHEM_COMPONENT_COUNT>
1

> <PUBCHEM_CACTVS_TAUTO_COUNT>
1

> <PUBCHEM_CONFORMER_ID>
00021E3300000001

> <PUBCHEM_MMFF94_ENERGY>
8.6975

> <PUBCHEM_FEATURE_SELFOVERLAP>
11.598

> <PUBCHEM_SHAPE_FINGERPRINT>
12423570 1 17330553662015140528
13024252 1 17461762512316764174
137420 1 14033980328895399498
16945 1 18410576158410190807
18185500 45 17617369585240544127
21040471 1 18193550060842150357
29004967 10 17986681578024343914
5084963 1 16877946022627884478

> <PUBCHEM_SHAPE_MULTIPOLES>
185.22
1.94
1.67
1.15
0.04
0.05
0.27
-0.02
-0.69
-0.04
0.03
-0.04
0
0.08

> <PUBCHEM_SHAPE_SELFOVERLAP>
381.583

> <PUBCHEM_SHAPE_VOLUME>
101.1

> <PUBCHEM_COORDINATE_TYPE>
2
5
10

$$$$
