72659
  -OEChem-11012400493D

 24 25  0     0  0  0  0  0  0999 V2000
   -0.4650   -2.6919    0.0378 O   0  0  0  0  0  0  0  0  0  0  0  0
   -0.5762    2.8214   -0.0085 O   0  5  0  0  0  0  0  0  0  0  0  0
   -0.5213   -1.4123    0.0080 N   0  3  0  0  0  0  0  0  0  0  0  0
   -0.5451    1.3902    0.0071 N   0  0  0  0  0  0  0  0  0  0  0  0
    0.7444   -0.6833    0.0012 C   0  0  0  0  0  0  0  0  0  0  0  0
    0.7107    0.7196    0.0023 C   0  0  0  0  0  0  0  0  0  0  0  0
   -1.7998   -0.6851   -0.0097 C   0  0  0  0  0  0  0  0  0  0  0  0
   -1.7528    0.6670    0.0037 C   0  0  0  0  0  0  0  0  0  0  0  0
    1.9568   -1.3882   -0.0048 C   0  0  0  0  0  0  0  0  0  0  0  0
    1.9465    1.3962   -0.0007 C   0  0  0  0  0  0  0  0  0  0  0  0
   -2.9759   -1.6123   -0.0460 C   0  0  0  0  0  0  0  0  0  0  0  0
   -3.0420    1.4737    0.0241 C   0  0  0  0  0  0  0  0  0  0  0  0
    3.1622   -0.6925   -0.0086 C   0  0  0  0  0  0  0  0  0  0  0  0
    3.1576    0.6975   -0.0059 C   0  0  0  0  0  0  0  0  0  0  0  0
    1.9858   -2.4740   -0.0067 H   0  0  0  0  0  0  0  0  0  0  0  0
    1.9976    2.4822    0.0012 H   0  0  0  0  0  0  0  0  0  0  0  0
   -2.8878   -2.3115   -0.8853 H   0  0  0  0  0  0  0  0  0  0  0  0
   -3.9339   -1.1070   -0.1750 H   0  0  0  0  0  0  0  0  0  0  0  0
   -3.0339   -2.1900    0.8827 H   0  0  0  0  0  0  0  0  0  0  0  0
   -3.9463    0.8727    0.1279 H   0  0  0  0  0  0  0  0  0  0  0  0
   -3.1449    2.0495   -0.9024 H   0  0  0  0  0  0  0  0  0  0  0  0
   -3.0492    2.1646    0.8750 H   0  0  0  0  0  0  0  0  0  0  0  0
    4.1034   -1.2340   -0.0131 H   0  0  0  0  0  0  0  0  0  0  0  0
    4.0967    1.2435   -0.0084 H   0  0  0  0  0  0  0  0  0  0  0  0
  1  3  2  0  0  0  0
  2  4  1  0  0  0  0
  3  5  1  0  0  0  0
  3  7  1  0  0  0  0
  4  6  1  0  0  0  0
  4  8  1  0  0  0  0
  5  6  1  0  0  0  0
  5  9  2  0  0  0  0
  6 10  2  0  0  0  0
  7  8  2  0  0  0  0
  7 11  1  0  0  0  0
  8 12  1  0  0  0  0
  9 13  1  0  0  0  0
  9 15  1  0  0  0  0
 10 14  1  0  0  0  0
 10 16  1  0  0  0  0
 11 17  1  0  0  0  0
 11 18  1  0  0  0  0
 11 19  1  0  0  0  0
 12 20  1  0  0  0  0
 12 21  1  0  0  0  0
 12 22  1  0  0  0  0
 13 14  2  0  0  0  0
 13 23  1  0  0  0  0
 14 24  1  0  0  0  0
M  CHG  2   2  -1   3   1
M  END
> <PUBCHEM_COMPOUND_CID>
72659

> <PUBCHEM_CONFORMER_RMSD>
0.4

> <PUBCHEM_CONFORMER_DIVERSEORDER>
1

> <PUBCHEM_MMFF94_PARTIAL_CHARGES>
18
1 -0.63
10 -0.15
11 0.14
12 0.14
13 -0.15
14 -0.15
15 0.15
16 0.15
2 -0.86
23 0.15
24 0.15
3 0.7
4 -0.08
5 -0.03
6 -0.03
7 -0.17
8 -0.17
9 -0.15

> <PUBCHEM_EFFECTIVE_ROTOR_COUNT>
0

> <PUBCHEM_PHARMACOPHORE_FEATURES>
3
1 2 anion
6 3 4 5 6 7 8 rings
6 5 6 9 10 13 14 rings

> <PUBCHEM_HEAVY_ATOM_COUNT>
14

> <PUBCHEM_ATOM_DEF_STEREO_COUNT>
0

> <PUBCHEM_ATOM_UDEF_STEREO_COUNT>
0

> <PUBCHEM_BOND_DEF_STEREO_COUNT>
0

> <PUBCHEM_BOND_UDEF_STEREO_COUNT>
0

> <PUBCHEM_ISOTOPIC_ATOM_COUNT>
0

> <PUBCHEM_COMPONENT_COUNT>
1

> <PUBCHEM_CACTVS_TAUTO_COUNT>
1

> <PUBCHEM_CONFORMER_ID>
00011BD300000001

> <PUBCHEM_MMFF94_ENERGY>
49.761

> <PUBCHEM_FEATURE_SELFOVERLAP>
15.245

> <PUBCHEM_SHAPE_FINGERPRINT>
10608611 8 18412541041734942168
10967382 1 18266741272800791395
11132069 177 18341608187972931256
12032990 46 18338241569041543818
12382932 28 18412261739932425800
13140716 1 18410573946681375251
13380535 76 18267018362921958415
13897977 150 18411415068776563333
14325111 11 18410575089074259648
14790565 3 15523505327736116507
15775835 57 18335427824481115016
16945 1 18122343484503716591
193761 8 17617940231796419779
20510252 161 18272091625220240136
20871998 184 18273497892144623271
21501502 16 18410293618534785198
22802520 49 18057903358726490358
2334 1 18410855498962215523
23402539 116 18271231832913116127
23463225 33 18408604759857759336
23552423 10 18261112993243005718
23559900 14 18343303644447568078
241688 4 18410291419369228617
2748010 2 18411138043364690495
528886 8 18339356375089727761
53812653 166 18342452629982874600
6333449 129 18411697690351137020
8809292 202 18335426720727475506

> <PUBCHEM_SHAPE_MULTIPOLES>
266.41
4.75
2.55
0.59
0.48
0.11
0
-0.04
-0.02
-0.99
0.01
0.01
0
-0.02

> <PUBCHEM_SHAPE_SELFOVERLAP>
564.566

> <PUBCHEM_SHAPE_VOLUME>
148.5

> <PUBCHEM_COORDINATE_TYPE>
2
5
10

$$$$
