145428
  -OEChem-10312420402D

108111  0     1  0  0  0  0  0999 V2000
   11.5263   -0.5000    0.0000 O   0  0  0  0  0  0  0  0  0  0  0  0
    9.7942   -3.5000    0.0000 O   0  0  0  0  0  0  0  0  0  0  0  0
    9.7942    3.5000    0.0000 O   0  0  0  0  0  0  0  0  0  0  0  0
    6.3301    3.5000    0.0000 O   0  0  0  0  0  0  0  0  0  0  0  0
   13.2583    0.5000    0.0000 O   0  0  0  0  0  0  0  0  0  0  0  0
    9.7942   -5.5000    0.0000 O   0  0  0  0  0  0  0  0  0  0  0  0
    9.7942    5.5000    0.0000 O   0  0  0  0  0  0  0  0  0  0  0  0
    4.5981    2.5000    0.0000 O   0  0  0  0  0  0  0  0  0  0  0  0
   11.5263   -2.5000    0.0000 N   0  0  0  0  0  0  0  0  0  0  0  0
    8.0622    2.5000    0.0000 N   0  0  0  0  0  0  0  0  0  0  0  0
    9.7942   -0.5000    0.0000 C   0  0  0  0  0  0  0  0  0  0  0  0
    9.7942    0.5000    0.0000 C   0  0  0  0  0  0  0  0  0  0  0  0
   10.6603   -1.0000    0.0000 C   0  0  0  0  0  0  0  0  0  0  0  0
    8.9282    1.0000    0.0000 C   0  0  0  0  0  0  0  0  0  0  0  0
   10.6603   -2.0000    0.0000 C   0  0  0  0  0  0  0  0  0  0  0  0
    8.9282    2.0000    0.0000 C   0  0  0  0  0  0  0  0  0  0  0  0
   12.3923   -2.0000    0.0000 C   0  0  0  0  0  0  0  0  0  0  0  0
   11.5263   -3.5000    0.0000 C   0  0  0  0  0  0  0  0  0  0  0  0
    8.0622    3.5000    0.0000 C   0  0  0  0  0  0  0  0  0  0  0  0
    7.1962    2.0000    0.0000 C   0  0  0  0  0  0  0  0  0  0  0  0
   12.3923   -1.0000    0.0000 C   0  0  3  0  0  0  0  0  0  0  0  0
   10.6603   -4.0000    0.0000 C   0  0  3  0  0  0  0  0  0  0  0  0
    8.9282    4.0000    0.0000 C   0  0  3  0  0  0  0  0  0  0  0  0
    6.3301    2.5000    0.0000 C   0  0  3  0  0  0  0  0  0  0  0  0
   13.2583   -0.5000    0.0000 C   0  0  0  0  0  0  0  0  0  0  0  0
   10.6603   -5.0000    0.0000 C   0  0  0  0  0  0  0  0  0  0  0  0
    8.9282    5.0000    0.0000 C   0  0  0  0  0  0  0  0  0  0  0  0
    5.4641    2.0000    0.0000 C   0  0  0  0  0  0  0  0  0  0  0  0
   14.1244    1.0000    0.0000 C   0  0  0  0  0  0  0  0  0  0  0  0
    9.7942   -6.5000    0.0000 C   0  0  0  0  0  0  0  0  0  0  0  0
    9.7942    6.5000    0.0000 C   0  0  0  0  0  0  0  0  0  0  0  0
    3.7320    2.0000    0.0000 C   0  0  0  0  0  0  0  0  0  0  0  0
   14.1244    2.0000    0.0000 C   0  0  0  0  0  0  0  0  0  0  0  0
   10.6603   -7.0000    0.0000 C   0  0  0  0  0  0  0  0  0  0  0  0
   10.6603    7.0000    0.0000 C   0  0  0  0  0  0  0  0  0  0  0  0
    2.8660    2.5000    0.0000 C   0  0  0  0  0  0  0  0  0  0  0  0
   14.9904    0.5000    0.0000 C   0  0  0  0  0  0  0  0  0  0  0  0
    8.9282   -7.0000    0.0000 C   0  0  0  0  0  0  0  0  0  0  0  0
    8.9282    7.0000    0.0000 C   0  0  0  0  0  0  0  0  0  0  0  0
    3.7320    1.0000    0.0000 C   0  0  0  0  0  0  0  0  0  0  0  0
   14.9904    2.5000    0.0000 C   0  0  0  0  0  0  0  0  0  0  0  0
   10.6603   -8.0000    0.0000 C   0  0  0  0  0  0  0  0  0  0  0  0
   10.6603    8.0000    0.0000 C   0  0  0  0  0  0  0  0  0  0  0  0
    2.0000    2.0000    0.0000 C   0  0  0  0  0  0  0  0  0  0  0  0
   15.8564    1.0000    0.0000 C   0  0  0  0  0  0  0  0  0  0  0  0
    8.9282   -8.0000    0.0000 C   0  0  0  0  0  0  0  0  0  0  0  0
    8.9282    8.0000    0.0000 C   0  0  0  0  0  0  0  0  0  0  0  0
    2.8660    0.5000    0.0000 C   0  0  0  0  0  0  0  0  0  0  0  0
   15.8564    2.0000    0.0000 C   0  0  0  0  0  0  0  0  0  0  0  0
    9.7942   -8.5000    0.0000 C   0  0  0  0  0  0  0  0  0  0  0  0
    9.7942    8.5000    0.0000 C   0  0  0  0  0  0  0  0  0  0  0  0
    2.0000    1.0000    0.0000 C   0  0  0  0  0  0  0  0  0  0  0  0
    9.1836   -0.3923    0.0000 H   0  0  0  0  0  0  0  0  0  0  0  0
    9.5822   -1.0826    0.0000 H   0  0  0  0  0  0  0  0  0  0  0  0
   10.4048    0.3923    0.0000 H   0  0  0  0  0  0  0  0  0  0  0  0
   10.0063    1.0826    0.0000 H   0  0  0  0  0  0  0  0  0  0  0  0
   11.2708   -1.1077    0.0000 H   0  0  0  0  0  0  0  0  0  0  0  0
   10.8723   -0.4174    0.0000 H   0  0  0  0  0  0  0  0  0  0  0  0
    8.3176    1.1077    0.0000 H   0  0  0  0  0  0  0  0  0  0  0  0
    8.7162    0.4174    0.0000 H   0  0  0  0  0  0  0  0  0  0  0  0
   10.0497   -1.8923    0.0000 H   0  0  0  0  0  0  0  0  0  0  0  0
   10.4482   -2.5826    0.0000 H   0  0  0  0  0  0  0  0  0  0  0  0
    9.5388    1.8923    0.0000 H   0  0  0  0  0  0  0  0  0  0  0  0
    9.1403    2.5826    0.0000 H   0  0  0  0  0  0  0  0  0  0  0  0
   12.6044   -2.5826    0.0000 H   0  0  0  0  0  0  0  0  0  0  0  0
   13.0029   -1.8923    0.0000 H   0  0  0  0  0  0  0  0  0  0  0  0
   11.7383   -4.0826    0.0000 H   0  0  0  0  0  0  0  0  0  0  0  0
   12.1369   -3.3923    0.0000 H   0  0  0  0  0  0  0  0  0  0  0  0
    7.8501    4.0826    0.0000 H   0  0  0  0  0  0  0  0  0  0  0  0
    7.4516    3.3923    0.0000 H   0  0  0  0  0  0  0  0  0  0  0  0
    6.7976    1.5250    0.0000 H   0  0  0  0  0  0  0  0  0  0  0  0
    7.5947    1.5250    0.0000 H   0  0  0  0  0  0  0  0  0  0  0  0
   11.8554   -1.3100    0.0000 H   0  0  0  0  0  0  0  0  0  0  0  0
   10.6603   -3.3800    0.0000 H   0  0  0  0  0  0  0  0  0  0  0  0
    9.4651    4.3100    0.0000 H   0  0  0  0  0  0  0  0  0  0  0  0
    6.8671    2.8100    0.0000 H   0  0  0  0  0  0  0  0  0  0  0  0
   13.4704   -1.0826    0.0000 H   0  0  0  0  0  0  0  0  0  0  0  0
   13.8689   -0.3923    0.0000 H   0  0  0  0  0  0  0  0  0  0  0  0
   10.8723   -5.5826    0.0000 H   0  0  0  0  0  0  0  0  0  0  0  0
   11.2708   -4.8923    0.0000 H   0  0  0  0  0  0  0  0  0  0  0  0
    8.7162    5.5826    0.0000 H   0  0  0  0  0  0  0  0  0  0  0  0
    8.3176    4.8923    0.0000 H   0  0  0  0  0  0  0  0  0  0  0  0
    5.0656    1.5250    0.0000 H   0  0  0  0  0  0  0  0  0  0  0  0
    5.8626    1.5250    0.0000 H   0  0  0  0  0  0  0  0  0  0  0  0
   11.5263    0.1200    0.0000 H   0  0  0  0  0  0  0  0  0  0  0  0
    9.2573   -3.8100    0.0000 H   0  0  0  0  0  0  0  0  0  0  0  0
   10.3312    3.8100    0.0000 H   0  0  0  0  0  0  0  0  0  0  0  0
    5.7932    3.8100    0.0000 H   0  0  0  0  0  0  0  0  0  0  0  0
   13.5874    2.3100    0.0000 H   0  0  0  0  0  0  0  0  0  0  0  0
   11.1972   -6.6900    0.0000 H   0  0  0  0  0  0  0  0  0  0  0  0
   11.1972    6.6900    0.0000 H   0  0  0  0  0  0  0  0  0  0  0  0
    2.8660    3.1200    0.0000 H   0  0  0  0  0  0  0  0  0  0  0  0
   14.9904   -0.1200    0.0000 H   0  0  0  0  0  0  0  0  0  0  0  0
    8.3913   -6.6900    0.0000 H   0  0  0  0  0  0  0  0  0  0  0  0
    8.3913    6.6900    0.0000 H   0  0  0  0  0  0  0  0  0  0  0  0
    4.2690    0.6900    0.0000 H   0  0  0  0  0  0  0  0  0  0  0  0
   14.9904    3.1200    0.0000 H   0  0  0  0  0  0  0  0  0  0  0  0
   11.1972   -8.3100    0.0000 H   0  0  0  0  0  0  0  0  0  0  0  0
   11.1972    8.3100    0.0000 H   0  0  0  0  0  0  0  0  0  0  0  0
    1.4631    2.3100    0.0000 H   0  0  0  0  0  0  0  0  0  0  0  0
   16.3933    0.6900    0.0000 H   0  0  0  0  0  0  0  0  0  0  0  0
    8.3913   -8.3100    0.0000 H   0  0  0  0  0  0  0  0  0  0  0  0
    8.3913    8.3100    0.0000 H   0  0  0  0  0  0  0  0  0  0  0  0
    2.8660   -0.1200    0.0000 H   0  0  0  0  0  0  0  0  0  0  0  0
   16.3933    2.3100    0.0000 H   0  0  0  0  0  0  0  0  0  0  0  0
    9.7942   -9.1200    0.0000 H   0  0  0  0  0  0  0  0  0  0  0  0
    9.7942    9.1200    0.0000 H   0  0  0  0  0  0  0  0  0  0  0  0
    1.4631    0.6900    0.0000 H   0  0  0  0  0  0  0  0  0  0  0  0
  1 21  1  0  0  0  0
  1 85  1  0  0  0  0
  2 22  1  0  0  0  0
  2 86  1  0  0  0  0
  3 23  1  0  0  0  0
  3 87  1  0  0  0  0
  4 24  1  0  0  0  0
  4 88  1  0  0  0  0
  5 25  1  0  0  0  0
  5 29  1  0  0  0  0
  6 26  1  0  0  0  0
  6 30  1  0  0  0  0
  7 27  1  0  0  0  0
  7 31  1  0  0  0  0
  8 28  1  0  0  0  0
  8 32  1  0  0  0  0
  9 15  1  0  0  0  0
  9 17  1  0  0  0  0
  9 18  1  0  0  0  0
 10 16  1  0  0  0  0
 10 19  1  0  0  0  0
 10 20  1  0  0  0  0
 11 12  1  0  0  0  0
 11 13  1  0  0  0  0
 11 53  1  0  0  0  0
 11 54  1  0  0  0  0
 12 14  1  0  0  0  0
 12 55  1  0  0  0  0
 12 56  1  0  0  0  0
 13 15  1  0  0  0  0
 13 57  1  0  0  0  0
 13 58  1  0  0  0  0
 14 16  1  0  0  0  0
 14 59  1  0  0  0  0
 14 60  1  0  0  0  0
 15 61  1  0  0  0  0
 15 62  1  0  0  0  0
 16 63  1  0  0  0  0
 16 64  1  0  0  0  0
 17 21  1  0  0  0  0
 17 65  1  0  0  0  0
 17 66  1  0  0  0  0
 18 22  1  0  0  0  0
 18 67  1  0  0  0  0
 18 68  1  0  0  0  0
 19 23  1  0  0  0  0
 19 69  1  0  0  0  0
 19 70  1  0  0  0  0
 20 24  1  0  0  0  0
 20 71  1  0  0  0  0
 20 72  1  0  0  0  0
 21 25  1  0  0  0  0
 21 73  1  0  0  0  0
 22 26  1  0  0  0  0
 22 74  1  0  0  0  0
 23 27  1  0  0  0  0
 23 75  1  0  0  0  0
 24 28  1  0  0  0  0
 24 76  1  0  0  0  0
 25 77  1  0  0  0  0
 25 78  1  0  0  0  0
 26 79  1  0  0  0  0
 26 80  1  0  0  0  0
 27 81  1  0  0  0  0
 27 82  1  0  0  0  0
 28 83  1  0  0  0  0
 28 84  1  0  0  0  0
 29 33  2  0  0  0  0
 29 37  1  0  0  0  0
 30 34  2  0  0  0  0
 30 38  1  0  0  0  0
 31 35  2  0  0  0  0
 31 39  1  0  0  0  0
 32 36  2  0  0  0  0
 32 40  1  0  0  0  0
 33 41  1  0  0  0  0
 33 89  1  0  0  0  0
 34 42  1  0  0  0  0
 34 90  1  0  0  0  0
 35 43  1  0  0  0  0
 35 91  1  0  0  0  0
 36 44  1  0  0  0  0
 36 92  1  0  0  0  0
 37 45  2  0  0  0  0
 37 93  1  0  0  0  0
 38 46  2  0  0  0  0
 38 94  1  0  0  0  0
 39 47  2  0  0  0  0
 39 95  1  0  0  0  0
 40 48  2  0  0  0  0
 40 96  1  0  0  0  0
 41 49  2  0  0  0  0
 41 97  1  0  0  0  0
 42 50  2  0  0  0  0
 42 98  1  0  0  0  0
 43 51  2  0  0  0  0
 43 99  1  0  0  0  0
 44 52  2  0  0  0  0
 44100  1  0  0  0  0
 45 49  1  0  0  0  0
 45101  1  0  0  0  0
 46 50  1  0  0  0  0
 46102  1  0  0  0  0
 47 51  1  0  0  0  0
 47103  1  0  0  0  0
 48 52  1  0  0  0  0
 48104  1  0  0  0  0
 49105  1  0  0  0  0
 50106  1  0  0  0  0
 51107  1  0  0  0  0
 52108  1  0  0  0  0
M  END
> <PUBCHEM_COMPOUND_CID>
145428

> <PUBCHEM_COMPOUND_CANONICALIZED>
1

> <PUBCHEM_CACTVS_COMPLEXITY>
720

> <PUBCHEM_CACTVS_HBOND_ACCEPTOR>
10

> <PUBCHEM_CACTVS_HBOND_DONOR>
4

> <PUBCHEM_CACTVS_ROTATABLE_BOND>
27

> <PUBCHEM_CACTVS_SUBSKEYS>
AAADcfB/PAAAAAAAAAAAAAAAAAAAAAAAAAAwYMGAAAAAAAABVAAAHgAACAAACBThkAYwBoMABgCAACBCAAACCAAgIAAIiAAOCIgPNiKEsRqGOCCmwBGbqAeQQAAAAAAAAAAAAAAAAAAAAAAAAAAAAAAAAA==

> <PUBCHEM_IUPAC_OPENEYE_NAME>
1-[6-[bis(2-hydroxy-3-phenoxy-propyl)amino]hexyl-(2-hydroxy-3-phenoxy-propyl)amino]-3-phenoxy-propan-2-ol

> <PUBCHEM_IUPAC_CAS_NAME>
1-[6-[bis(2-hydroxy-3-phenoxypropyl)amino]hexyl-(2-hydroxy-3-phenoxypropyl)amino]-3-phenoxy-2-propanol

> <PUBCHEM_IUPAC_NAME_MARKUP>
1-[6-[bis(2-hydroxy-3-phenoxypropyl)amino]hexyl-(2-hydroxy-3-phenoxypropyl)amino]-3-phenoxypropan-2-ol

> <PUBCHEM_IUPAC_NAME>
1-[6-[bis(2-hydroxy-3-phenoxypropyl)amino]hexyl-(2-hydroxy-3-phenoxypropyl)amino]-3-phenoxypropan-2-ol

> <PUBCHEM_IUPAC_SYSTEMATIC_NAME>
1-[6-[bis(2-oxidanyl-3-phenoxy-propyl)amino]hexyl-(2-oxidanyl-3-phenoxy-propyl)amino]-3-phenoxy-propan-2-ol

> <PUBCHEM_IUPAC_TRADITIONAL_NAME>
1-[6-[bis(2-hydroxy-3-phenoxy-propyl)amino]hexyl-(2-hydroxy-3-phenoxy-propyl)amino]-3-phenoxy-propan-2-ol

> <PUBCHEM_IUPAC_INCHI>
InChI=1S/C42H56N2O8/c45-35(31-49-39-17-7-3-8-18-39)27-43(28-36(46)32-50-40-19-9-4-10-20-40)25-15-1-2-16-26-44(29-37(47)33-51-41-21-11-5-12-22-41)30-38(48)34-52-42-23-13-6-14-24-42/h3-14,17-24,35-38,45-48H,1-2,15-16,25-34H2

> <PUBCHEM_IUPAC_INCHIKEY>
OHERUBJDVQSNSA-UHFFFAOYSA-N

> <PUBCHEM_XLOGP3_AA>
5.9

> <PUBCHEM_EXACT_MASS>
716.40366675

> <PUBCHEM_MOLECULAR_FORMULA>
C42H56N2O8

> <PUBCHEM_MOLECULAR_WEIGHT>
716.9

> <PUBCHEM_OPENEYE_CAN_SMILES>
C1=CC=C(C=C1)OCC(CN(CCCCCCN(CC(COC2=CC=CC=C2)O)CC(COC3=CC=CC=C3)O)CC(COC4=CC=CC=C4)O)O

> <PUBCHEM_OPENEYE_ISO_SMILES>
C1=CC=C(C=C1)OCC(CN(CCCCCCN(CC(COC2=CC=CC=C2)O)CC(COC3=CC=CC=C3)O)CC(COC4=CC=CC=C4)O)O

> <PUBCHEM_CACTVS_TPSA>
124

> <PUBCHEM_MONOISOTOPIC_WEIGHT>
716.40366675

> <PUBCHEM_TOTAL_CHARGE>
0

> <PUBCHEM_HEAVY_ATOM_COUNT>
52

> <PUBCHEM_ATOM_DEF_STEREO_COUNT>
0

> <PUBCHEM_ATOM_UDEF_STEREO_COUNT>
4

> <PUBCHEM_BOND_DEF_STEREO_COUNT>
0

> <PUBCHEM_BOND_UDEF_STEREO_COUNT>
0

> <PUBCHEM_ISOTOPIC_ATOM_COUNT>
0

> <PUBCHEM_COMPONENT_COUNT>
1

> <PUBCHEM_CACTVS_TAUTO_COUNT>
1

> <PUBCHEM_COORDINATE_TYPE>
1
5
255

> <PUBCHEM_BONDANNOTATIONS>
21  1  3
22  2  3
29  33  8
29  37  8
23  3  3
30  34  8
30  38  8
31  35  8
31  39  8
32  36  8
32  40  8
33  41  8
34  42  8
35  43  8
36  44  8
37  45  8
38  46  8
39  47  8
24  4  3
40  48  8
41  49  8
42  50  8
43  51  8
44  52  8
45  49  8
46  50  8
47  51  8
48  52  8

$$$$
