136558
  -OEChem-11012401223D

 29 29  0     0  0  0  0  0  0999 V2000
    4.7551    0.8335    0.0004 O   0  5  0  0  0  0  0  0  0  0  0  0
    4.4979   -1.3466    0.0006 O   0  0  0  0  0  0  0  0  0  0  0  0
   -2.4034   -0.5267    0.0012 N   0  0  0  0  0  0  0  0  0  0  0  0
    4.0225   -0.1852    0.0002 N   0  3  0  0  0  0  0  0  0  0  0  0
   -3.8171   -0.1248    0.0002 C   0  0  0  0  0  0  0  0  0  0  0  0
   -4.0827    0.7026   -1.2569 C   0  0  0  0  0  0  0  0  0  0  0  0
   -4.6656   -1.3960   -0.0033 C   0  0  0  0  0  0  0  0  0  0  0  0
   -4.0858    0.6980    1.2599 C   0  0  0  0  0  0  0  0  0  0  0  0
   -1.6023    0.4790   -0.0002 C   0  0  0  0  0  0  0  0  0  0  0  0
   -0.1397    0.3063   -0.0006 C   0  0  0  0  0  0  0  0  0  0  0  0
    0.6761    1.4262   -0.0003 C   0  0  0  0  0  0  0  0  0  0  0  0
    0.3929   -0.9731   -0.0007 C   0  0  0  0  0  0  0  0  0  0  0  0
    2.6125   -0.0189   -0.0001 C   0  0  0  0  0  0  0  0  0  0  0  0
    2.0614    1.2626   -0.0001 C   0  0  0  0  0  0  0  0  0  0  0  0
    1.7782   -1.1368   -0.0005 C   0  0  0  0  0  0  0  0  0  0  0  0
   -3.7386    0.1777   -2.1560 H   0  0  0  0  0  0  0  0  0  0  0  0
   -5.1579    0.8832   -1.3747 H   0  0  0  0  0  0  0  0  0  0  0  0
   -3.6066    1.6881   -1.2488 H   0  0  0  0  0  0  0  0  0  0  0  0
   -4.4548   -2.0129    0.8777 H   0  0  0  0  0  0  0  0  0  0  0  0
   -4.4529   -2.0094   -0.8865 H   0  0  0  0  0  0  0  0  0  0  0  0
   -5.7359   -1.1623   -0.0040 H   0  0  0  0  0  0  0  0  0  0  0  0
   -3.6060    1.6816    1.2581 H   0  0  0  0  0  0  0  0  0  0  0  0
   -5.1610    0.8814    1.3737 H   0  0  0  0  0  0  0  0  0  0  0  0
   -3.7471    0.1680    2.1579 H   0  0  0  0  0  0  0  0  0  0  0  0
   -1.9261    1.5337    0.0001 H   0  0  0  0  0  0  0  0  0  0  0  0
    0.2597    2.4297    0.0000 H   0  0  0  0  0  0  0  0  0  0  0  0
   -0.2337   -1.8603   -0.0009 H   0  0  0  0  0  0  0  0  0  0  0  0
    2.6804    2.1562    0.0001 H   0  0  0  0  0  0  0  0  0  0  0  0
    2.1722   -2.1499   -0.0005 H   0  0  0  0  0  0  0  0  0  0  0  0
  1  4  1  0  0  0  0
  2  4  2  0  0  0  0
  3  5  1  0  0  0  0
  3  9  2  0  0  0  0
  4 13  1  0  0  0  0
  5  6  1  0  0  0  0
  5  7  1  0  0  0  0
  5  8  1  0  0  0  0
  6 16  1  0  0  0  0
  6 17  1  0  0  0  0
  6 18  1  0  0  0  0
  7 19  1  0  0  0  0
  7 20  1  0  0  0  0
  7 21  1  0  0  0  0
  8 22  1  0  0  0  0
  8 23  1  0  0  0  0
  8 24  1  0  0  0  0
  9 10  1  0  0  0  0
  9 25  1  0  0  0  0
 10 11  2  0  0  0  0
 10 12  1  0  0  0  0
 11 14  1  0  0  0  0
 11 26  1  0  0  0  0
 12 15  2  0  0  0  0
 12 27  1  0  0  0  0
 13 14  2  0  0  0  0
 13 15  1  0  0  0  0
 14 28  1  0  0  0  0
 15 29  1  0  0  0  0
M  CHG  2   1  -1   4   1
M  END
> <PUBCHEM_COMPOUND_CID>
136558

> <PUBCHEM_CONFORMER_RMSD>
0.6

> <PUBCHEM_CONFORMER_DIVERSEORDER>
1

> <PUBCHEM_MMFF94_PARTIAL_CHARGES>
17
1 -0.52
10 0.09
11 -0.15
12 -0.15
13 0.13
14 -0.15
15 -0.15
2 -0.52
25 0.06
26 0.15
27 0.15
28 0.15
29 0.15
3 -0.7
4 0.91
5 0.25
9 0.3

> <PUBCHEM_EFFECTIVE_ROTOR_COUNT>
3

> <PUBCHEM_PHARMACOPHORE_FEATURES>
6
1 1 acceptor
1 1 anion
1 2 acceptor
1 3 acceptor
4 5 6 7 8 hydrophobe
6 10 11 12 13 14 15 rings

> <PUBCHEM_HEAVY_ATOM_COUNT>
15

> <PUBCHEM_ATOM_DEF_STEREO_COUNT>
0

> <PUBCHEM_ATOM_UDEF_STEREO_COUNT>
0

> <PUBCHEM_BOND_DEF_STEREO_COUNT>
0

> <PUBCHEM_BOND_UDEF_STEREO_COUNT>
0

> <PUBCHEM_ISOTOPIC_ATOM_COUNT>
0

> <PUBCHEM_COMPONENT_COUNT>
1

> <PUBCHEM_CACTVS_TAUTO_COUNT>
1

> <PUBCHEM_CONFORMER_ID>
0002156E00000001

> <PUBCHEM_MMFF94_ENERGY>
48.9377

> <PUBCHEM_FEATURE_SELFOVERLAP>
30.528

> <PUBCHEM_SHAPE_FINGERPRINT>
10680689 15 17748829605403516077
11401426 45 18410568496352129868
11471102 20 18410289212040842356
11806522 49 18411138051833312182
12032990 46 18410294688029114726
12236239 1 17918275346713104025
12916754 54 18335422434951208317
13675066 3 17346882242953480419
13690532 89 18410855456123461778
13760787 5 18410295796136062364
13862211 1 18408881811567268610
14123238 8 18272933842542228940
14144814 61 18343866606663528953
14252887 29 17989215828083727926
15196674 1 18410575084663078919
17834072 33 18270961353047115972
18186145 218 18408042905511343273
1986462 14 18259703402578301589
200 152 18202275918955036125
20279233 1 17748829614056884291
20281475 54 18410576167005393507
20645477 70 18411419484288124646
21267235 1 18340496642095010327
221490 88 18119251907141652979
22485316 2 18259981561254898459
23402539 116 16588018009318445759
23402655 69 18411413990945500589
23557571 272 16950841393223830759
23559900 14 18333448725611699250
42 15 18343867709963741281
4214541 1 18410856551656587873
5104073 3 18412263943187124947
77779 3 18410576197291788629

> <PUBCHEM_SHAPE_MULTIPOLES>
286.99
10.18
1.39
0.82
0.02
0.09
0
1.34
0
-0.22
0
0.95
-0.17
0

> <PUBCHEM_SHAPE_SELFOVERLAP>
592.092

> <PUBCHEM_SHAPE_VOLUME>
166.9

> <PUBCHEM_COORDINATE_TYPE>
2
5
10

$$$$
