87731
  -OEChem-11012400413D

 36 35  0     1  0  0  0  0  0999 V2000
    1.1335   -1.1826    1.5241 O   0  0  0  0  0  0  0  0  0  0  0  0
   -0.9294    0.5046   -0.9738 O   0  0  0  0  0  0  0  0  0  0  0  0
   -3.4379    0.0610    1.5496 O   0  0  0  0  0  0  0  0  0  0  0  0
   -5.0194    1.4621    0.7230 O   0  0  0  0  0  0  0  0  0  0  0  0
    3.8543   -1.8054    0.7326 N   0  0  0  0  0  0  0  0  0  0  0  0
    0.8506   -1.5018   -0.7581 N   0  0  0  0  0  0  0  0  0  0  0  0
   -2.7520   -0.9233   -0.7711 N   0  0  0  0  0  0  0  0  0  0  0  0
    2.5513    1.7408   -0.0670 C   0  0  0  0  0  0  0  0  0  0  0  0
    3.3787    0.6022    0.5677 C   0  0  0  0  0  0  0  0  0  0  0  0
    3.0217   -0.8043    0.0607 C   0  0  2  0  0  0  0  0  0  0  0  0
    2.9411    3.1185    0.4707 C   0  0  0  0  0  0  0  0  0  0  0  0
    2.7208    1.7145   -1.5887 C   0  0  0  0  0  0  0  0  0  0  0  0
    1.5805   -1.1870    0.3785 C   0  0  0  0  0  0  0  0  0  0  0  0
   -0.5469   -1.8674   -0.7198 C   0  0  0  0  0  0  0  0  0  0  0  0
   -1.3999   -0.6239   -0.8533 C   0  0  0  0  0  0  0  0  0  0  0  0
   -3.7909    0.0804   -0.8185 C   0  0  0  0  0  0  0  0  0  0  0  0
   -4.1561    0.6118    0.5436 C   0  0  0  0  0  0  0  0  0  0  0  0
    1.4909    1.5863    0.1655 H   0  0  0  0  0  0  0  0  0  0  0  0
    4.4456    0.7915    0.3870 H   0  0  0  0  0  0  0  0  0  0  0  0
    3.2392    0.6467    1.6567 H   0  0  0  0  0  0  0  0  0  0  0  0
    3.2231   -0.8824   -1.0119 H   0  0  0  0  0  0  0  0  0  0  0  0
    2.8093    3.1589    1.5569 H   0  0  0  0  0  0  0  0  0  0  0  0
    2.3179    3.9024    0.0278 H   0  0  0  0  0  0  0  0  0  0  0  0
    3.9883    3.3490    0.2480 H   0  0  0  0  0  0  0  0  0  0  0  0
    2.2298    2.5815   -2.0449 H   0  0  0  0  0  0  0  0  0  0  0  0
    2.2637    0.8276   -2.0359 H   0  0  0  0  0  0  0  0  0  0  0  0
    3.7778    1.7416   -1.8744 H   0  0  0  0  0  0  0  0  0  0  0  0
    3.6863   -2.7226    0.3199 H   0  0  0  0  0  0  0  0  0  0  0  0
    4.8385   -1.5971    0.5679 H   0  0  0  0  0  0  0  0  0  0  0  0
    1.2971   -1.4598   -1.6692 H   0  0  0  0  0  0  0  0  0  0  0  0
   -0.7446   -2.5400   -1.5595 H   0  0  0  0  0  0  0  0  0  0  0  0
   -0.7748   -2.3730    0.2238 H   0  0  0  0  0  0  0  0  0  0  0  0
   -3.0370   -1.8905   -0.6458 H   0  0  0  0  0  0  0  0  0  0  0  0
   -3.4549    0.9160   -1.4396 H   0  0  0  0  0  0  0  0  0  0  0  0
   -4.6746   -0.3888   -1.2598 H   0  0  0  0  0  0  0  0  0  0  0  0
   -3.6933    0.4236    2.4247 H   0  0  0  0  0  0  0  0  0  0  0  0
  1 13  2  0  0  0  0
  2 15  2  0  0  0  0
  3 17  1  0  0  0  0
  3 36  1  0  0  0  0
  4 17  2  0  0  0  0
  5 10  1  0  0  0  0
  5 28  1  0  0  0  0
  5 29  1  0  0  0  0
  6 13  1  0  0  0  0
  6 14  1  0  0  0  0
  6 30  1  0  0  0  0
  7 15  1  0  0  0  0
  7 16  1  0  0  0  0
  7 33  1  0  0  0  0
  8  9  1  0  0  0  0
  8 11  1  0  0  0  0
  8 12  1  0  0  0  0
  8 18  1  0  0  0  0
  9 10  1  0  0  0  0
  9 19  1  0  0  0  0
  9 20  1  0  0  0  0
 10 13  1  0  0  0  0
 10 21  1  0  0  0  0
 11 22  1  0  0  0  0
 11 23  1  0  0  0  0
 11 24  1  0  0  0  0
 12 25  1  0  0  0  0
 12 26  1  0  0  0  0
 12 27  1  0  0  0  0
 14 15  1  0  0  0  0
 14 31  1  0  0  0  0
 14 32  1  0  0  0  0
 16 17  1  0  0  0  0
 16 34  1  0  0  0  0
 16 35  1  0  0  0  0
M  END
> <PUBCHEM_COMPOUND_CID>
87731

> <PUBCHEM_CONFORMER_RMSD>
0.8

> <PUBCHEM_CONFORMER_DIVERSEORDER>
1
3
78
31
45
55
51
61
63
11
24
39
33
35
72
21
14
38
2
60
77
46
41
42
62
5
26
52
76
48
9
43
13
34
65
54
10
66
17
53
36
40
58
75
73
32
47
71
79
8
22
12
37
59
64
18
23
44
7
56
74
49
28
68
57
19
4
15
50
25
30
67
69
29
27
16
6
70
20

> <PUBCHEM_MMFF94_PARTIAL_CHARGES>
18
1 -0.57
10 0.33
13 0.57
14 0.36
15 0.57
16 0.36
17 0.66
2 -0.57
28 0.36
29 0.36
3 -0.65
30 0.37
33 0.37
36 0.5
4 -0.57
5 -0.99
6 -0.73
7 -0.73

> <PUBCHEM_EFFECTIVE_ROTOR_COUNT>
9

> <PUBCHEM_PHARMACOPHORE_FEATURES>
10
1 1 acceptor
1 2 acceptor
1 3 acceptor
1 4 acceptor
1 5 cation
1 5 donor
1 6 donor
1 7 donor
3 3 4 17 anion
3 8 11 12 hydrophobe

> <PUBCHEM_HEAVY_ATOM_COUNT>
17

> <PUBCHEM_ATOM_DEF_STEREO_COUNT>
1

> <PUBCHEM_ATOM_UDEF_STEREO_COUNT>
0

> <PUBCHEM_BOND_DEF_STEREO_COUNT>
0

> <PUBCHEM_BOND_UDEF_STEREO_COUNT>
0

> <PUBCHEM_ISOTOPIC_ATOM_COUNT>
0

> <PUBCHEM_COMPONENT_COUNT>
1

> <PUBCHEM_CACTVS_TAUTO_COUNT>
4

> <PUBCHEM_CONFORMER_ID>
000156B300000001

> <PUBCHEM_MMFF94_ENERGY>
20.2427

> <PUBCHEM_FEATURE_SELFOVERLAP>
50.805

> <PUBCHEM_SHAPE_FINGERPRINT>
10366900 7 17385721357486568243
10382601 240 17823398561583509192
10498660 4 17418375792296308017
10681291 71 17823990133014303748
11045977 3 17967540051727615811
12616999 72 10231743488189705080
12633257 1 17531238478511254896
12670545 47 17022901267873795203
14123260 362 17417818331458601931
14251757 17 13542193736104640803
15775835 57 18265610069052690516
18186145 218 18410007736784732518
19752476 56 17845376703495095152
20233049 118 17203318992751541002
20671657 1 18339355366215654830
21041028 32 18264480686075044108
21503847 285 18408606928979780720
21665062 11 18408600357933246260
21864079 5 18202286935145580901
23557571 272 16056590006214460175
251288 83 14273741818928898676
474 4 18410288146498549819
49207404 50 17750243671318778089
7832392 63 18269829968946954446

> <PUBCHEM_SHAPE_MULTIPOLES>
311.43
8.84
2.54
1.31
8.26
1.1
-0.01
3.9
-1.95
-2.69
-0.14
0.18
0.07
-1.15

> <PUBCHEM_SHAPE_SELFOVERLAP>
598.094

> <PUBCHEM_SHAPE_VOLUME>
189.4

> <PUBCHEM_COORDINATE_TYPE>
2
5
10

$$$$
