5376824
  -OEChem-11012401043D

 31 32  0     0  0  0  0  0  0999 V2000
    5.2987    0.2794    0.0158 O   0  0  0  0  0  0  0  0  0  0  0  0
   -0.4448   -0.6234    2.6782 N   0  0  0  0  0  0  0  0  0  0  0  0
    1.1799    0.2409   -0.4947 C   0  0  0  0  0  0  0  0  0  0  0  0
   -2.6473   -0.0272   -0.0204 C   0  0  0  0  0  0  0  0  0  0  0  0
   -0.2633    0.2274   -0.6744 C   0  0  0  0  0  0  0  0  0  0  0  0
   -1.2001   -0.0481    0.2686 C   0  0  0  0  0  0  0  0  0  0  0  0
    1.8257    1.4203   -0.1237 C   0  0  0  0  0  0  0  0  0  0  0  0
    1.9182   -0.9256   -0.6940 C   0  0  0  0  0  0  0  0  0  0  0  0
    3.9483    0.2666   -0.1514 C   0  0  0  0  0  0  0  0  0  0  0  0
    3.2099    1.4330    0.0478 C   0  0  0  0  0  0  0  0  0  0  0  0
    3.3025   -0.9128   -0.5223 C   0  0  0  0  0  0  0  0  0  0  0  0
   -3.3518    1.1537    0.1400 C   0  0  0  0  0  0  0  0  0  0  0  0
   -3.2688   -1.1885   -0.4461 C   0  0  0  0  0  0  0  0  0  0  0  0
   -4.7195    1.1738   -0.1337 C   0  0  0  0  0  0  0  0  0  0  0  0
   -4.6364   -1.1685   -0.7199 C   0  0  0  0  0  0  0  0  0  0  0  0
   -5.3617    0.0126   -0.5636 C   0  0  0  0  0  0  0  0  0  0  0  0
   -0.7817   -0.3655    1.5980 C   0  0  0  0  0  0  0  0  0  0  0  0
    5.9923   -0.9481   -0.2040 C   0  0  0  0  0  0  0  0  0  0  0  0
   -0.5862    0.4717   -1.6855 H   0  0  0  0  0  0  0  0  0  0  0  0
    1.2642    2.3379    0.0350 H   0  0  0  0  0  0  0  0  0  0  0  0
    1.4284   -1.8522   -0.9840 H   0  0  0  0  0  0  0  0  0  0  0  0
    3.7077    2.3548    0.3368 H   0  0  0  0  0  0  0  0  0  0  0  0
    3.8144   -1.8536   -0.6934 H   0  0  0  0  0  0  0  0  0  0  0  0
   -2.8630    2.0651    0.4741 H   0  0  0  0  0  0  0  0  0  0  0  0
   -2.7149   -2.1151   -0.5721 H   0  0  0  0  0  0  0  0  0  0  0  0
   -5.2842    2.0935   -0.0121 H   0  0  0  0  0  0  0  0  0  0  0  0
   -5.1366   -2.0726   -1.0548 H   0  0  0  0  0  0  0  0  0  0  0  0
   -6.4266    0.0283   -0.7768 H   0  0  0  0  0  0  0  0  0  0  0  0
    5.8970   -1.2838   -1.2422 H   0  0  0  0  0  0  0  0  0  0  0  0
    5.6837   -1.7182    0.5112 H   0  0  0  0  0  0  0  0  0  0  0  0
    7.0553   -0.7549   -0.0267 H   0  0  0  0  0  0  0  0  0  0  0  0
  1  9  1  0  0  0  0
  1 18  1  0  0  0  0
  2 17  3  0  0  0  0
  3  5  1  0  0  0  0
  3  7  2  0  0  0  0
  3  8  1  0  0  0  0
  4  6  1  0  0  0  0
  4 12  2  0  0  0  0
  4 13  1  0  0  0  0
  5  6  2  0  0  0  0
  5 19  1  0  0  0  0
  6 17  1  0  0  0  0
  7 10  1  0  0  0  0
  7 20  1  0  0  0  0
  8 11  2  0  0  0  0
  8 21  1  0  0  0  0
  9 10  2  0  0  0  0
  9 11  1  0  0  0  0
 10 22  1  0  0  0  0
 11 23  1  0  0  0  0
 12 14  1  0  0  0  0
 12 24  1  0  0  0  0
 13 15  2  0  0  0  0
 13 25  1  0  0  0  0
 14 16  2  0  0  0  0
 14 26  1  0  0  0  0
 15 16  1  0  0  0  0
 15 27  1  0  0  0  0
 16 28  1  0  0  0  0
 18 29  1  0  0  0  0
 18 30  1  0  0  0  0
 18 31  1  0  0  0  0
M  END
> <PUBCHEM_COMPOUND_CID>
5376824

> <PUBCHEM_CONFORMER_RMSD>
0.6

> <PUBCHEM_CONFORMER_DIVERSEORDER>
1
6
5
2
3
4

> <PUBCHEM_MMFF94_PARTIAL_CHARGES>
28
1 -0.36
10 -0.15
11 -0.15
12 -0.15
13 -0.15
14 -0.15
15 -0.15
16 -0.15
17 0.49
18 0.28
19 0.15
2 -0.56
20 0.15
21 0.15
22 0.15
23 0.15
24 0.15
25 0.15
26 0.15
27 0.15
28 0.15
3 0.03
4 0.03
5 -0.18
6 0.04
7 -0.15
8 -0.15
9 0.08

> <PUBCHEM_EFFECTIVE_ROTOR_COUNT>
3

> <PUBCHEM_PHARMACOPHORE_FEATURES>
4
1 1 acceptor
1 2 acceptor
6 3 7 8 9 10 11 rings
6 4 12 13 14 15 16 rings

> <PUBCHEM_HEAVY_ATOM_COUNT>
18

> <PUBCHEM_ATOM_DEF_STEREO_COUNT>
0

> <PUBCHEM_ATOM_UDEF_STEREO_COUNT>
0

> <PUBCHEM_BOND_DEF_STEREO_COUNT>
1

> <PUBCHEM_BOND_UDEF_STEREO_COUNT>
0

> <PUBCHEM_ISOTOPIC_ATOM_COUNT>
0

> <PUBCHEM_COMPONENT_COUNT>
1

> <PUBCHEM_CACTVS_TAUTO_COUNT>
1

> <PUBCHEM_CONFORMER_ID>
00520B3800000001

> <PUBCHEM_MMFF94_ENERGY>
63.532

> <PUBCHEM_FEATURE_SELFOVERLAP>
20.297

> <PUBCHEM_SHAPE_FINGERPRINT>
11315181 36 17775288269872012624
11370993 70 18343018908747297839
12107183 9 17621606012100671035
12166972 35 17704354385909324712
12236239 1 17489587861712887580
128620 24 15770062730519050605
13167823 11 18342736338374318719
13288520 33 18272089400880581967
13533116 47 16343706487668609278
15099037 51 16153428354743586342
15788980 27 18272933842700497615
17834072 33 18343021120602343876
18186145 218 17530678844657707453
187816 3 17531247257519398301
19489759 90 17988924453085905177
200 152 17775567537209126805
20645477 70 18271247119034181566
21267235 1 18342746229615299671
21618674 57 17967533463221364424
21709351 56 18412820300308003740
23402539 116 18114178631504802309
23536379 177 18342175553057800129
23557571 272 17703794682629542385
23559900 14 18201432597093046929
26918003 58 17489587869960119135
351380 180 18408602573835736132
3545911 37 18342176657186246245
4214541 1 18342457032688356333
474 4 17895757429854076589
5104073 3 18343303703448339843
542803 24 17749111097159299628
59755656 215 17895468138057791287
59755656 520 17312823775694420723
633830 44 17749107811857490669
67856867 119 18272083967499655980
69090 78 18335700563679091975
7495541 125 17203040919731494851
77779 3 18342739628593372597
9709674 26 18343591754331814471
9971528 1 18114461244985827036
9981440 41 17254556518190457473

> <PUBCHEM_SHAPE_MULTIPOLES>
359.58
12.33
1.34
1.21
3.58
0.09
1.12
-1.46
-2.48
-0.08
-0.2
-0.34
-0.07
-0.1

> <PUBCHEM_SHAPE_SELFOVERLAP>
771.887

> <PUBCHEM_SHAPE_VOLUME>
196.5

> <PUBCHEM_COORDINATE_TYPE>
2
5
10

$$$$
