8689
  -OEChem-11012401023D

 26 27  0     0  0  0  0  0  0999 V2000
    1.0374   -1.0319    0.0055 N   0  0  0  0  0  0  0  0  0  0  0  0
   -1.0454   -1.1674    0.0064 N   0  0  0  0  0  0  0  0  0  0  0  0
   -0.1116   -0.3363    0.0017 N   0  0  0  0  0  0  0  0  0  0  0  0
    2.2801   -0.3843    0.0019 C   0  0  0  0  0  0  0  0  0  0  0  0
    3.4651   -1.1290    0.0010 C   0  0  0  0  0  0  0  0  0  0  0  0
    2.3482    1.0135   -0.0005 C   0  0  0  0  0  0  0  0  0  0  0  0
   -2.2764   -0.5038    0.0029 C   0  0  0  0  0  0  0  0  0  0  0  0
    4.7020   -0.4842   -0.0020 C   0  0  0  0  0  0  0  0  0  0  0  0
    3.5853    1.6581   -0.0035 C   0  0  0  0  0  0  0  0  0  0  0  0
    4.7621    0.9092   -0.0042 C   0  0  0  0  0  0  0  0  0  0  0  0
   -2.8902   -0.1796   -1.2070 C   0  0  0  0  0  0  0  0  0  0  0  0
   -2.8902   -0.1655    1.2089 C   0  0  0  0  0  0  0  0  0  0  0  0
   -4.1175    0.4831   -1.2110 C   0  0  0  0  0  0  0  0  0  0  0  0
   -4.1177    0.4970    1.2049 C   0  0  0  0  0  0  0  0  0  0  0  0
   -4.7313    0.8212   -0.0050 C   0  0  0  0  0  0  0  0  0  0  0  0
    3.4334   -2.2158    0.0029 H   0  0  0  0  0  0  0  0  0  0  0  0
    1.4520    1.6285    0.0002 H   0  0  0  0  0  0  0  0  0  0  0  0
    5.6184   -1.0671   -0.0025 H   0  0  0  0  0  0  0  0  0  0  0  0
    3.6327    2.7433   -0.0053 H   0  0  0  0  0  0  0  0  0  0  0  0
    5.7252    1.4112   -0.0066 H   0  0  0  0  0  0  0  0  0  0  0  0
   -2.4203   -0.4394   -2.1521 H   0  0  0  0  0  0  0  0  0  0  0  0
   -2.4204   -0.4143    2.1569 H   0  0  0  0  0  0  0  0  0  0  0  0
    1.0055   -2.0440    0.0087 H   0  0  0  0  0  0  0  0  0  0  0  0
   -4.5954    0.7355   -2.1531 H   0  0  0  0  0  0  0  0  0  0  0  0
   -4.5958    0.7603    2.1439 H   0  0  0  0  0  0  0  0  0  0  0  0
   -5.6871    1.3370   -0.0080 H   0  0  0  0  0  0  0  0  0  0  0  0
  1  3  1  0  0  0  0
  1  4  1  0  0  0  0
  1 23  1  0  0  0  0
  2  3  2  0  0  0  0
  2  7  1  0  0  0  0
  4  5  2  0  0  0  0
  4  6  1  0  0  0  0
  5  8  1  0  0  0  0
  5 16  1  0  0  0  0
  6  9  2  0  0  0  0
  6 17  1  0  0  0  0
  7 11  2  0  0  0  0
  7 12  1  0  0  0  0
  8 10  2  0  0  0  0
  8 18  1  0  0  0  0
  9 10  1  0  0  0  0
  9 19  1  0  0  0  0
 10 20  1  0  0  0  0
 11 13  1  0  0  0  0
 11 21  1  0  0  0  0
 12 14  2  0  0  0  0
 12 22  1  0  0  0  0
 13 15  2  0  0  0  0
 13 24  1  0  0  0  0
 14 15  1  0  0  0  0
 14 25  1  0  0  0  0
 15 26  1  0  0  0  0
M  END
> <PUBCHEM_COMPOUND_CID>
8689

> <PUBCHEM_CONFORMER_RMSD>
0.6

> <PUBCHEM_CONFORMER_DIVERSEORDER>
1
6
7
3
4
2
5

> <PUBCHEM_MMFF94_PARTIAL_CHARGES>
26
1 -0.46
10 -0.15
11 -0.15
12 -0.15
13 -0.15
14 -0.15
15 -0.15
16 0.15
17 0.15
18 0.15
19 0.15
2 -0.18
20 0.15
21 0.15
22 0.15
23 0.4
24 0.15
25 0.15
26 0.15
3 -0.04
4 0.1
5 -0.15
6 -0.15
7 0.18
8 -0.15
9 -0.15

> <PUBCHEM_EFFECTIVE_ROTOR_COUNT>
3

> <PUBCHEM_PHARMACOPHORE_FEATURES>
3
1 1 donor
6 4 5 6 8 9 10 rings
6 7 11 12 13 14 15 rings

> <PUBCHEM_HEAVY_ATOM_COUNT>
15

> <PUBCHEM_ATOM_DEF_STEREO_COUNT>
0

> <PUBCHEM_ATOM_UDEF_STEREO_COUNT>
0

> <PUBCHEM_BOND_DEF_STEREO_COUNT>
0

> <PUBCHEM_BOND_UDEF_STEREO_COUNT>
0

> <PUBCHEM_ISOTOPIC_ATOM_COUNT>
0

> <PUBCHEM_COMPONENT_COUNT>
1

> <PUBCHEM_CACTVS_TAUTO_COUNT>
1

> <PUBCHEM_CONFORMER_ID>
000021F100000001

> <PUBCHEM_MMFF94_ENERGY>
43.3776

> <PUBCHEM_FEATURE_SELFOVERLAP>
15.223

> <PUBCHEM_SHAPE_FINGERPRINT>
10014705 185 18334571369558577223
10680689 15 17603587439136379323
11089746 13 17704067417859125512
11471102 20 18411980265530468014
12236239 1 17775283850435151919
12596602 18 14273741763205412052
13675066 3 17603588529831134690
14252887 29 11963381926202386944
17834072 33 18202278143210194279
17870717 6 14045747036517637509
18186145 218 18408325492795185594
19433438 15 17703790323026311653
19489759 90 15554447379304399275
200 152 17775563139247037653
20300324 65 16845570924734436185
20325693 3 15698002938175070965
20432913 95 8790887393012190004
20645477 56 17967250901322580551
20645477 70 18411417268095685838
21033648 29 18041265621668355413
212847 35 18334577945422669068
231179 274 18260544520051364458
23402539 116 16845571998228457192
23402655 69 18272932760848760980
23403322 49 11527952253080646965
23559900 14 16299227891380394115
300161 21 17775279465531875650
3268164 11 15769773520744174577
3545911 37 18410296929796457810
474 4 18342459239853192346
4921388 177 15267341859957471213
5104073 3 18336261349143063706
542803 24 17918276449944712155
5924683 9 17459195234544976291
602551 16 15792023319500256256
633830 44 18201729417972387382
90127 26 17749111084263971316
9971528 1 17988642965836144278

> <PUBCHEM_SHAPE_MULTIPOLES>
293.75
11.82
1.27
1.01
1.25
0.19
0
2.96
-0.02
1.11
0
-1.43
0.06
-0.01

> <PUBCHEM_SHAPE_SELFOVERLAP>
626.814

> <PUBCHEM_SHAPE_VOLUME>
162.7

> <PUBCHEM_COORDINATE_TYPE>
2
5
10

$$$$
