142662
  -OEChem-11012401263D

 19 18  0     0  0  0  0  0  0999 V2000
    1.0249    0.0096    0.3391 O   0  0  0  0  0  0  0  0  0  0  0  0
    0.1248   -0.8346   -1.6174 O   0  0  0  0  0  0  0  0  0  0  0  0
    2.3170    0.0819   -0.2721 C   0  0  0  0  0  0  0  0  0  0  0  0
    3.3081    0.6285    0.7332 C   0  0  0  0  0  0  0  0  0  0  0  0
   -1.2442   -0.4384    0.3018 C   0  0  0  0  0  0  0  0  0  0  0  0
    0.0293   -0.4677   -0.4555 C   0  0  0  0  0  0  0  0  0  0  0  0
   -2.1218    0.7148    0.3195 C   0  0  0  0  0  0  0  0  0  0  0  0
   -1.5264   -1.5699    0.9643 C   0  0  0  0  0  0  0  0  0  0  0  0
   -1.9118    1.8758   -0.3129 C   0  0  0  0  0  0  0  0  0  0  0  0
    2.6267   -0.9197   -0.5907 H   0  0  0  0  0  0  0  0  0  0  0  0
    2.2714    0.7432   -1.1446 H   0  0  0  0  0  0  0  0  0  0  0  0
    4.3090    0.6974    0.2980 H   0  0  0  0  0  0  0  0  0  0  0  0
    3.0017    1.6228    1.0748 H   0  0  0  0  0  0  0  0  0  0  0  0
    3.3512   -0.0128    1.6196 H   0  0  0  0  0  0  0  0  0  0  0  0
   -3.0348    0.6210    0.9045 H   0  0  0  0  0  0  0  0  0  0  0  0
   -0.8615   -2.4282    0.9398 H   0  0  0  0  0  0  0  0  0  0  0  0
   -2.4332   -1.6720    1.5528 H   0  0  0  0  0  0  0  0  0  0  0  0
   -2.6371    2.6788   -0.2321 H   0  0  0  0  0  0  0  0  0  0  0  0
   -1.0298    2.0575   -0.9171 H   0  0  0  0  0  0  0  0  0  0  0  0
  1  3  1  0  0  0  0
  1  6  1  0  0  0  0
  2  6  2  0  0  0  0
  3  4  1  0  0  0  0
  3 10  1  0  0  0  0
  3 11  1  0  0  0  0
  4 12  1  0  0  0  0
  4 13  1  0  0  0  0
  4 14  1  0  0  0  0
  5  6  1  0  0  0  0
  5  7  1  0  0  0  0
  5  8  2  0  0  0  0
  7  9  2  0  0  0  0
  7 15  1  0  0  0  0
  8 16  1  0  0  0  0
  8 17  1  0  0  0  0
  9 18  1  0  0  0  0
  9 19  1  0  0  0  0
M  END
> <PUBCHEM_COMPOUND_CID>
142662

> <PUBCHEM_CONFORMER_RMSD>
0.6

> <PUBCHEM_CONFORMER_DIVERSEORDER>
1
22
20
7
29
23
30
33
16
26
13
32
8
19
21
25
6
2
28
4
9
27
10
18
5
3
11
24
14
31
15
17
12

> <PUBCHEM_MMFF94_PARTIAL_CHARGES>
13
1 -0.43
15 0.15
16 0.15
17 0.15
18 0.15
19 0.15
2 -0.57
3 0.28
5 0.01
6 0.71
7 -0.15
8 -0.3
9 -0.3

> <PUBCHEM_EFFECTIVE_ROTOR_COUNT>
4

> <PUBCHEM_PHARMACOPHORE_FEATURES>
3
1 2 acceptor
1 8 hydrophobe
1 9 hydrophobe

> <PUBCHEM_HEAVY_ATOM_COUNT>
9

> <PUBCHEM_ATOM_DEF_STEREO_COUNT>
0

> <PUBCHEM_ATOM_UDEF_STEREO_COUNT>
0

> <PUBCHEM_BOND_DEF_STEREO_COUNT>
0

> <PUBCHEM_BOND_UDEF_STEREO_COUNT>
0

> <PUBCHEM_ISOTOPIC_ATOM_COUNT>
0

> <PUBCHEM_COMPONENT_COUNT>
1

> <PUBCHEM_CACTVS_TAUTO_COUNT>
1

> <PUBCHEM_CONFORMER_ID>
00022D4600000001

> <PUBCHEM_MMFF94_ENERGY>
15.9891

> <PUBCHEM_FEATURE_SELFOVERLAP>
15.223

> <PUBCHEM_SHAPE_FINGERPRINT>
12932764 1 17917428795874328944
13839132 238 18193848045762928293
14390081 3 18271523117705783464
20645464 45 18410013200120146370
20653085 51 17488747765830455329
21028194 46 18271244915409788680
21040471 1 17898311415145097839
23211744 41 18268713796977591205
23402539 116 18410282636720270911
3248919 1 18114176467210478518
369184 2 18334289894312802282
5084963 1 17988930023558378226
54338 74 17968656141723328213

> <PUBCHEM_SHAPE_MULTIPOLES>
173.48
4.05
1.53
1.06
3.62
0.24
-0.32
1.34
1.18
-1.32
0.16
0.15
-0.25
0.42

> <PUBCHEM_SHAPE_SELFOVERLAP>
327.42

> <PUBCHEM_SHAPE_VOLUME>
107.9

> <PUBCHEM_COORDINATE_TYPE>
2
5
10

$$$$
