145138
  -OEChem-11012400323D

 47 49  0     0  0  0  0  0  0999 V2000
    3.7212    0.4797   -0.8496 O   0  0  0  0  0  0  0  0  0  0  0  0
   -7.7742    0.2081    0.5951 O   0  0  0  0  0  0  0  0  0  0  0  0
    1.8860   -3.1568   -0.7157 O   0  0  0  0  0  0  0  0  0  0  0  0
   -1.8261    0.3220   -0.7163 N   0  0  0  0  0  0  0  0  0  0  0  0
   -2.2279    0.3415    0.4709 N   0  0  0  0  0  0  0  0  0  0  0  0
    4.3682    1.1673    0.2188 C   0  0  0  0  0  0  0  0  0  0  0  0
    2.3597    0.4253   -0.8162 C   0  0  0  0  0  0  0  0  0  0  0  0
    5.7293    0.5725    0.4310 C   0  0  0  0  0  0  0  0  0  0  0  0
    1.6933   -0.7993   -0.7700 C   0  0  0  0  0  0  0  0  0  0  0  0
    1.6318    1.6153   -0.8285 C   0  0  0  0  0  0  0  0  0  0  0  0
   -0.4284    0.3563   -0.7485 C   0  0  0  0  0  0  0  0  0  0  0  0
    0.2992   -0.8338   -0.7362 C   0  0  0  0  0  0  0  0  0  0  0  0
    0.2379    1.5808   -0.7946 C   0  0  0  0  0  0  0  0  0  0  0  0
    5.8869   -0.4874    1.3171 C   0  0  0  0  0  0  0  0  0  0  0  0
    6.8207    1.0863   -0.2606 C   0  0  0  0  0  0  0  0  0  0  0  0
    7.1521   -1.0405    1.5143 C   0  0  0  0  0  0  0  0  0  0  0  0
    8.0859    0.5329   -0.0633 C   0  0  0  0  0  0  0  0  0  0  0  0
   -3.6325    0.3073    0.5038 C   0  0  0  0  0  0  0  0  0  0  0  0
   -6.4137    0.2407    0.5649 C   0  0  0  0  0  0  0  0  0  0  0  0
    8.2515   -0.5305    0.8241 C   0  0  0  0  0  0  0  0  0  0  0  0
   -4.2928   -0.9164    0.5499 C   0  0  0  0  0  0  0  0  0  0  0  0
   -4.3522    1.4980    0.4880 C   0  0  0  0  0  0  0  0  0  0  0  0
   -5.6869   -0.9498    0.5804 C   0  0  0  0  0  0  0  0  0  0  0  0
   -5.7464    1.4647    0.5187 C   0  0  0  0  0  0  0  0  0  0  0  0
    2.4341   -2.0530   -0.7566 C   0  0  0  0  0  0  0  0  0  0  0  0
   -8.4098   -0.9236    0.0027 C   0  0  0  0  0  0  0  0  0  0  0  0
   -9.7669   -0.5076   -0.5235 C   0  0  0  0  0  0  0  0  0  0  0  0
    3.7859    1.0990    1.1480 H   0  0  0  0  0  0  0  0  0  0  0  0
    4.4537    2.2310   -0.0357 H   0  0  0  0  0  0  0  0  0  0  0  0
    2.1360    2.5768   -0.8734 H   0  0  0  0  0  0  0  0  0  0  0  0
   -0.2347   -1.7808   -0.7013 H   0  0  0  0  0  0  0  0  0  0  0  0
   -0.3204    2.5133   -0.8075 H   0  0  0  0  0  0  0  0  0  0  0  0
    5.0366   -0.8944    1.8574 H   0  0  0  0  0  0  0  0  0  0  0  0
    6.7028    1.9129   -0.9558 H   0  0  0  0  0  0  0  0  0  0  0  0
    7.2810   -1.8692    2.2045 H   0  0  0  0  0  0  0  0  0  0  0  0
    8.9421    0.9296   -0.6012 H   0  0  0  0  0  0  0  0  0  0  0  0
    9.2366   -0.9616    0.9772 H   0  0  0  0  0  0  0  0  0  0  0  0
   -3.7336   -1.8481    0.5687 H   0  0  0  0  0  0  0  0  0  0  0  0
   -3.8402    2.4559    0.4523 H   0  0  0  0  0  0  0  0  0  0  0  0
   -6.1663   -1.9222    0.6440 H   0  0  0  0  0  0  0  0  0  0  0  0
   -6.3071    2.3953    0.5062 H   0  0  0  0  0  0  0  0  0  0  0  0
    3.5344   -1.9913   -0.7862 H   0  0  0  0  0  0  0  0  0  0  0  0
   -8.5299   -1.7062    0.7598 H   0  0  0  0  0  0  0  0  0  0  0  0
   -7.8353   -1.3173   -0.8451 H   0  0  0  0  0  0  0  0  0  0  0  0
   -9.6641    0.2848   -1.2723 H   0  0  0  0  0  0  0  0  0  0  0  0
  -10.3862   -0.1033    0.2841 H   0  0  0  0  0  0  0  0  0  0  0  0
  -10.2883   -1.3557   -0.9763 H   0  0  0  0  0  0  0  0  0  0  0  0
  1  6  1  0  0  0  0
  1  7  1  0  0  0  0
  2 19  1  0  0  0  0
  2 26  1  0  0  0  0
  3 25  2  0  0  0  0
  4  5  2  0  0  0  0
  4 11  1  0  0  0  0
  5 18  1  0  0  0  0
  6  8  1  0  0  0  0
  6 28  1  0  0  0  0
  6 29  1  0  0  0  0
  7  9  2  0  0  0  0
  7 10  1  0  0  0  0
  8 14  2  0  0  0  0
  8 15  1  0  0  0  0
  9 12  1  0  0  0  0
  9 25  1  0  0  0  0
 10 13  2  0  0  0  0
 10 30  1  0  0  0  0
 11 12  2  0  0  0  0
 11 13  1  0  0  0  0
 12 31  1  0  0  0  0
 13 32  1  0  0  0  0
 14 16  1  0  0  0  0
 14 33  1  0  0  0  0
 15 17  2  0  0  0  0
 15 34  1  0  0  0  0
 16 20  2  0  0  0  0
 16 35  1  0  0  0  0
 17 20  1  0  0  0  0
 17 36  1  0  0  0  0
 18 21  2  0  0  0  0
 18 22  1  0  0  0  0
 19 23  2  0  0  0  0
 19 24  1  0  0  0  0
 20 37  1  0  0  0  0
 21 23  1  0  0  0  0
 21 38  1  0  0  0  0
 22 24  2  0  0  0  0
 22 39  1  0  0  0  0
 23 40  1  0  0  0  0
 24 41  1  0  0  0  0
 25 42  1  0  0  0  0
 26 27  1  0  0  0  0
 26 43  1  0  0  0  0
 26 44  1  0  0  0  0
 27 45  1  0  0  0  0
 27 46  1  0  0  0  0
 27 47  1  0  0  0  0
M  END
> <PUBCHEM_COMPOUND_CID>
145138

> <PUBCHEM_CONFORMER_RMSD>
1

> <PUBCHEM_CONFORMER_DIVERSEORDER>
1
8
11
22
18
12
2
5
19
20
24
21
6
9
26
17
13
14
7
23
27
16
25
3
4
15
10

> <PUBCHEM_MMFF94_PARTIAL_CHARGES>
39
1 -0.36
10 -0.15
11 0.18
12 -0.15
13 -0.15
14 -0.15
15 -0.15
16 -0.15
17 -0.15
18 0.18
19 0.08
2 -0.36
20 -0.15
21 -0.15
22 -0.15
23 -0.15
24 -0.15
25 0.42
26 0.28
3 -0.57
30 0.15
31 0.15
32 0.15
33 0.15
34 0.15
35 0.15
36 0.15
37 0.15
38 0.15
39 0.15
4 -0.18
40 0.15
41 0.15
42 0.06
5 -0.18
6 0.42
7 0.08
8 -0.14
9 0.09

> <PUBCHEM_EFFECTIVE_ROTOR_COUNT>
8

> <PUBCHEM_PHARMACOPHORE_FEATURES>
6
1 1 acceptor
1 2 acceptor
1 3 acceptor
6 18 19 21 22 23 24 rings
6 7 9 10 11 12 13 rings
6 8 14 15 16 17 20 rings

> <PUBCHEM_HEAVY_ATOM_COUNT>
27

> <PUBCHEM_ATOM_DEF_STEREO_COUNT>
0

> <PUBCHEM_ATOM_UDEF_STEREO_COUNT>
0

> <PUBCHEM_BOND_DEF_STEREO_COUNT>
0

> <PUBCHEM_BOND_UDEF_STEREO_COUNT>
0

> <PUBCHEM_ISOTOPIC_ATOM_COUNT>
0

> <PUBCHEM_COMPONENT_COUNT>
1

> <PUBCHEM_CACTVS_TAUTO_COUNT>
1

> <PUBCHEM_CONFORMER_ID>
000236F200000001

> <PUBCHEM_MMFF94_ENERGY>
87.3248

> <PUBCHEM_FEATURE_SELFOVERLAP>
30.448

> <PUBCHEM_SHAPE_FINGERPRINT>
10 15 18272089426629611288
10162869 55 18343015627945574127
10299344 5 18040436594802251192
106641 1 18272368685070693016
10670039 82 12823020793953442043
10883706 142 15841833348280783484
11115154 58 12757146857499384423
11638347 137 18260831488027671930
11646440 116 16917352545791483944
11719270 70 18411141333510528150
12592606 108 17749107820442111659
13073987 5 18200602389348852393
13383668 1 17822280271894777467
13540713 4 18050567344495340308
13540713 5 18053659467577181284
13692114 37 18343585157310001334
13885169 127 17022896827083534869
14123256 10 13110966426752795049
14216079 64 17240196617352981434
14251764 18 18187368735283006224
14251764 46 18411138043206454305
15183329 4 8142086476825639902
15301273 46 18412267203731933716
15690457 1 18186799196918084563
15728490 51 17917709137170013279
15840311 113 18260269690059604404
15849732 13 13334739042096668282
18335252 114 13398626139685486712
20105231 36 18262237717490086314
20735858 18 18413671309818378844
21150785 3 9511462225558873692
21304304 249 17749108877041398938
22224240 67 18342737433902026806
24893992 56 17775000232823765691
249057 3 11602825709398132209
2838139 119 14979951463487230664
28498 318 16877939443154666277
3178227 256 18411699902998104088
4093350 32 16916790635399678166
4173938 188 17346311661682652271
4340502 62 18131352999189162950
465052 167 17967254209138222012
5104073 3 18269568134966542985
5758199 1 18060139842802705806
59682541 35 18202562912242035985
9663363 56 14562527397398423772

> <PUBCHEM_SHAPE_MULTIPOLES>
528.08
28.66
1.79
1.1
20.51
0.73
0.09
2.76
8.13
-0.74
-0.35
-0.94
0.16
-0.86

> <PUBCHEM_SHAPE_SELFOVERLAP>
1136.21

> <PUBCHEM_SHAPE_VOLUME>
290.8

> <PUBCHEM_COORDINATE_TYPE>
2
5
10

$$$$
