34170
  -OEChem-11012400363D

 21 21  0     0  0  0  0  0  0999 V2000
    1.9556   -1.3154   -1.1880 O   0  0  0  0  0  0  0  0  0  0  0  0
    2.2591   -0.8330    1.0124 O   0  0  0  0  0  0  0  0  0  0  0  0
   -0.3126    0.7582   -0.2750 C   0  0  0  0  0  0  0  0  0  0  0  0
    0.6763    1.8341   -0.5848 C   0  0  0  0  0  0  0  0  0  0  0  0
    0.1033   -0.5409    0.0166 C   0  0  0  0  0  0  0  0  0  0  0  0
   -1.6720    1.0705   -0.2805 C   0  0  0  0  0  0  0  0  0  0  0  0
    1.1294    2.5807    0.6661 C   0  0  0  0  0  0  0  0  0  0  0  0
   -0.8402   -1.5277    0.3024 C   0  0  0  0  0  0  0  0  0  0  0  0
   -2.6155    0.0837    0.0053 C   0  0  0  0  0  0  0  0  0  0  0  0
   -2.1996   -1.2155    0.2967 C   0  0  0  0  0  0  0  0  0  0  0  0
    1.5162   -0.8947    0.0288 C   0  0  0  0  0  0  0  0  0  0  0  0
    1.5485    1.4344   -1.1144 H   0  0  0  0  0  0  0  0  0  0  0  0
    0.2297    2.5529   -1.2842 H   0  0  0  0  0  0  0  0  0  0  0  0
   -2.0110    2.0788   -0.5035 H   0  0  0  0  0  0  0  0  0  0  0  0
    0.2815    3.0523    1.1745 H   0  0  0  0  0  0  0  0  0  0  0  0
    1.8428    3.3665    0.3981 H   0  0  0  0  0  0  0  0  0  0  0  0
    1.6171    1.9094    1.3800 H   0  0  0  0  0  0  0  0  0  0  0  0
   -0.5284   -2.5437    0.5311 H   0  0  0  0  0  0  0  0  0  0  0  0
   -3.6740    0.3269    0.0015 H   0  0  0  0  0  0  0  0  0  0  0  0
   -2.9344   -1.9837    0.5194 H   0  0  0  0  0  0  0  0  0  0  0  0
    2.9079   -1.5507   -1.1707 H   0  0  0  0  0  0  0  0  0  0  0  0
  1 11  1  0  0  0  0
  1 21  1  0  0  0  0
  2 11  2  0  0  0  0
  3  4  1  0  0  0  0
  3  5  1  0  0  0  0
  3  6  2  0  0  0  0
  4  7  1  0  0  0  0
  4 12  1  0  0  0  0
  4 13  1  0  0  0  0
  5  8  2  0  0  0  0
  5 11  1  0  0  0  0
  6  9  1  0  0  0  0
  6 14  1  0  0  0  0
  7 15  1  0  0  0  0
  7 16  1  0  0  0  0
  7 17  1  0  0  0  0
  8 10  1  0  0  0  0
  8 18  1  0  0  0  0
  9 10  2  0  0  0  0
  9 19  1  0  0  0  0
 10 20  1  0  0  0  0
M  END
> <PUBCHEM_COMPOUND_CID>
34170

> <PUBCHEM_CONFORMER_RMSD>
0.4

> <PUBCHEM_CONFORMER_DIVERSEORDER>
1
4
8
2
3
7
9
5
6

> <PUBCHEM_MMFF94_PARTIAL_CHARGES>
15
1 -0.65
10 -0.15
11 0.63
14 0.15
18 0.15
19 0.15
2 -0.57
20 0.15
21 0.5
3 -0.14
4 0.14
5 0.09
6 -0.15
8 -0.15
9 -0.15

> <PUBCHEM_EFFECTIVE_ROTOR_COUNT>
2

> <PUBCHEM_PHARMACOPHORE_FEATURES>
5
1 1 acceptor
1 2 acceptor
1 7 hydrophobe
3 1 2 11 anion
6 3 5 6 8 9 10 rings

> <PUBCHEM_HEAVY_ATOM_COUNT>
11

> <PUBCHEM_ATOM_DEF_STEREO_COUNT>
0

> <PUBCHEM_ATOM_UDEF_STEREO_COUNT>
0

> <PUBCHEM_BOND_DEF_STEREO_COUNT>
0

> <PUBCHEM_BOND_UDEF_STEREO_COUNT>
0

> <PUBCHEM_ISOTOPIC_ATOM_COUNT>
0

> <PUBCHEM_COMPONENT_COUNT>
1

> <PUBCHEM_CACTVS_TAUTO_COUNT>
1

> <PUBCHEM_CONFORMER_ID>
0000857A00000001

> <PUBCHEM_MMFF94_ENERGY>
31.089

> <PUBCHEM_FEATURE_SELFOVERLAP>
25.429

> <PUBCHEM_SHAPE_FINGERPRINT>
12423570 1 16736921390070760559
12524768 44 18337959007733331087
161256 15 18191881212892341447
16945 1 18337392647691888743
21040471 1 17398952674092984718
23552423 10 17970072347033145007
241688 4 18052827939842754523
2748010 2 18261957478645681735
7364860 26 18199758105297994853

> <PUBCHEM_SHAPE_MULTIPOLES>
214.64
3.07
2.34
0.87
1.02
0.78
0.04
-0.32
-0.3
-1.24
-0.09
-0.37
-0.08
0.35

> <PUBCHEM_SHAPE_SELFOVERLAP>
445.333

> <PUBCHEM_SHAPE_VOLUME>
122.9

> <PUBCHEM_COORDINATE_TYPE>
2
5
10

$$$$
