73919
  -OEChem-11012400563D

 22 24  0     0  0  0  0  0  0999 V2000
   -0.0016    0.0086    0.0001 N   0  0  0  0  0  0  0  0  0  0  0  0
   -1.0722    2.0419    0.0000 N   0  0  0  0  0  0  0  0  0  0  0  0
   -2.4405    0.0997    0.0000 N   0  0  0  0  0  0  0  0  0  0  0  0
    1.3184    1.9722    0.0001 N   0  0  0  0  0  0  0  0  0  0  0  0
    2.3854   -0.1660   -0.0001 N   0  0  0  0  0  0  0  0  0  0  0  0
   -1.3635   -1.9262    0.0000 N   0  0  0  0  0  0  0  0  0  0  0  0
    1.1075   -2.0740   -0.0001 N   0  0  0  0  0  0  0  0  0  0  0  0
   -3.3740    2.2657   -0.0003 N   0  0  0  0  0  0  0  0  0  0  0  0
    3.6713    1.7658   -0.0002 N   0  0  0  0  0  0  0  0  0  0  0  0
   -0.2435   -3.9168   -0.0001 N   0  0  0  0  0  0  0  0  0  0  0  0
    0.1503    1.3942    0.0002 C   0  0  0  0  0  0  0  0  0  0  0  0
   -1.2557   -0.6240    0.0001 C   0  0  0  0  0  0  0  0  0  0  0  0
    1.1474   -0.7703    0.0001 C   0  0  0  0  0  0  0  0  0  0  0  0
   -2.3069    1.4058    0.0000 C   0  0  0  0  0  0  0  0  0  0  0  0
    2.4429    1.1486    0.0001 C   0  0  0  0  0  0  0  0  0  0  0  0
   -0.1654   -2.6250    0.0001 C   0  0  0  0  0  0  0  0  0  0  0  0
   -1.0639    3.0582    0.0000 H   0  0  0  0  0  0  0  0  0  0  0  0
   -3.2447    3.2714    0.0000 H   0  0  0  0  0  0  0  0  0  0  0  0
   -4.3270    1.9189   -0.0003 H   0  0  0  0  0  0  0  0  0  0  0  0
    4.5304    1.2270    0.0000 H   0  0  0  0  0  0  0  0  0  0  0  0
    3.7517    2.7768    0.0002 H   0  0  0  0  0  0  0  0  0  0  0  0
    0.7066   -4.3041   -0.0002 H   0  0  0  0  0  0  0  0  0  0  0  0
  1 11  1  0  0  0  0
  1 12  1  0  0  0  0
  1 13  1  0  0  0  0
  2 11  1  0  0  0  0
  2 14  1  0  0  0  0
  2 17  1  0  0  0  0
  3 12  1  0  0  0  0
  3 14  2  0  0  0  0
  4 11  2  0  0  0  0
  4 15  1  0  0  0  0
  5 13  1  0  0  0  0
  5 15  2  0  0  0  0
  6 12  2  0  0  0  0
  6 16  1  0  0  0  0
  7 13  2  0  0  0  0
  7 16  1  0  0  0  0
  8 14  1  0  0  0  0
  8 18  1  0  0  0  0
  8 19  1  0  0  0  0
  9 15  1  0  0  0  0
  9 20  1  0  0  0  0
  9 21  1  0  0  0  0
 10 16  2  0  0  0  0
 10 22  1  0  0  0  0
M  END
> <PUBCHEM_COMPOUND_CID>
73919

> <PUBCHEM_CONFORMER_RMSD>
0.4

> <PUBCHEM_CONFORMER_DIVERSEORDER>
1

> <PUBCHEM_MMFF94_PARTIAL_CHARGES>
22
1 -0.15
10 -0.85
11 0.55
12 0.71
13 0.71
14 0.55
15 0.71
16 0.87
17 0.4
18 0.4
19 0.4
2 -0.5
20 0.4
21 0.4
22 0.4
3 -0.66
4 -0.66
5 -0.66
6 -0.66
7 -0.66
8 -0.85
9 -0.85

> <PUBCHEM_EFFECTIVE_ROTOR_COUNT>
0.2

> <PUBCHEM_PHARMACOPHORE_FEATURES>
13
1 10 donor
1 2 donor
1 8 donor
1 9 donor
4 1 2 4 11 cation
4 1 3 6 12 cation
4 1 5 7 13 cation
4 2 3 8 14 cation
4 4 5 9 15 cation
4 6 7 10 16 cation
6 1 2 3 11 12 14 rings
6 1 4 5 11 13 15 rings
6 1 6 7 12 13 16 rings

> <PUBCHEM_HEAVY_ATOM_COUNT>
16

> <PUBCHEM_ATOM_DEF_STEREO_COUNT>
0

> <PUBCHEM_ATOM_UDEF_STEREO_COUNT>
0

> <PUBCHEM_BOND_DEF_STEREO_COUNT>
0

> <PUBCHEM_BOND_UDEF_STEREO_COUNT>
0

> <PUBCHEM_ISOTOPIC_ATOM_COUNT>
0

> <PUBCHEM_COMPONENT_COUNT>
1

> <PUBCHEM_CACTVS_TAUTO_COUNT>
10

> <PUBCHEM_CONFORMER_ID>
000120BF00000001

> <PUBCHEM_MMFF94_ENERGY>
47.9436

> <PUBCHEM_FEATURE_SELFOVERLAP>
66.506

> <PUBCHEM_SHAPE_FINGERPRINT>
1 1 18266177227657155053
10411042 1 17329711436731308294
10967382 1 17906452125848329767
13140716 1 18338234851712310034
13380535 76 18410568479008762860
13897977 150 18265332798812136581
14817 1 8730751721960350418
15042514 8 18120938575069028722
16945 1 18194401327776413188
193761 8 18410573972288089991
19591789 44 18410867537576613903
20510252 161 18199473331813034857
20645476 183 18042424537315356524
20645477 70 18047183052295788245
2334 1 18410573998036359530
23402539 116 17983571094232210631
23419403 2 16811206594798684966
241688 4 16753249008751803643
2748010 2 18409457963685259151
3071541 12 18051697637679121581
3071541 250 17475242297213579455
3091708 16 9194095886213393571
54173680 148 18049723211491023858
7364860 26 18051692135730764550
81228 2 18050286173886164163

> <PUBCHEM_SHAPE_MULTIPOLES>
279.46
3.98
3.74
0.56
0.77
3.23
0
-3.61
0
-0.74
0
0
0
0

> <PUBCHEM_SHAPE_SELFOVERLAP>
624.237

> <PUBCHEM_SHAPE_VOLUME>
132.8

> <PUBCHEM_COORDINATE_TYPE>
2
5
10

$$$$
