81762
  -OEChem-11012401003D

 16 15  0     0  0  0  0  0  0999 V2000
    0.0071   -0.0062    0.0129 N   0  0  0  0  0  0  0  0  0  0  0  0
    3.2067   -1.2217    0.4218 N   0  0  0  0  0  0  0  0  0  0  0  0
   -2.6882   -2.1190    0.4050 N   0  0  0  0  0  0  0  0  0  0  0  0
   -0.5295    3.3752    0.4127 N   0  0  0  0  0  0  0  0  0  0  0  0
    1.3309    0.3872   -0.4682 C   0  0  0  0  0  0  0  0  0  0  0  0
   -0.3169   -1.3608   -0.4329 C   0  0  0  0  0  0  0  0  0  0  0  0
   -1.0070    0.9405   -0.4498 C   0  0  0  0  0  0  0  0  0  0  0  0
    2.3765   -0.5121    0.0298 C   0  0  0  0  0  0  0  0  0  0  0  0
   -1.6409   -1.7821    0.0360 C   0  0  0  0  0  0  0  0  0  0  0  0
   -0.7387    2.2989    0.0327 C   0  0  0  0  0  0  0  0  0  0  0  0
    1.5990    1.3916   -0.1210 H   0  0  0  0  0  0  0  0  0  0  0  0
    1.3626    0.4109   -1.5655 H   0  0  0  0  0  0  0  0  0  0  0  0
    0.4002   -2.0897   -0.0385 H   0  0  0  0  0  0  0  0  0  0  0  0
   -0.2814   -1.4358   -1.5278 H   0  0  0  0  0  0  0  0  0  0  0  0
   -2.0026    0.6775   -0.0751 H   0  0  0  0  0  0  0  0  0  0  0  0
   -1.0702    0.9486   -1.5459 H   0  0  0  0  0  0  0  0  0  0  0  0
  1  5  1  0  0  0  0
  1  6  1  0  0  0  0
  1  7  1  0  0  0  0
  2  8  3  0  0  0  0
  3  9  3  0  0  0  0
  4 10  3  0  0  0  0
  5  8  1  0  0  0  0
  5 11  1  0  0  0  0
  5 12  1  0  0  0  0
  6  9  1  0  0  0  0
  6 13  1  0  0  0  0
  6 14  1  0  0  0  0
  7 10  1  0  0  0  0
  7 15  1  0  0  0  0
  7 16  1  0  0  0  0
M  END
> <PUBCHEM_COMPOUND_CID>
81762

> <PUBCHEM_CONFORMER_RMSD>
0.6

> <PUBCHEM_CONFORMER_DIVERSEORDER>
1
10
3
2
8
9
6
7
5
4

> <PUBCHEM_MMFF94_PARTIAL_CHARGES>
10
1 -0.81
10 0.36
2 -0.56
3 -0.56
4 -0.56
5 0.47
6 0.47
7 0.47
8 0.36
9 0.36

> <PUBCHEM_EFFECTIVE_ROTOR_COUNT>
3

> <PUBCHEM_PHARMACOPHORE_FEATURES>
4
1 1 cation
1 2 acceptor
1 3 acceptor
1 4 acceptor

> <PUBCHEM_HEAVY_ATOM_COUNT>
10

> <PUBCHEM_ATOM_DEF_STEREO_COUNT>
0

> <PUBCHEM_ATOM_UDEF_STEREO_COUNT>
0

> <PUBCHEM_BOND_DEF_STEREO_COUNT>
0

> <PUBCHEM_BOND_UDEF_STEREO_COUNT>
0

> <PUBCHEM_ISOTOPIC_ATOM_COUNT>
0

> <PUBCHEM_COMPONENT_COUNT>
1

> <PUBCHEM_CACTVS_TAUTO_COUNT>
1

> <PUBCHEM_CONFORMER_ID>
00013F6200000001

> <PUBCHEM_MMFF94_ENERGY>
17.0335

> <PUBCHEM_FEATURE_SELFOVERLAP>
20.297

> <PUBCHEM_SHAPE_FINGERPRINT>
1 1 17113538112939455332
11357001 24 18336541604027366834
19021347 4 17906452121479321168
20711985 344 18122656939918092782
20871998 184 18272367551426388310
21040471 1 17978797805060093852
23552449 1 18411697686214496796
305870 269 17113816852180292753
81228 2 18338517443385785553

> <PUBCHEM_SHAPE_MULTIPOLES>
185.87
3.38
3.32
0.69
2.18
2.83
-0.04
-2.83
0.59
-2.16
0.57
0.01
0
-0.01

> <PUBCHEM_SHAPE_SELFOVERLAP>
351.574

> <PUBCHEM_SHAPE_VOLUME>
109.3

> <PUBCHEM_COORDINATE_TYPE>
2
5
10

$$$$
