446937
  -OEChem-11012400523D

 13 12  0     1  0  0  0  0  0999 V2000
   -2.2425    1.1341   -0.0863 S   0  5  0  0  0  0  0  0  0  0  0  0
    1.4395    1.0853   -0.9312 O   0  0  0  0  0  0  0  0  0  0  0  0
    1.1517    0.5490    1.2530 O   0  0  0  0  0  0  0  0  0  0  0  0
    0.4245   -1.9746   -0.1174 N   0  0  0  0  0  0  0  0  0  0  0  0
   -0.1341   -0.6543   -0.4386 C   0  0  1  0  0  0  0  0  0  0  0  0
   -1.5047   -0.5147    0.2457 C   0  0  0  0  0  0  0  0  0  0  0  0
    0.8656    0.3752    0.0748 C   0  0  0  0  0  0  0  0  0  0  0  0
   -0.2313   -0.5664   -1.5273 H   0  0  0  0  0  0  0  0  0  0  0  0
   -1.3919   -0.6812    1.3256 H   0  0  0  0  0  0  0  0  0  0  0  0
   -2.1566   -1.3245   -0.1074 H   0  0  0  0  0  0  0  0  0  0  0  0
    0.5501   -2.0669    0.8899 H   0  0  0  0  0  0  0  0  0  0  0  0
    1.3482   -2.0702   -0.5374 H   0  0  0  0  0  0  0  0  0  0  0  0
    2.0883    1.7388   -0.5933 H   0  0  0  0  0  0  0  0  0  0  0  0
  1  6  1  0  0  0  0
  2  7  1  0  0  0  0
  2 13  1  0  0  0  0
  3  7  2  0  0  0  0
  4  5  1  0  0  0  0
  4 11  1  0  0  0  0
  4 12  1  0  0  0  0
  5  6  1  0  0  0  0
  5  7  1  0  0  0  0
  5  8  1  0  0  0  0
  6  9  1  0  0  0  0
  6 10  1  0  0  0  0
M  CHG  1   1  -1
M  END
> <PUBCHEM_COMPOUND_CID>
446937

> <PUBCHEM_CONFORMER_RMSD>
0.4

> <PUBCHEM_CONFORMER_DIVERSEORDER>
1
8
2
3
6
7
4
9
5

> <PUBCHEM_MMFF94_PARTIAL_CHARGES>
10
1 -1.05
11 0.36
12 0.36
13 0.5
2 -0.65
3 -0.57
4 -0.99
5 0.33
6 0.05
7 0.66

> <PUBCHEM_EFFECTIVE_ROTOR_COUNT>
2

> <PUBCHEM_PHARMACOPHORE_FEATURES>
5
1 2 acceptor
1 3 acceptor
1 4 cation
1 4 donor
3 2 3 7 anion

> <PUBCHEM_HEAVY_ATOM_COUNT>
7

> <PUBCHEM_ATOM_DEF_STEREO_COUNT>
1

> <PUBCHEM_ATOM_UDEF_STEREO_COUNT>
0

> <PUBCHEM_BOND_DEF_STEREO_COUNT>
0

> <PUBCHEM_BOND_UDEF_STEREO_COUNT>
0

> <PUBCHEM_ISOTOPIC_ATOM_COUNT>
0

> <PUBCHEM_COMPONENT_COUNT>
1

> <PUBCHEM_CACTVS_TAUTO_COUNT>
1

> <PUBCHEM_CONFORMER_ID>
0006D1D900000001

> <PUBCHEM_MMFF94_ENERGY>
9.2624

> <PUBCHEM_FEATURE_SELFOVERLAP>
25.431

> <PUBCHEM_SHAPE_FINGERPRINT>
137420 1 14726979456877757839
16714656 1 17905909302148392565
20096714 4 18335144214900455077
21040471 1 18341047509978055575
24536 1 18260264118927273637
5084963 1 18201167657925029087
5943 1 11625780058678935098

> <PUBCHEM_SHAPE_MULTIPOLES>
131.19
2.39
1.57
0.91
1.68
0.5
0.11
-0.81
-0.01
-0.39
-0.15
-0.27
-0.23
0.03

> <PUBCHEM_SHAPE_SELFOVERLAP>
230.575

> <PUBCHEM_SHAPE_VOLUME>
87.8

> <PUBCHEM_COORDINATE_TYPE>
2
5
10

$$$$
