143872
  -OEChem-11012401013D

 26 25  0     1  0  0  0  0  0999 V2000
   -4.1826    0.7407   -0.0038 Cl  0  0  0  0  0  0  0  0  0  0  0  0
   -0.4369   -0.3570   -0.3611 O   0  0  0  0  0  0  0  0  0  0  0  0
   -1.4540    1.4517    0.6398 O   0  0  0  0  0  0  0  0  0  0  0  0
    3.3454   -0.3535   -0.1778 C   0  0  0  0  0  0  0  0  0  0  0  0
    1.9123   -0.7951   -0.5160 C   0  0  0  0  0  0  0  0  0  0  0  0
    0.8397    0.1615   -0.0090 C   0  0  0  0  0  0  0  0  0  0  0  0
    3.6172    1.0300   -0.7735 C   0  0  0  0  0  0  0  0  0  0  0  0
    3.6069   -0.3276    1.3286 C   0  0  0  0  0  0  0  0  0  0  0  0
   -2.7905   -0.2958   -0.4140 C   0  0  1  0  0  0  0  0  0  0  0  0
   -1.5171    0.3942    0.0272 C   0  0  0  0  0  0  0  0  0  0  0  0
   -2.9402   -1.6491    0.2594 C   0  0  0  0  0  0  0  0  0  0  0  0
    4.0355   -1.0729   -0.6357 H   0  0  0  0  0  0  0  0  0  0  0  0
    1.7273   -1.7958   -0.1047 H   0  0  0  0  0  0  0  0  0  0  0  0
    1.8063   -0.9061   -1.6030 H   0  0  0  0  0  0  0  0  0  0  0  0
    0.8902    0.2591    1.0804 H   0  0  0  0  0  0  0  0  0  0  0  0
    0.9480    1.1494   -0.4676 H   0  0  0  0  0  0  0  0  0  0  0  0
    4.6827    1.2714   -0.6887 H   0  0  0  0  0  0  0  0  0  0  0  0
    3.0674    1.8237   -0.2578 H   0  0  0  0  0  0  0  0  0  0  0  0
    3.3574    1.0603   -1.8368 H   0  0  0  0  0  0  0  0  0  0  0  0
    3.0239    0.4460    1.8379 H   0  0  0  0  0  0  0  0  0  0  0  0
    4.6649   -0.1242    1.5273 H   0  0  0  0  0  0  0  0  0  0  0  0
    3.3633   -1.2942    1.7815 H   0  0  0  0  0  0  0  0  0  0  0  0
   -2.7794   -0.3934   -1.5038 H   0  0  0  0  0  0  0  0  0  0  0  0
   -3.8830   -2.1291   -0.0239 H   0  0  0  0  0  0  0  0  0  0  0  0
   -2.1276   -2.3249   -0.0285 H   0  0  0  0  0  0  0  0  0  0  0  0
   -2.9158   -1.5586    1.3513 H   0  0  0  0  0  0  0  0  0  0  0  0
  1  9  1  0  0  0  0
  2  6  1  0  0  0  0
  2 10  1  0  0  0  0
  3 10  2  0  0  0  0
  4  5  1  0  0  0  0
  4  7  1  0  0  0  0
  4  8  1  0  0  0  0
  4 12  1  0  0  0  0
  5  6  1  0  0  0  0
  5 13  1  0  0  0  0
  5 14  1  0  0  0  0
  6 15  1  0  0  0  0
  6 16  1  0  0  0  0
  7 17  1  0  0  0  0
  7 18  1  0  0  0  0
  7 19  1  0  0  0  0
  8 20  1  0  0  0  0
  8 21  1  0  0  0  0
  8 22  1  0  0  0  0
  9 10  1  0  0  0  0
  9 11  1  0  0  0  0
  9 23  1  0  0  0  0
 11 24  1  0  0  0  0
 11 25  1  0  0  0  0
 11 26  1  0  0  0  0
M  END
> <PUBCHEM_COMPOUND_CID>
143872

> <PUBCHEM_CONFORMER_RMSD>
0.6

> <PUBCHEM_CONFORMER_DIVERSEORDER>
1
102
51
116
11
69
112
53
4
68
100
94
35
64
30
84
78
74
107
48
92
24
65
50
3
49
62
88
93
60
87
5
83
77
28
63
99
56
33
27
106
96
23
72
34
13
95
10
98
108
61
66
44
31
25
73
76
75
6
14
91
36
39
29
80
37
20
109
47
19
15
90
97
2
22
81
85
41
43
12
21
71
52
101
18
32
38
26
114
67
59
57
79
86
45
54
58
89
82
7
111
16
104
17
113
46
115
105
55
103
42
110
9
40
8
70

> <PUBCHEM_MMFF94_PARTIAL_CHARGES>
6
1 -0.29
10 0.66
2 -0.43
3 -0.57
6 0.28
9 0.35

> <PUBCHEM_EFFECTIVE_ROTOR_COUNT>
5

> <PUBCHEM_PHARMACOPHORE_FEATURES>
2
1 3 acceptor
3 4 7 8 hydrophobe

> <PUBCHEM_HEAVY_ATOM_COUNT>
11

> <PUBCHEM_ATOM_DEF_STEREO_COUNT>
0

> <PUBCHEM_ATOM_UDEF_STEREO_COUNT>
1

> <PUBCHEM_BOND_DEF_STEREO_COUNT>
0

> <PUBCHEM_BOND_UDEF_STEREO_COUNT>
0

> <PUBCHEM_ISOTOPIC_ATOM_COUNT>
0

> <PUBCHEM_COMPONENT_COUNT>
1

> <PUBCHEM_CACTVS_TAUTO_COUNT>
1

> <PUBCHEM_CONFORMER_ID>
0002320000000001

> <PUBCHEM_MMFF94_ENERGY>
11.5554

> <PUBCHEM_FEATURE_SELFOVERLAP>
10.148

> <PUBCHEM_SHAPE_FINGERPRINT>
11062470 55 18113901554611350461
12932764 1 17385443198335185086
14325111 11 18335423477958432830
17834076 25 18272090483112217525
18186145 218 17749106694949748286
190213 19 18130790057508989510
19050596 39 18335135401727712562
20279233 1 17418089914503339070
20281407 28 17846781823145758111
20528008 55 17774999081360930519
22485316 2 17749105603764252343
22959321 105 18334013929969023543
23048698 100 17894632543754317512
23402539 116 18341321245371088030
23557571 272 18059301950491886236
23559900 14 18342461392075055998
3248919 1 18411981334523793582

> <PUBCHEM_SHAPE_MULTIPOLES>
216.51
8.31
1.28
0.91
0.28
0.11
-0.17
-0.43
-0.4
-0.65
-0.05
0.69
0
-0.45

> <PUBCHEM_SHAPE_SELFOVERLAP>
392.292

> <PUBCHEM_SHAPE_VOLUME>
140.2

> <PUBCHEM_COORDINATE_TYPE>
2
5
10

$$$$
