143420
  -OEChem-11012400413D

 41 44  0     1  0  0  0  0  0999 V2000
    0.6872    0.5236    0.7802 C   0  0  1  0  0  0  0  0  0  0  0  0
    1.5127    1.6884    1.3340 C   0  0  0  0  0  0  0  0  0  0  0  0
    1.5668   -0.7311    0.6736 C   0  0  0  0  0  0  0  0  0  0  0  0
   -0.5330    0.2528    1.6575 C   0  0  0  0  0  0  0  0  0  0  0  0
    2.6590    2.0325    0.3840 C   0  0  0  0  0  0  0  0  0  0  0  0
    2.9042   -0.4730    0.0240 C   0  0  0  0  0  0  0  0  0  0  0  0
    3.4359    0.8253   -0.0762 C   0  0  0  0  0  0  0  0  0  0  0  0
   -1.6000   -0.4957    0.9070 C   0  0  0  0  0  0  0  0  0  0  0  0
    3.6575   -1.5630   -0.4382 C   0  0  0  0  0  0  0  0  0  0  0  0
    4.6937    1.0106   -0.6701 C   0  0  0  0  0  0  0  0  0  0  0  0
   -2.6038    0.1695    0.1911 C   0  0  0  0  0  0  0  0  0  0  0  0
   -1.5499   -1.8862    0.9534 C   0  0  0  0  0  0  0  0  0  0  0  0
    4.9109   -1.3666   -1.0168 C   0  0  0  0  0  0  0  0  0  0  0  0
    5.4277   -0.0799   -1.1352 C   0  0  0  0  0  0  0  0  0  0  0  0
   -3.5798   -0.5929   -0.4938 C   0  0  0  0  0  0  0  0  0  0  0  0
   -2.6649    1.5715    0.1366 C   0  0  0  0  0  0  0  0  0  0  0  0
   -2.5096   -2.6359    0.2800 C   0  0  0  0  0  0  0  0  0  0  0  0
   -3.5187   -1.9948   -0.4392 C   0  0  0  0  0  0  0  0  0  0  0  0
   -4.5883    0.0692   -1.2129 C   0  0  0  0  0  0  0  0  0  0  0  0
   -3.6739    2.2125   -0.5828 C   0  0  0  0  0  0  0  0  0  0  0  0
   -4.6338    1.4630   -1.2563 C   0  0  0  0  0  0  0  0  0  0  0  0
    0.3591    0.8081   -0.2303 H   0  0  0  0  0  0  0  0  0  0  0  0
    1.9153    1.4225    2.3204 H   0  0  0  0  0  0  0  0  0  0  0  0
    0.8863    2.5775    1.4734 H   0  0  0  0  0  0  0  0  0  0  0  0
    1.0451   -1.4932    0.0839 H   0  0  0  0  0  0  0  0  0  0  0  0
    1.7580   -1.1493    1.6703 H   0  0  0  0  0  0  0  0  0  0  0  0
   -0.9358    1.1762    2.0873 H   0  0  0  0  0  0  0  0  0  0  0  0
   -0.2393   -0.3234    2.5467 H   0  0  0  0  0  0  0  0  0  0  0  0
    3.3308    2.7387    0.8865 H   0  0  0  0  0  0  0  0  0  0  0  0
    2.2548    2.5352   -0.5037 H   0  0  0  0  0  0  0  0  0  0  0  0
    3.2686   -2.5745   -0.3489 H   0  0  0  0  0  0  0  0  0  0  0  0
    5.1084    2.0106   -0.7728 H   0  0  0  0  0  0  0  0  0  0  0  0
   -0.7782   -2.4049    1.5158 H   0  0  0  0  0  0  0  0  0  0  0  0
    5.4830   -2.2175   -1.3748 H   0  0  0  0  0  0  0  0  0  0  0  0
    6.4020    0.0752   -1.5894 H   0  0  0  0  0  0  0  0  0  0  0  0
   -1.9363    2.2114    0.6241 H   0  0  0  0  0  0  0  0  0  0  0  0
   -2.4750   -3.7209    0.3158 H   0  0  0  0  0  0  0  0  0  0  0  0
   -4.2587   -2.6011   -0.9576 H   0  0  0  0  0  0  0  0  0  0  0  0
   -5.3488   -0.4966   -1.7471 H   0  0  0  0  0  0  0  0  0  0  0  0
   -3.7078    3.2975   -0.6210 H   0  0  0  0  0  0  0  0  0  0  0  0
   -5.4182    1.9628   -1.8170 H   0  0  0  0  0  0  0  0  0  0  0  0
  1  2  1  0  0  0  0
  1  3  1  0  0  0  0
  1  4  1  0  0  0  0
  1 22  1  0  0  0  0
  2  5  1  0  0  0  0
  2 23  1  0  0  0  0
  2 24  1  0  0  0  0
  3  6  1  0  0  0  0
  3 25  1  0  0  0  0
  3 26  1  0  0  0  0
  4  8  1  0  0  0  0
  4 27  1  0  0  0  0
  4 28  1  0  0  0  0
  5  7  1  0  0  0  0
  5 29  1  0  0  0  0
  5 30  1  0  0  0  0
  6  7  1  0  0  0  0
  6  9  2  0  0  0  0
  7 10  2  0  0  0  0
  8 11  1  0  0  0  0
  8 12  2  0  0  0  0
  9 13  1  0  0  0  0
  9 31  1  0  0  0  0
 10 14  1  0  0  0  0
 10 32  1  0  0  0  0
 11 15  1  0  0  0  0
 11 16  2  0  0  0  0
 12 17  1  0  0  0  0
 12 33  1  0  0  0  0
 13 14  2  0  0  0  0
 13 34  1  0  0  0  0
 14 35  1  0  0  0  0
 15 18  1  0  0  0  0
 15 19  2  0  0  0  0
 16 20  1  0  0  0  0
 16 36  1  0  0  0  0
 17 18  2  0  0  0  0
 17 37  1  0  0  0  0
 18 38  1  0  0  0  0
 19 21  1  0  0  0  0
 19 39  1  0  0  0  0
 20 21  2  0  0  0  0
 20 40  1  0  0  0  0
 21 41  1  0  0  0  0
M  END
> <PUBCHEM_COMPOUND_CID>
143420

> <PUBCHEM_CONFORMER_RMSD>
0.6

> <PUBCHEM_CONFORMER_DIVERSEORDER>
1
13
20
26
17
28
18
2
27
22
19
3
24
12
21
23
25
15
11
7
8
10
9
6
16
14
29
30
4
5

> <PUBCHEM_MMFF94_PARTIAL_CHARGES>
28
10 -0.15
12 -0.15
13 -0.15
14 -0.15
16 -0.15
17 -0.15
18 -0.15
19 -0.15
20 -0.15
21 -0.15
3 0.14
31 0.15
32 0.15
33 0.15
34 0.15
35 0.15
36 0.15
37 0.15
38 0.15
39 0.15
4 0.14
40 0.15
41 0.15
5 0.14
6 -0.14
7 -0.14
8 -0.14
9 -0.15

> <PUBCHEM_EFFECTIVE_ROTOR_COUNT>
2.8

> <PUBCHEM_PHARMACOPHORE_FEATURES>
4
6 1 2 3 5 6 7 rings
6 11 15 16 19 20 21 rings
6 6 7 9 10 13 14 rings
6 8 11 12 15 17 18 rings

> <PUBCHEM_HEAVY_ATOM_COUNT>
21

> <PUBCHEM_ATOM_DEF_STEREO_COUNT>
0

> <PUBCHEM_ATOM_UDEF_STEREO_COUNT>
1

> <PUBCHEM_BOND_DEF_STEREO_COUNT>
0

> <PUBCHEM_BOND_UDEF_STEREO_COUNT>
0

> <PUBCHEM_ISOTOPIC_ATOM_COUNT>
0

> <PUBCHEM_COMPONENT_COUNT>
1

> <PUBCHEM_CACTVS_TAUTO_COUNT>
1

> <PUBCHEM_CONFORMER_ID>
0002303C00000001

> <PUBCHEM_MMFF94_ENERGY>
61.9216

> <PUBCHEM_FEATURE_SELFOVERLAP>
20.347

> <PUBCHEM_SHAPE_FINGERPRINT>
10 15 8934713363060864854
10498660 4 17749658632681148717
10730089 88 18413108355491089925
10764073 3 17760132529287758779
107951 10 18187366519634360731
11578080 2 13758060888720630259
12363563 72 16415479350305631528
12670546 177 18411702075750149284
12788726 201 17772754861948602993
12892183 10 9799692576156962034
13944108 23 16964622461698873717
13994607 96 16443070487083486157
14251740 79 18271529706443916185
14341114 328 12107798375557492981
14790565 3 17979924813169810657
14848178 5 15697996323392672764
15003188 33 18335145246093370620
15163728 17 17098036258119977469
15183329 4 18410291363476501380
16994733 274 14852700589660176591
17349148 13 15482673493832021564
17870717 6 18272097079928900263
1813 80 13973680663292049089
18186145 218 18413383242051045025
18222031 100 16272209670135179024
18608769 82 18115316690902371275
19784866 240 15769771368991685965
19862831 5 18411703175325100186
200 152 17203612587851335762
20645477 70 17560523997046125500
20775438 99 17051566777761880263
20775530 9 14975699845227363669
20871999 31 18411702075523276361
21120745 212 13266394558522863312
21650355 55 10375868598125590787
21756936 100 16443069391223345017
21864079 5 15357965733805406159
22122407 14 14562530635761444581
221357 26 18341891926582062015
221490 88 18270406130198757186
22182313 1 18199459055357223169
22393880 68 18410291436897484434
23402655 69 18260831475501394308
23557571 272 18043808899669192083
23559900 14 18343294903335007392
23596394 208 18343581876048840992
27216 239 11386359366174857675
3004659 81 18262800654057315730
312425 83 18114189648423120404
339767 52 17989202617170624214
392239 28 10015572917799592877
4028521 119 18113330908240266325
44062 13 18343581854242227991
46194498 28 18191311678611838596
4921388 177 17822300135965241923
5161694 15 18411698789841652785
5281201 14 18337956791350877716
5283173 99 18410008806569361448
59755656 520 18271815580089708209
633830 44 16588033428694156274
7399639 24 17550939725589829625
960060 61 18343303652473351204
9709674 26 18340200920384432571

> <PUBCHEM_SHAPE_MULTIPOLES>
432.17
11.48
2.46
1.3
6.03
0.35
-0.11
-0.42
6.41
-1.47
-0.04
-0.11
-0.14
1.21

> <PUBCHEM_SHAPE_SELFOVERLAP>
957.287

> <PUBCHEM_SHAPE_VOLUME>
217.3

> <PUBCHEM_COORDINATE_TYPE>
2
5
10

$$$$
