79102
  -OEChem-11012400403D

 18 17  0     0  0  0  0  0  0999 V2000
   -0.4584   -0.0001   -0.0041 Si  0  0  0  0  0  0  0  0  0  0  0  0
   -0.7013    1.5277    1.0589 C   0  0  0  0  0  0  0  0  0  0  0  0
   -0.6978   -1.5302    1.0563 C   0  0  0  0  0  0  0  0  0  0  0  0
   -1.7370    0.0003   -1.3785 C   0  0  0  0  0  0  0  0  0  0  0  0
    1.2292    0.0013   -0.7184 C   0  0  0  0  0  0  0  0  0  0  0  0
    2.3654    0.0010   -0.0142 C   0  0  0  0  0  0  0  0  0  0  0  0
   -1.7102    1.5448    1.4820 H   0  0  0  0  0  0  0  0  0  0  0  0
    0.0152    1.5450    1.8856 H   0  0  0  0  0  0  0  0  0  0  0  0
   -0.5640    2.4376    0.4669 H   0  0  0  0  0  0  0  0  0  0  0  0
   -0.5588   -2.4388    0.4628 H   0  0  0  0  0  0  0  0  0  0  0  0
    0.0186   -1.5474    1.8830 H   0  0  0  0  0  0  0  0  0  0  0  0
   -1.7066   -1.5502    1.4794 H   0  0  0  0  0  0  0  0  0  0  0  0
   -2.7490   -0.0008   -0.9626 H   0  0  0  0  0  0  0  0  0  0  0  0
   -1.6278    0.8877   -2.0091 H   0  0  0  0  0  0  0  0  0  0  0  0
   -1.6265   -0.8858   -2.0108 H   0  0  0  0  0  0  0  0  0  0  0  0
    1.2813    0.0025   -1.8024 H   0  0  0  0  0  0  0  0  0  0  0  0
    3.3226    0.0020   -0.5254 H   0  0  0  0  0  0  0  0  0  0  0  0
    2.3779   -0.0002    1.0709 H   0  0  0  0  0  0  0  0  0  0  0  0
  1  2  1  0  0  0  0
  1  3  1  0  0  0  0
  1  4  1  0  0  0  0
  1  5  1  0  0  0  0
  2  7  1  0  0  0  0
  2  8  1  0  0  0  0
  2  9  1  0  0  0  0
  3 10  1  0  0  0  0
  3 11  1  0  0  0  0
  3 12  1  0  0  0  0
  4 13  1  0  0  0  0
  4 14  1  0  0  0  0
  4 15  1  0  0  0  0
  5  6  2  0  0  0  0
  5 16  1  0  0  0  0
  6 17  1  0  0  0  0
  6 18  1  0  0  0  0
M  END
> <PUBCHEM_COMPOUND_CID>
79102

> <PUBCHEM_CONFORMER_RMSD>
0.4

> <PUBCHEM_CONFORMER_DIVERSEORDER>
1

> <PUBCHEM_MMFF94_PARTIAL_CHARGES>
9
1 0.47
16 0.15
17 0.15
18 0.15
2 -0.08
3 -0.08
4 -0.08
5 -0.38
6 -0.3

> <PUBCHEM_EFFECTIVE_ROTOR_COUNT>
1

> <PUBCHEM_PHARMACOPHORE_FEATURES>
0

> <PUBCHEM_HEAVY_ATOM_COUNT>
6

> <PUBCHEM_ATOM_DEF_STEREO_COUNT>
0

> <PUBCHEM_ATOM_UDEF_STEREO_COUNT>
0

> <PUBCHEM_BOND_DEF_STEREO_COUNT>
0

> <PUBCHEM_BOND_UDEF_STEREO_COUNT>
0

> <PUBCHEM_ISOTOPIC_ATOM_COUNT>
0

> <PUBCHEM_COMPONENT_COUNT>
1

> <PUBCHEM_CACTVS_TAUTO_COUNT>
1

> <PUBCHEM_CONFORMER_ID>
000134FE00000001

> <PUBCHEM_MMFF94_ENERGY>
1.3972

> <PUBCHEM_FEATURE_SELFOVERLAP>
0

> <PUBCHEM_SHAPE_FINGERPRINT>
137420 1 12993987254185421547
21040471 1 17905361479117422912
23552449 1 17275098388867504144
24536 1 18338536186976486844
29004967 10 17631722902092673991
5943 1 16524474054099786699

> <PUBCHEM_SHAPE_MULTIPOLES>
141.69
2.37
1.38
1.38
1.49
0.01
0.09
0
0.62
-0.47
-0.72
-0.61
0
0

> <PUBCHEM_SHAPE_SELFOVERLAP>
232.465

> <PUBCHEM_SHAPE_VOLUME>
98

> <PUBCHEM_COORDINATE_TYPE>
2
5
10

$$$$
