141316
  -OEChem-11012400473D

 18 19  0     0  0  0  0  0  0999 V2000
    2.5233   -0.5658   -0.6348 N   0  0  0  0  0  0  0  0  0  0  0  0
   -2.5233   -0.5658    0.6348 N   0  0  0  0  0  0  0  0  0  0  0  0
    1.3902    0.6467    0.9057 N   0  0  0  0  0  0  0  0  0  0  0  0
   -1.3902    0.6467   -0.9057 N   0  0  0  0  0  0  0  0  0  0  0  0
    3.0038    0.6724   -0.4531 N   0  0  0  0  0  0  0  0  0  0  0  0
   -3.0038    0.6724    0.4532 N   0  0  0  0  0  0  0  0  0  0  0  0
    2.3629    1.4268    0.4504 N   0  0  0  0  0  0  0  0  0  0  0  0
   -2.3628    1.4269   -0.4504 N   0  0  0  0  0  0  0  0  0  0  0  0
    0.6165   -1.6733    0.4575 C   0  0  0  0  0  0  0  0  0  0  0  0
   -0.6166   -1.6732   -0.4575 C   0  0  0  0  0  0  0  0  0  0  0  0
    1.5358   -0.5069    0.2328 C   0  0  0  0  0  0  0  0  0  0  0  0
   -1.5358   -0.5069   -0.2327 C   0  0  0  0  0  0  0  0  0  0  0  0
    0.2994   -1.6722    1.5081 H   0  0  0  0  0  0  0  0  0  0  0  0
    1.1749   -2.6047    0.3007 H   0  0  0  0  0  0  0  0  0  0  0  0
   -0.2995   -1.6721   -1.5081 H   0  0  0  0  0  0  0  0  0  0  0  0
   -1.1750   -2.6046   -0.3007 H   0  0  0  0  0  0  0  0  0  0  0  0
    3.8052    1.0187   -0.9698 H   0  0  0  0  0  0  0  0  0  0  0  0
   -3.8050    1.0187    0.9700 H   0  0  0  0  0  0  0  0  0  0  0  0
  1  5  1  0  0  0  0
  1 11  2  0  0  0  0
  2  6  1  0  0  0  0
  2 12  2  0  0  0  0
  3  7  2  0  0  0  0
  3 11  1  0  0  0  0
  4  8  2  0  0  0  0
  4 12  1  0  0  0  0
  5  7  1  0  0  0  0
  5 17  1  0  0  0  0
  6  8  1  0  0  0  0
  6 18  1  0  0  0  0
  9 10  1  0  0  0  0
  9 11  1  0  0  0  0
  9 13  1  0  0  0  0
  9 14  1  0  0  0  0
 10 12  1  0  0  0  0
 10 15  1  0  0  0  0
 10 16  1  0  0  0  0
M  END
> <PUBCHEM_COMPOUND_CID>
141316

> <PUBCHEM_CONFORMER_RMSD>
0.6

> <PUBCHEM_CONFORMER_DIVERSEORDER>
1
3
2
4
5

> <PUBCHEM_MMFF94_PARTIAL_CHARGES>
14
1 -0.71
10 0.18
11 0.34
12 0.34
17 0.27
18 0.27
2 -0.71
3 -0.23
4 -0.23
5 0.57
6 0.57
7 -0.42
8 -0.42
9 0.18

> <PUBCHEM_EFFECTIVE_ROTOR_COUNT>
3

> <PUBCHEM_PHARMACOPHORE_FEATURES>
4
3 1 3 11 cation
3 2 4 12 cation
5 1 3 5 7 11 rings
5 2 4 6 8 12 rings

> <PUBCHEM_HEAVY_ATOM_COUNT>
12

> <PUBCHEM_ATOM_DEF_STEREO_COUNT>
0

> <PUBCHEM_ATOM_UDEF_STEREO_COUNT>
0

> <PUBCHEM_BOND_DEF_STEREO_COUNT>
0

> <PUBCHEM_BOND_UDEF_STEREO_COUNT>
0

> <PUBCHEM_ISOTOPIC_ATOM_COUNT>
0

> <PUBCHEM_COMPONENT_COUNT>
1

> <PUBCHEM_CACTVS_TAUTO_COUNT>
3

> <PUBCHEM_CONFORMER_ID>
0002280400000001

> <PUBCHEM_MMFF94_ENERGY>
6.1451

> <PUBCHEM_FEATURE_SELFOVERLAP>
20.297

> <PUBCHEM_SHAPE_FINGERPRINT>
10857977 72 17603877714664453931
14390081 3 18410570678227099791
15775835 57 18410578387492949026
17844478 74 18262813972059427771
20653085 51 18342185500323507018
21028194 46 18409451383811354770
230 275 18341315730754256338
305870 269 18188475922439405170
369184 2 14345787249756620103
5084963 1 18411421734412877867
549884 4 17775278365656498073
81228 2 17834952344914937242

> <PUBCHEM_SHAPE_MULTIPOLES>
207.11
4.55
1.64
0.85
0
0.24
0
-1.78
0
0
0
0
-0.02
0.21

> <PUBCHEM_SHAPE_SELFOVERLAP>
436.358

> <PUBCHEM_SHAPE_VOLUME>
114.1

> <PUBCHEM_COORDINATE_TYPE>
2
5
10

$$$$
