27753
  -OEChem-11012400403D

 22 22  0     0  0  0  0  0  0999 V2000
    3.2993   -1.1542    0.9625 N   0  0  0  0  0  0  0  0  0  0  0  0
    0.3343   -0.0131   -0.4743 C   0  0  0  0  0  0  0  0  0  0  0  0
    0.0279    1.2831   -0.0600 C   0  0  0  0  0  0  0  0  0  0  0  0
   -1.9230   -0.7088    0.0331 C   0  0  0  0  0  0  0  0  0  0  0  0
   -0.6411   -1.0090   -0.4278 C   0  0  0  0  0  0  0  0  0  0  0  0
   -1.2539    1.5833    0.4011 C   0  0  0  0  0  0  0  0  0  0  0  0
   -2.2293    0.5874    0.4476 C   0  0  0  0  0  0  0  0  0  0  0  0
    1.6994   -0.3580   -0.9721 C   0  0  0  0  0  0  0  0  0  0  0  0
    1.0552    2.3662   -0.1009 C   0  0  0  0  0  0  0  0  0  0  0  0
   -2.9662   -1.7733    0.0831 C   0  0  0  0  0  0  0  0  0  0  0  0
    2.5974   -0.8036    0.1076 C   0  0  0  0  0  0  0  0  0  0  0  0
   -0.4045   -2.0215   -0.7470 H   0  0  0  0  0  0  0  0  0  0  0  0
   -1.5096    2.5880    0.7273 H   0  0  0  0  0  0  0  0  0  0  0  0
   -3.2238    0.8334    0.8102 H   0  0  0  0  0  0  0  0  0  0  0  0
    2.1511    0.4771   -1.5185 H   0  0  0  0  0  0  0  0  0  0  0  0
    1.6207   -1.1588   -1.7196 H   0  0  0  0  0  0  0  0  0  0  0  0
    1.9532    2.0804    0.4557 H   0  0  0  0  0  0  0  0  0  0  0  0
    1.3225    2.6050   -1.1353 H   0  0  0  0  0  0  0  0  0  0  0  0
    0.6835    3.2897    0.3575 H   0  0  0  0  0  0  0  0  0  0  0  0
   -2.8329   -2.4937   -0.7312 H   0  0  0  0  0  0  0  0  0  0  0  0
   -2.9128   -2.3069    1.0372 H   0  0  0  0  0  0  0  0  0  0  0  0
   -3.9706   -1.3501   -0.0254 H   0  0  0  0  0  0  0  0  0  0  0  0
  1 11  3  0  0  0  0
  2  3  2  0  0  0  0
  2  5  1  0  0  0  0
  2  8  1  0  0  0  0
  3  6  1  0  0  0  0
  3  9  1  0  0  0  0
  4  5  2  0  0  0  0
  4  7  1  0  0  0  0
  4 10  1  0  0  0  0
  5 12  1  0  0  0  0
  6  7  2  0  0  0  0
  6 13  1  0  0  0  0
  7 14  1  0  0  0  0
  8 11  1  0  0  0  0
  8 15  1  0  0  0  0
  8 16  1  0  0  0  0
  9 17  1  0  0  0  0
  9 18  1  0  0  0  0
  9 19  1  0  0  0  0
 10 20  1  0  0  0  0
 10 21  1  0  0  0  0
 10 22  1  0  0  0  0
M  END
> <PUBCHEM_COMPOUND_CID>
27753

> <PUBCHEM_CONFORMER_RMSD>
0.4

> <PUBCHEM_CONFORMER_DIVERSEORDER>
1
3
5
2
4

> <PUBCHEM_MMFF94_PARTIAL_CHARGES>
14
1 -0.56
10 0.14
11 0.36
12 0.15
13 0.15
14 0.15
2 -0.14
3 -0.14
4 -0.14
5 -0.15
6 -0.15
7 -0.15
8 0.34
9 0.14

> <PUBCHEM_EFFECTIVE_ROTOR_COUNT>
1

> <PUBCHEM_PHARMACOPHORE_FEATURES>
2
1 1 acceptor
6 2 3 4 5 6 7 rings

> <PUBCHEM_HEAVY_ATOM_COUNT>
11

> <PUBCHEM_ATOM_DEF_STEREO_COUNT>
0

> <PUBCHEM_ATOM_UDEF_STEREO_COUNT>
0

> <PUBCHEM_BOND_DEF_STEREO_COUNT>
0

> <PUBCHEM_BOND_UDEF_STEREO_COUNT>
0

> <PUBCHEM_ISOTOPIC_ATOM_COUNT>
0

> <PUBCHEM_COMPONENT_COUNT>
1

> <PUBCHEM_CACTVS_TAUTO_COUNT>
1

> <PUBCHEM_CONFORMER_ID>
00006C6900000001

> <PUBCHEM_MMFF94_ENERGY>
24.2793

> <PUBCHEM_FEATURE_SELFOVERLAP>
10.148

> <PUBCHEM_SHAPE_FINGERPRINT>
10857977 72 18273214175189611526
12382932 28 18268993094263613986
12423570 1 15541248090110600565
13024252 1 15358555020461427741
16945 1 18269570346574149445
19021347 11 17977387453622136812
20645477 70 18125162886412248623
20653085 51 10591756636407429698
20653091 64 18337679735900685496
20871998 184 18202281364256480710
21040471 1 17836947606473930997
21501502 16 18340212998154514445
21501925 9 18270113642751988451
21650355 55 18265037060269849426
23402539 116 18126550242247078165
23552423 10 18191597560251440101
2748010 2 18341900752776986645
369184 2 18262798454358242320
528862 383 18123750021852920444
53812654 25 17559953410514303623
54338 74 18409725127820389969
75552 356 18340768135256254946

> <PUBCHEM_SHAPE_MULTIPOLES>
221.39
4.19
2.14
0.83
0.74
0.94
0
-2.56
0.95
-0.02
0.15
0.34
-0.12
-0.43

> <PUBCHEM_SHAPE_SELFOVERLAP>
455.143

> <PUBCHEM_SHAPE_VOLUME>
127

> <PUBCHEM_COORDINATE_TYPE>
2
5
10

$$$$
