142582
  -OEChem-11012401203D

 40 44  0     1  0  0  0  0  0999 V2000
   -0.7135   -2.0400    0.3021 C   0  0  1  0  0  0  0  0  0  0  0  0
    0.7136   -2.0402   -0.3024 C   0  0  1  0  0  0  0  0  0  0  0  0
   -0.5579   -0.5069    0.5501 C   0  0  1  0  0  0  0  0  0  0  0  0
    0.5580   -0.5071   -0.5511 C   0  0  1  0  0  0  0  0  0  0  0  0
   -1.8483   -2.3851   -0.6642 C   0  0  0  0  0  0  0  0  0  0  0  0
    1.8481   -2.3850    0.6644 C   0  0  0  0  0  0  0  0  0  0  0  0
   -1.8685    0.3539    0.3234 C   0  0  0  0  0  0  0  0  0  0  0  0
    1.8688    0.3538   -0.3243 C   0  0  0  0  0  0  0  0  0  0  0  0
   -3.1586   -1.7760   -0.1596 C   0  0  0  0  0  0  0  0  0  0  0  0
    3.1585   -1.7760    0.1601 C   0  0  0  0  0  0  0  0  0  0  0  0
   -3.0917   -0.2674   -0.0326 C   0  0  0  0  0  0  0  0  0  0  0  0
    3.0916   -0.2675    0.0329 C   0  0  0  0  0  0  0  0  0  0  0  0
   -1.8808    1.7522    0.4826 C   0  0  0  0  0  0  0  0  0  0  0  0
    1.8812    1.7520   -0.4841 C   0  0  0  0  0  0  0  0  0  0  0  0
   -4.2597    0.4909   -0.2061 C   0  0  0  0  0  0  0  0  0  0  0  0
    4.2594    0.4910    0.2077 C   0  0  0  0  0  0  0  0  0  0  0  0
   -3.0414    2.5049    0.2939 C   0  0  0  0  0  0  0  0  0  0  0  0
    3.0416    2.5048   -0.2944 C   0  0  0  0  0  0  0  0  0  0  0  0
   -4.2309    1.8737   -0.0504 C   0  0  0  0  0  0  0  0  0  0  0  0
    4.2306    1.8738    0.0520 C   0  0  0  0  0  0  0  0  0  0  0  0
   -0.8103   -2.6191    1.2297 H   0  0  0  0  0  0  0  0  0  0  0  0
    0.8105   -2.6197   -1.2297 H   0  0  0  0  0  0  0  0  0  0  0  0
   -0.1434   -0.3111    1.5515 H   0  0  0  0  0  0  0  0  0  0  0  0
    0.1436   -0.3116   -1.5526 H   0  0  0  0  0  0  0  0  0  0  0  0
   -1.9489   -3.4734   -0.7439 H   0  0  0  0  0  0  0  0  0  0  0  0
   -1.6359   -2.0080   -1.6727 H   0  0  0  0  0  0  0  0  0  0  0  0
    1.9488   -3.4733    0.7444 H   0  0  0  0  0  0  0  0  0  0  0  0
    1.6354   -2.0076    1.6727 H   0  0  0  0  0  0  0  0  0  0  0  0
   -3.4138   -2.1911    0.8232 H   0  0  0  0  0  0  0  0  0  0  0  0
   -3.9586   -2.0534   -0.8564 H   0  0  0  0  0  0  0  0  0  0  0  0
    3.4141   -2.1912   -0.8225 H   0  0  0  0  0  0  0  0  0  0  0  0
    3.9584   -2.0534    0.8571 H   0  0  0  0  0  0  0  0  0  0  0  0
   -0.9658    2.2650    0.7692 H   0  0  0  0  0  0  0  0  0  0  0  0
    0.9664    2.2647   -0.7717 H   0  0  0  0  0  0  0  0  0  0  0  0
   -5.1978    0.0049   -0.4620 H   0  0  0  0  0  0  0  0  0  0  0  0
    5.1972    0.0050    0.4647 H   0  0  0  0  0  0  0  0  0  0  0  0
   -3.0153    3.5828    0.4240 H   0  0  0  0  0  0  0  0  0  0  0  0
    3.0156    3.5827   -0.4248 H   0  0  0  0  0  0  0  0  0  0  0  0
   -5.1365    2.4563   -0.1900 H   0  0  0  0  0  0  0  0  0  0  0  0
    5.1359    2.4566    0.1928 H   0  0  0  0  0  0  0  0  0  0  0  0
  1  2  1  0  0  0  0
  1  3  1  0  0  0  0
  1  5  1  0  0  0  0
  1 21  1  0  0  0  0
  2  4  1  0  0  0  0
  2  6  1  0  0  0  0
  2 22  1  0  0  0  0
  3  4  1  0  0  0  0
  3  7  1  0  0  0  0
  3 23  1  0  0  0  0
  4  8  1  0  0  0  0
  4 24  1  0  0  0  0
  5  9  1  0  0  0  0
  5 25  1  0  0  0  0
  5 26  1  0  0  0  0
  6 10  1  0  0  0  0
  6 27  1  0  0  0  0
  6 28  1  0  0  0  0
  7 11  1  0  0  0  0
  7 13  2  0  0  0  0
  8 12  1  0  0  0  0
  8 14  2  0  0  0  0
  9 11  1  0  0  0  0
  9 29  1  0  0  0  0
  9 30  1  0  0  0  0
 10 12  1  0  0  0  0
 10 31  1  0  0  0  0
 10 32  1  0  0  0  0
 11 15  2  0  0  0  0
 12 16  2  0  0  0  0
 13 17  1  0  0  0  0
 13 33  1  0  0  0  0
 14 18  1  0  0  0  0
 14 34  1  0  0  0  0
 15 19  1  0  0  0  0
 15 35  1  0  0  0  0
 16 20  1  0  0  0  0
 16 36  1  0  0  0  0
 17 19  2  0  0  0  0
 17 37  1  0  0  0  0
 18 20  2  0  0  0  0
 18 38  1  0  0  0  0
 19 39  1  0  0  0  0
 20 40  1  0  0  0  0
M  END
> <PUBCHEM_COMPOUND_CID>
142582

> <PUBCHEM_CONFORMER_RMSD>
0.6

> <PUBCHEM_CONFORMER_DIVERSEORDER>
1
4
2
5
3
6

> <PUBCHEM_MMFF94_PARTIAL_CHARGES>
24
10 0.14
11 -0.14
12 -0.14
13 -0.15
14 -0.15
15 -0.15
16 -0.15
17 -0.15
18 -0.15
19 -0.15
20 -0.15
3 0.11
33 0.15
34 0.15
35 0.15
36 0.15
37 0.15
38 0.15
39 0.15
4 0.11
40 0.15
7 -0.11
8 -0.11
9 0.14

> <PUBCHEM_EFFECTIVE_ROTOR_COUNT>
0.8

> <PUBCHEM_PHARMACOPHORE_FEATURES>
5
4 1 2 3 4 rings
6 1 3 5 7 9 11 rings
6 2 4 6 8 10 12 rings
6 7 11 13 15 17 19 rings
6 8 12 14 16 18 20 rings

> <PUBCHEM_HEAVY_ATOM_COUNT>
20

> <PUBCHEM_ATOM_DEF_STEREO_COUNT>
0

> <PUBCHEM_ATOM_UDEF_STEREO_COUNT>
4

> <PUBCHEM_BOND_DEF_STEREO_COUNT>
0

> <PUBCHEM_BOND_UDEF_STEREO_COUNT>
0

> <PUBCHEM_ISOTOPIC_ATOM_COUNT>
0

> <PUBCHEM_COMPONENT_COUNT>
1

> <PUBCHEM_CACTVS_TAUTO_COUNT>
1

> <PUBCHEM_CONFORMER_ID>
00022CF600000001

> <PUBCHEM_MMFF94_ENERGY>
54.0348

> <PUBCHEM_FEATURE_SELFOVERLAP>
25.998

> <PUBCHEM_SHAPE_FINGERPRINT>
10411042 1 17041199040163430659
10498660 4 18339924912764218885
10608611 8 18410576188469693475
10616163 171 18339927116150818671
10646746 165 18412266151095784820
10670039 82 18190192367733851092
10967382 1 18338237068052740300
1100329 8 18264768757884463274
11370993 70 18410570690911840425
12173636 292 18341046427540938767
12403260 363 18410565193358891854
12633257 1 18187635856906022050
13140716 1 18335987450098330939
13583140 156 17604996918854419635
138480 1 17762056532174463919
14178342 30 18337094774730476386
14787075 74 17899697061800332491
15196674 1 18410856563934763367
15420108 30 16257306584262493968
15442244 35 18338233765528961746
15536298 74 18341050726998296054
16945 1 18410583885051581606
17492 89 18410575089048736939
17834072 32 18340489954783392753
17980427 23 17984670408444393618
18186145 218 18201171961313428618
20510252 161 18197505223215763827
20715895 44 18049996698029699561
21033648 29 16806165441813253781
21267235 1 18410583885051549127
21501502 16 18410851066382243534
21524375 3 18410576184174739173
22094290 62 18337673001323367546
22749437 52 18410855464428806593
23227448 37 18412262844002570151
23402539 116 18270111443427896956
23558518 356 18188215415150304506
23559900 14 18201438026522883918
335352 9 18266178340433648958
350125 39 18410296916821748707
4280585 95 17626118442767242086
469060 322 17975434695586096787
474 4 18113621209153146156
5048184 11 18410299120245992768
5104073 3 18407760322053431835
5939293 188 18194401091795805054
6328613 192 18334302007133959676
6333272 397 18409731754986569833
7097593 13 18043802083293044522
7164475 11 18270395130381843622
7364860 26 18340489963341730838
7832392 63 18410573942587172874
84936 182 18342172267587388056
9709674 26 18411706508067228038
9981440 41 18263639739788873890

> <PUBCHEM_SHAPE_MULTIPOLES>
411.59
8.23
3.27
0.75
0
0
0
4.34
0
0
0
0
-0.07
-0.65

> <PUBCHEM_SHAPE_SELFOVERLAP>
913.245

> <PUBCHEM_SHAPE_VOLUME>
209.2

> <PUBCHEM_COORDINATE_TYPE>
2
5
10

$$$$
