71002
  -OEChem-11012400393D

 25 25  0     1  0  0  0  0  0999 V2000
   -4.2680   -0.3796    0.8964 O   0  0  0  0  0  0  0  0  0  0  0  0
   -0.0399    1.9794    0.7462 O   0  0  0  0  0  0  0  0  0  0  0  0
   -2.9773   -1.8229   -0.2835 O   0  0  0  0  0  0  0  0  0  0  0  0
   -0.9223    0.0613   -0.1758 N   0  0  0  0  0  0  0  0  0  0  0  0
   -2.3111    0.5199   -0.1269 C   0  0  1  0  0  0  0  0  0  0  0  0
   -2.6712    1.2278   -1.3996 C   0  0  0  0  0  0  0  0  0  0  0  0
    1.4525    0.2628    0.1287 C   0  0  0  0  0  0  0  0  0  0  0  0
    0.1146    0.8525    0.2766 C   0  0  0  0  0  0  0  0  0  0  0  0
   -3.1898   -0.6894    0.1275 C   0  0  0  0  0  0  0  0  0  0  0  0
    2.5546    1.0958    0.0020 C   0  0  0  0  0  0  0  0  0  0  0  0
    1.5923   -1.1173    0.1184 C   0  0  0  0  0  0  0  0  0  0  0  0
    3.8246    0.5363   -0.1383 C   0  0  0  0  0  0  0  0  0  0  0  0
    2.8625   -1.6767   -0.0218 C   0  0  0  0  0  0  0  0  0  0  0  0
    3.9785   -0.8499   -0.1500 C   0  0  0  0  0  0  0  0  0  0  0  0
   -2.4099    1.2018    0.7259 H   0  0  0  0  0  0  0  0  0  0  0  0
   -0.7484   -0.8213   -0.6448 H   0  0  0  0  0  0  0  0  0  0  0  0
   -2.0307    2.1004   -1.5673 H   0  0  0  0  0  0  0  0  0  0  0  0
   -3.7112    1.5706   -1.3773 H   0  0  0  0  0  0  0  0  0  0  0  0
   -2.5641    0.5686   -2.2689 H   0  0  0  0  0  0  0  0  0  0  0  0
    2.4525    2.1774    0.0052 H   0  0  0  0  0  0  0  0  0  0  0  0
    0.7590   -1.7996    0.2539 H   0  0  0  0  0  0  0  0  0  0  0  0
    4.6937    1.1799   -0.2387 H   0  0  0  0  0  0  0  0  0  0  0  0
    2.9842   -2.7561   -0.0221 H   0  0  0  0  0  0  0  0  0  0  0  0
    4.9676   -1.2855   -0.2572 H   0  0  0  0  0  0  0  0  0  0  0  0
   -4.8330   -1.1636    1.0654 H   0  0  0  0  0  0  0  0  0  0  0  0
  1  9  1  0  0  0  0
  1 25  1  0  0  0  0
  2  8  2  0  0  0  0
  3  9  2  0  0  0  0
  4  5  1  0  0  0  0
  4  8  1  0  0  0  0
  4 16  1  0  0  0  0
  5  6  1  0  0  0  0
  5  9  1  0  0  0  0
  5 15  1  0  0  0  0
  6 17  1  0  0  0  0
  6 18  1  0  0  0  0
  6 19  1  0  0  0  0
  7  8  1  0  0  0  0
  7 10  2  0  0  0  0
  7 11  1  0  0  0  0
 10 12  1  0  0  0  0
 10 20  1  0  0  0  0
 11 13  2  0  0  0  0
 11 21  1  0  0  0  0
 12 14  2  0  0  0  0
 12 22  1  0  0  0  0
 13 14  1  0  0  0  0
 13 23  1  0  0  0  0
 14 24  1  0  0  0  0
M  END
> <PUBCHEM_COMPOUND_CID>
71002

> <PUBCHEM_CONFORMER_RMSD>
0.6

> <PUBCHEM_CONFORMER_DIVERSEORDER>
5
17
13
2
11
12
1
16
15
9
8
7
4
6
10
14
3

> <PUBCHEM_MMFF94_PARTIAL_CHARGES>
20
1 -0.65
10 -0.15
11 -0.15
12 -0.15
13 -0.15
14 -0.15
16 0.37
2 -0.57
20 0.15
21 0.15
22 0.15
23 0.15
24 0.15
25 0.5
3 -0.57
4 -0.73
5 0.36
7 0.09
8 0.54
9 0.66

> <PUBCHEM_EFFECTIVE_ROTOR_COUNT>
4

> <PUBCHEM_PHARMACOPHORE_FEATURES>
6
1 1 acceptor
1 2 acceptor
1 3 acceptor
1 4 donor
3 1 3 9 anion
6 7 10 11 12 13 14 rings

> <PUBCHEM_HEAVY_ATOM_COUNT>
14

> <PUBCHEM_ATOM_DEF_STEREO_COUNT>
0

> <PUBCHEM_ATOM_UDEF_STEREO_COUNT>
1

> <PUBCHEM_BOND_DEF_STEREO_COUNT>
0

> <PUBCHEM_BOND_UDEF_STEREO_COUNT>
0

> <PUBCHEM_ISOTOPIC_ATOM_COUNT>
0

> <PUBCHEM_COMPONENT_COUNT>
1

> <PUBCHEM_CACTVS_TAUTO_COUNT>
2

> <PUBCHEM_CONFORMER_ID>
0001155A00000005

> <PUBCHEM_MMFF94_ENERGY>
33.0378

> <PUBCHEM_FEATURE_SELFOVERLAP>
30.506

> <PUBCHEM_SHAPE_FINGERPRINT>
11543360 7 17095534997567516334
11769659 78 18335415738590895618
12032990 46 18412829075221340990
12932764 1 17203316810718146216
13296908 3 18410851040680712772
13705890 14 18260546702158501444
14252887 29 17774735215802998022
14325111 11 18408039602539145748
14350558 41 18335709338202104876
15375462 189 18412546530613397939
17834074 16 18335420166580839055
17844478 74 18187366532212586429
18186145 218 18113898204568592372
19107657 46 18341894078086611254
19422 9 18343589550654277832
19433438 38 17895191074033358518
20201158 50 18408042913748200842
20281407 28 18409729586270730369
20281475 54 18339363071281397687
20645477 70 18341885238991227367
20871999 31 17894624834335468421
221490 88 18335709381394786626
22485316 2 18413387652755643187
22959321 105 18334011675037476484
23402539 116 16515678910597719236
23402655 69 18335138657381553276
23557571 272 17603580811801505541
23559900 14 18266448824942509298
25610 137 18412547608877048816
2871803 45 18188199992197076927
3312278 4 18339922623609771752
83771 10 18410014346849917217
8809292 202 18334017228256448291
93112 12 18261385603196448524

> <PUBCHEM_SHAPE_MULTIPOLES>
265.52
7.73
1.72
0.83
1.38
0.14
-0.12
2.04
-0.22
0.01
-0.01
0.55
-0.21
0.44

> <PUBCHEM_SHAPE_SELFOVERLAP>
549.13

> <PUBCHEM_SHAPE_VOLUME>
151.6

> <PUBCHEM_COORDINATE_TYPE>
2
5
10

$$$$
