5463499
  -OEChem-11012401013D

 22 22  0     0  0  0  0  0  0999 V2000
   -1.4601    0.0822   -0.6171 C   0  0  0  0  0  0  0  0  0  0  0  0
   -2.6287   -0.3015    0.1985 C   0  0  0  0  0  0  0  0  0  0  0  0
   -2.1885    1.1310    0.1231 C   0  0  0  0  0  0  0  0  0  0  0  0
   -0.1030   -0.3074   -0.0944 C   0  0  0  0  0  0  0  0  0  0  0  0
    0.8525    0.6244    0.0842 C   0  0  0  0  0  0  0  0  0  0  0  0
    0.0594   -1.7759    0.1783 C   0  0  0  0  0  0  0  0  0  0  0  0
    2.2409    0.4274    0.6212 C   0  0  0  0  0  0  0  0  0  0  0  0
    3.2275    0.1197   -0.4939 C   0  0  0  0  0  0  0  0  0  0  0  0
   -1.5578    0.0531   -1.6958 H   0  0  0  0  0  0  0  0  0  0  0  0
   -2.5004   -0.8043    1.1492 H   0  0  0  0  0  0  0  0  0  0  0  0
   -3.5410   -0.5738   -0.3196 H   0  0  0  0  0  0  0  0  0  0  0  0
   -2.8066    1.8165   -0.4450 H   0  0  0  0  0  0  0  0  0  0  0  0
   -1.7660    1.5653    1.0214 H   0  0  0  0  0  0  0  0  0  0  0  0
    0.6195    1.6549   -0.1817 H   0  0  0  0  0  0  0  0  0  0  0  0
   -0.4631   -2.0600    1.0968 H   0  0  0  0  0  0  0  0  0  0  0  0
   -0.3483   -2.3656   -0.6500 H   0  0  0  0  0  0  0  0  0  0  0  0
    1.1079   -2.0672    0.2876 H   0  0  0  0  0  0  0  0  0  0  0  0
    2.2593   -0.3765    1.3654 H   0  0  0  0  0  0  0  0  0  0  0  0
    2.5491    1.3380    1.1481 H   0  0  0  0  0  0  0  0  0  0  0  0
    4.2353    0.0007   -0.0831 H   0  0  0  0  0  0  0  0  0  0  0  0
    2.9654   -0.8062   -1.0166 H   0  0  0  0  0  0  0  0  0  0  0  0
    3.2571    0.9298   -1.2305 H   0  0  0  0  0  0  0  0  0  0  0  0
  1  2  1  0  0  0  0
  1  3  1  0  0  0  0
  1  4  1  0  0  0  0
  1  9  1  0  0  0  0
  2  3  1  0  0  0  0
  2 10  1  0  0  0  0
  2 11  1  0  0  0  0
  3 12  1  0  0  0  0
  3 13  1  0  0  0  0
  4  5  2  0  0  0  0
  4  6  1  0  0  0  0
  5  7  1  0  0  0  0
  5 14  1  0  0  0  0
  6 15  1  0  0  0  0
  6 16  1  0  0  0  0
  6 17  1  0  0  0  0
  7  8  1  0  0  0  0
  7 18  1  0  0  0  0
  7 19  1  0  0  0  0
  8 20  1  0  0  0  0
  8 21  1  0  0  0  0
  8 22  1  0  0  0  0
M  END
> <PUBCHEM_COMPOUND_CID>
5463499

> <PUBCHEM_CONFORMER_RMSD>
0.4

> <PUBCHEM_CONFORMER_DIVERSEORDER>
1
13
10
3
9
14
12
8
5
7
2
11
6
4
15

> <PUBCHEM_MMFF94_PARTIAL_CHARGES>
13
1 -0.06
10 0.1
11 0.1
12 0.1
13 0.1
14 0.15
2 -0.2
3 -0.2
4 -0.18
5 -0.29
6 0.14
7 0.14
9 0.1

> <PUBCHEM_EFFECTIVE_ROTOR_COUNT>
2.6

> <PUBCHEM_PHARMACOPHORE_FEATURES>
2
1 6 hydrophobe
1 8 hydrophobe

> <PUBCHEM_HEAVY_ATOM_COUNT>
8

> <PUBCHEM_ATOM_DEF_STEREO_COUNT>
0

> <PUBCHEM_ATOM_UDEF_STEREO_COUNT>
0

> <PUBCHEM_BOND_DEF_STEREO_COUNT>
1

> <PUBCHEM_BOND_UDEF_STEREO_COUNT>
0

> <PUBCHEM_ISOTOPIC_ATOM_COUNT>
0

> <PUBCHEM_COMPONENT_COUNT>
1

> <PUBCHEM_CACTVS_TAUTO_COUNT>
1

> <PUBCHEM_CONFORMER_ID>
00535DCB00000001

> <PUBCHEM_MMFF94_ENERGY>
11.3152

> <PUBCHEM_FEATURE_SELFOVERLAP>
10.149

> <PUBCHEM_SHAPE_FINGERPRINT>
10857977 72 18260545671123763977
11062470 55 11527950049524845744
12932764 1 17489300901925822172
14325111 11 18410292510359434756
14390081 3 18273207582399150449
16714656 1 18333730242894303180
20645464 45 18200297948786254432
20653085 51 17417821659383192160
21028194 46 18410856568293099184
21040471 1 18410287029970661082
23235685 24 18408319986346262801
23552423 10 18190177871601768426
29004967 10 8646770018834871108
369184 2 15482672411326072320
5084963 1 18201718491712547825
528862 383 17822840971290337730
5460574 1 10159702403874317516

> <PUBCHEM_SHAPE_MULTIPOLES>
164.64
4.37
1.27
0.76
1.72
0.49
0.01
-0.92
0.16
-0.26
-0.11
0.12
-0.02
0.04

> <PUBCHEM_SHAPE_SELFOVERLAP>
310.843

> <PUBCHEM_SHAPE_VOLUME>
104.5

> <PUBCHEM_COORDINATE_TYPE>
2
5
10

$$$$
