69019
  -OEChem-11012400463D

 13 12  0     0  0  0  0  0  0999 V2000
   -0.5495    0.0000    0.3919 C   0  0  0  0  0  0  0  0  0  0  0  0
   -1.2085   -1.2557   -0.1739 C   0  0  0  0  0  0  0  0  0  0  0  0
   -1.2084    1.2558   -0.1738 C   0  0  0  0  0  0  0  0  0  0  0  0
    0.8946   -0.0001    0.0963 C   0  0  0  0  0  0  0  0  0  0  0  0
    2.0718    0.0001   -0.1405 C   0  0  0  0  0  0  0  0  0  0  0  0
   -0.6856    0.0000    1.4803 H   0  0  0  0  0  0  0  0  0  0  0  0
   -2.2774   -1.2754    0.0639 H   0  0  0  0  0  0  0  0  0  0  0  0
   -1.1025   -1.3089   -1.2636 H   0  0  0  0  0  0  0  0  0  0  0  0
   -0.7544   -2.1600    0.2469 H   0  0  0  0  0  0  0  0  0  0  0  0
   -2.2773    1.2756    0.0638 H   0  0  0  0  0  0  0  0  0  0  0  0
   -0.7542    2.1600    0.2470 H   0  0  0  0  0  0  0  0  0  0  0  0
   -1.1024    1.3091   -1.2636 H   0  0  0  0  0  0  0  0  0  0  0  0
    3.1158    0.0002   -0.3506 H   0  0  0  0  0  0  0  0  0  0  0  0
  1  2  1  0  0  0  0
  1  3  1  0  0  0  0
  1  4  1  0  0  0  0
  1  6  1  0  0  0  0
  2  7  1  0  0  0  0
  2  8  1  0  0  0  0
  2  9  1  0  0  0  0
  3 10  1  0  0  0  0
  3 11  1  0  0  0  0
  3 12  1  0  0  0  0
  4  5  3  0  0  0  0
  5 13  1  0  0  0  0
M  END
> <PUBCHEM_COMPOUND_CID>
69019

> <PUBCHEM_CONFORMER_RMSD>
0.4

> <PUBCHEM_CONFORMER_DIVERSEORDER>
1

> <PUBCHEM_MMFF94_PARTIAL_CHARGES>
4
1 0.2
13 0.18
4 -0.2
5 -0.18

> <PUBCHEM_EFFECTIVE_ROTOR_COUNT>
0

> <PUBCHEM_PHARMACOPHORE_FEATURES>
2
1 5 hydrophobe
3 1 2 3 hydrophobe

> <PUBCHEM_HEAVY_ATOM_COUNT>
5

> <PUBCHEM_ATOM_DEF_STEREO_COUNT>
0

> <PUBCHEM_ATOM_UDEF_STEREO_COUNT>
0

> <PUBCHEM_BOND_DEF_STEREO_COUNT>
0

> <PUBCHEM_BOND_UDEF_STEREO_COUNT>
0

> <PUBCHEM_ISOTOPIC_ATOM_COUNT>
0

> <PUBCHEM_COMPONENT_COUNT>
1

> <PUBCHEM_CACTVS_TAUTO_COUNT>
1

> <PUBCHEM_CONFORMER_ID>
00010D9B00000001

> <PUBCHEM_MMFF94_ENERGY>
0.9013

> <PUBCHEM_FEATURE_SELFOVERLAP>
10.149

> <PUBCHEM_SHAPE_FINGERPRINT>
139733 1 8645955254948989219
16714656 1 18410579482941685653
20096714 4 18116717313637970016
21015797 1 9943808902019401795
21040471 1 18194397797165706808
23552449 1 18412538838358716496
24536 1 17346885524572245280
29004967 10 17976260454108623571
5943 1 11195005228468732971

> <PUBCHEM_SHAPE_MULTIPOLES>
102.9
2.28
1.25
0.67
1.18
0
0.01
0
-0.18
-0.76
-0.11
-0.02
0
0

> <PUBCHEM_SHAPE_SELFOVERLAP>
179.334

> <PUBCHEM_SHAPE_VOLUME>
68.8

> <PUBCHEM_COORDINATE_TYPE>
2
5
10

$$$$
