88652
  -OEChem-11012400343D

 23 25  0     0  0  0  0  0  0999 V2000
   -1.6148    1.2040    0.0003 O   0  0  0  0  0  0  0  0  0  0  0  0
   -2.6702   -0.8002    0.0001 N   0  0  0  0  0  0  0  0  0  0  0  0
    0.7382    0.3780    0.0004 C   0  0  0  0  0  0  0  0  0  0  0  0
   -0.6581    0.2263    0.0006 C   0  0  0  0  0  0  0  0  0  0  0  0
    1.5004   -0.8155   -0.0002 C   0  0  0  0  0  0  0  0  0  0  0  0
   -1.3106   -0.9980    0.0004 C   0  0  0  0  0  0  0  0  0  0  0  0
    0.8521   -2.0658   -0.0002 C   0  0  0  0  0  0  0  0  0  0  0  0
   -0.5484   -2.1744    0.0003 C   0  0  0  0  0  0  0  0  0  0  0  0
    1.3542    1.6418    0.0007 C   0  0  0  0  0  0  0  0  0  0  0  0
    2.8989   -0.7008   -0.0007 C   0  0  0  0  0  0  0  0  0  0  0  0
   -2.7857    0.5091    0.0002 C   0  0  0  0  0  0  0  0  0  0  0  0
    2.7448    1.7213    0.0002 C   0  0  0  0  0  0  0  0  0  0  0  0
    3.5133    0.5561   -0.0006 C   0  0  0  0  0  0  0  0  0  0  0  0
   -4.0140    1.3182   -0.0014 C   0  0  0  0  0  0  0  0  0  0  0  0
    1.4389   -2.9832   -0.0006 H   0  0  0  0  0  0  0  0  0  0  0  0
   -1.0229   -3.1506    0.0001 H   0  0  0  0  0  0  0  0  0  0  0  0
    0.7659    2.5553    0.0012 H   0  0  0  0  0  0  0  0  0  0  0  0
    3.5260   -1.5900   -0.0013 H   0  0  0  0  0  0  0  0  0  0  0  0
    3.2329    2.6917    0.0003 H   0  0  0  0  0  0  0  0  0  0  0  0
    4.5977    0.6253   -0.0010 H   0  0  0  0  0  0  0  0  0  0  0  0
   -4.0539    1.9547   -0.8904 H   0  0  0  0  0  0  0  0  0  0  0  0
   -4.9009    0.6775   -0.0006 H   0  0  0  0  0  0  0  0  0  0  0  0
   -4.0544    1.9575    0.8855 H   0  0  0  0  0  0  0  0  0  0  0  0
  1  4  1  0  0  0  0
  1 11  1  0  0  0  0
  2  6  1  0  0  0  0
  2 11  2  0  0  0  0
  3  4  1  0  0  0  0
  3  5  1  0  0  0  0
  3  9  2  0  0  0  0
  4  6  2  0  0  0  0
  5  7  1  0  0  0  0
  5 10  2  0  0  0  0
  6  8  1  0  0  0  0
  7  8  2  0  0  0  0
  7 15  1  0  0  0  0
  8 16  1  0  0  0  0
  9 12  1  0  0  0  0
  9 17  1  0  0  0  0
 10 13  1  0  0  0  0
 10 18  1  0  0  0  0
 11 14  1  0  0  0  0
 12 13  2  0  0  0  0
 12 19  1  0  0  0  0
 13 20  1  0  0  0  0
 14 21  1  0  0  0  0
 14 22  1  0  0  0  0
 14 23  1  0  0  0  0
M  END
> <PUBCHEM_COMPOUND_CID>
88652

> <PUBCHEM_CONFORMER_RMSD>
0.4

> <PUBCHEM_CONFORMER_DIVERSEORDER>
1

> <PUBCHEM_MMFF94_PARTIAL_CHARGES>
18
1 -0.28
10 -0.15
11 0.3
12 -0.15
13 -0.15
14 0.18
15 0.15
16 0.15
17 0.15
18 0.15
19 0.15
2 -0.57
20 0.15
4 0.14
6 0.23
7 -0.15
8 -0.15
9 -0.15

> <PUBCHEM_EFFECTIVE_ROTOR_COUNT>
0

> <PUBCHEM_PHARMACOPHORE_FEATURES>
3
5 1 2 4 6 11 rings
6 3 4 5 6 7 8 rings
6 3 5 9 10 12 13 rings

> <PUBCHEM_HEAVY_ATOM_COUNT>
14

> <PUBCHEM_ATOM_DEF_STEREO_COUNT>
0

> <PUBCHEM_ATOM_UDEF_STEREO_COUNT>
0

> <PUBCHEM_BOND_DEF_STEREO_COUNT>
0

> <PUBCHEM_BOND_UDEF_STEREO_COUNT>
0

> <PUBCHEM_ISOTOPIC_ATOM_COUNT>
0

> <PUBCHEM_COMPONENT_COUNT>
1

> <PUBCHEM_CACTVS_TAUTO_COUNT>
1

> <PUBCHEM_CONFORMER_ID>
00015A4C00000001

> <PUBCHEM_MMFF94_ENERGY>
30.4029

> <PUBCHEM_FEATURE_SELFOVERLAP>
15.361

> <PUBCHEM_SHAPE_FINGERPRINT>
10411042 1 17041761985985369475
10465860 228 18126576621762065337
10608611 8 18339359776741087128
10967382 1 18338516339589765892
10980938 120 18337953376878069289
11132069 177 18412257342017653424
11471102 20 18338513032691885901
11543360 7 15697707207527009377
13140716 1 18409727378435962010
13380535 76 18410854364996202659
13897977 150 18409727344334738109
14144814 61 18410011061131474488
14325111 11 18410575119028247937
14897335 6 18412539916453185797
14911166 2 18340496573470226158
15196674 1 18410574006921719206
15219456 202 18335709325501890755
15279308 100 18410581716493478356
15442244 35 17908424658361759241
15536298 74 18272088271204124950
15775835 57 18408045117129532204
16945 1 18338797818877475970
18186145 218 18272097079823424348
193761 8 17690279738860909732
20510252 161 18126852835097584641
20645476 183 17896336872671571830
20645477 70 18268987588569136943
20871998 184 17983585383361648447
21501502 16 18338230591352879734
21524375 3 18410007749748722847
2334 1 18266741466058495456
23402539 116 18272922839057809724
23402655 69 18270105813612287661
23463225 33 18335135363220719370
23559900 14 18272656788279518516
25 1 18409729521629917151
2748010 2 18338240478209287670
335352 9 18338516314004773750
5104073 3 18410292527375716162
528886 8 18411132537242997336
53812653 166 18413103953033404592
63268167 104 18341335504614901538
69090 78 18341045298217740703
7364860 26 18269837501956075310
81228 2 17760355995881923339

> <PUBCHEM_SHAPE_MULTIPOLES>
277.26
5.59
2.15
0.6
1.97
0.55
0
-2.63
0
-0.22
0
-0.03
0
0

> <PUBCHEM_SHAPE_SELFOVERLAP>
627.708

> <PUBCHEM_SHAPE_VOLUME>
147.8

> <PUBCHEM_COORDINATE_TYPE>
2
5
10

$$$$
