519605
  -OEChem-11012401063D

 23 23  0     0  0  0  0  0  0999 V2000
    1.2785   -1.5804   -1.0996 S   0  0  0  0  0  0  0  0  0  0  0  0
    3.3341    0.4270   -0.4420 S   0  0  0  0  0  0  0  0  0  0  0  0
    0.7538    0.8386    0.0681 N   0  0  0  0  0  0  0  0  0  0  0  0
   -0.6167    0.5329    0.0751 C   0  0  0  0  0  0  0  0  0  0  0  0
   -1.1745   -0.1174    1.1723 C   0  0  0  0  0  0  0  0  0  0  0  0
   -1.4091    0.8815   -1.0151 C   0  0  0  0  0  0  0  0  0  0  0  0
   -2.5357   -0.4220    1.1792 C   0  0  0  0  0  0  0  0  0  0  0  0
   -2.7703    0.5770   -1.0080 C   0  0  0  0  0  0  0  0  0  0  0  0
   -3.3336   -0.0748    0.0892 C   0  0  0  0  0  0  0  0  0  0  0  0
    1.6228    0.0012   -0.4075 C   0  0  0  0  0  0  0  0  0  0  0  0
    1.3892   -2.5847    0.3992 C   0  0  0  0  0  0  0  0  0  0  0  0
    3.4614    1.5212    0.9889 C   0  0  0  0  0  0  0  0  0  0  0  0
   -0.5637   -0.3820    2.0311 H   0  0  0  0  0  0  0  0  0  0  0  0
   -0.9788    1.3900   -1.8737 H   0  0  0  0  0  0  0  0  0  0  0  0
   -2.9746   -0.9273    2.0345 H   0  0  0  0  0  0  0  0  0  0  0  0
   -3.3918    0.8475   -1.8566 H   0  0  0  0  0  0  0  0  0  0  0  0
   -4.3935   -0.3113    0.0948 H   0  0  0  0  0  0  0  0  0  0  0  0
    1.2463   -3.6361    0.1355 H   0  0  0  0  0  0  0  0  0  0  0  0
    0.6218   -2.3062    1.1226 H   0  0  0  0  0  0  0  0  0  0  0  0
    2.3739   -2.4765    0.8617 H   0  0  0  0  0  0  0  0  0  0  0  0
    3.1010    1.0163    1.8893 H   0  0  0  0  0  0  0  0  0  0  0  0
    2.8836    2.4352    0.8280 H   0  0  0  0  0  0  0  0  0  0  0  0
    4.5084    1.7967    1.1401 H   0  0  0  0  0  0  0  0  0  0  0  0
  1 10  1  0  0  0  0
  1 11  1  0  0  0  0
  2 10  1  0  0  0  0
  2 12  1  0  0  0  0
  3  4  1  0  0  0  0
  3 10  2  0  0  0  0
  4  5  2  0  0  0  0
  4  6  1  0  0  0  0
  5  7  1  0  0  0  0
  5 13  1  0  0  0  0
  6  8  2  0  0  0  0
  6 14  1  0  0  0  0
  7  9  2  0  0  0  0
  7 15  1  0  0  0  0
  8  9  1  0  0  0  0
  8 16  1  0  0  0  0
  9 17  1  0  0  0  0
 11 18  1  0  0  0  0
 11 19  1  0  0  0  0
 11 20  1  0  0  0  0
 12 21  1  0  0  0  0
 12 22  1  0  0  0  0
 12 23  1  0  0  0  0
M  END
> <PUBCHEM_COMPOUND_CID>
519605

> <PUBCHEM_CONFORMER_RMSD>
0.6

> <PUBCHEM_CONFORMER_DIVERSEORDER>
1
5
7
4
6
2
3

> <PUBCHEM_MMFF94_PARTIAL_CHARGES>
17
1 -0.37
10 0.73
11 0.23
12 0.23
13 0.15
14 0.15
15 0.15
16 0.15
17 0.15
2 -0.37
3 -0.63
4 0.18
5 -0.15
6 -0.15
7 -0.15
8 -0.15
9 -0.15

> <PUBCHEM_EFFECTIVE_ROTOR_COUNT>
3

> <PUBCHEM_PHARMACOPHORE_FEATURES>
4
1 11 hydrophobe
1 12 hydrophobe
1 3 acceptor
6 4 5 6 7 8 9 rings

> <PUBCHEM_HEAVY_ATOM_COUNT>
12

> <PUBCHEM_ATOM_DEF_STEREO_COUNT>
0

> <PUBCHEM_ATOM_UDEF_STEREO_COUNT>
0

> <PUBCHEM_BOND_DEF_STEREO_COUNT>
0

> <PUBCHEM_BOND_UDEF_STEREO_COUNT>
0

> <PUBCHEM_ISOTOPIC_ATOM_COUNT>
0

> <PUBCHEM_COMPONENT_COUNT>
1

> <PUBCHEM_CACTVS_TAUTO_COUNT>
1

> <PUBCHEM_CONFORMER_ID>
0007EDB500000001

> <PUBCHEM_MMFF94_ENERGY>
30.5773

> <PUBCHEM_FEATURE_SELFOVERLAP>
20.297

> <PUBCHEM_SHAPE_FINGERPRINT>
107287 299 18411147921953131630
12716758 59 17387135265215526951
12932764 1 17846501396088404589
15207287 21 17968090975413892619
15219456 202 18187647955507167215
15775835 57 18271804652980607598
15852999 172 17894909615978249218
16945 1 18260841413934352589
18175812 5 18187367661825941148
18186145 218 17918279783346073868
19422 9 16271935908360589140
20201158 50 18187652383660712335
20279233 1 18186805764181562255
204376 136 18270396230468126672
20645464 45 17967533476053537993
20645477 70 18199464381443899695
21061003 4 18339374040295958649
21501502 16 18193841431381397493
22802520 49 17751647546162538239
23236772 104 17060341854933887177
23402539 116 17458332083472575983
23419403 2 16159010416549196618
23557571 272 17676214550232678247
23559900 14 17604144823218282426
2748010 2 17896326826542567015
3248919 1 17967258576392195885
474 4 17345465071719556736
528862 383 18272369737295651534
77492 1 16774081760532463380
81228 2 17750524966192342173

> <PUBCHEM_SHAPE_MULTIPOLES>
249.67
5.66
1.8
1.27
0.51
1.27
-0.05
-1.7
-0.39
1.66
-0.16
-0.31
0.01
0.76

> <PUBCHEM_SHAPE_SELFOVERLAP>
476.77

> <PUBCHEM_SHAPE_VOLUME>
155.7

> <PUBCHEM_COORDINATE_TYPE>
2
5
10

$$$$
