144197
  -OEChem-11012401073D

 23 23  0     0  0  0  0  0  0999 V2000
   -1.3482    0.2417    0.3727 N   0  0  0  0  0  0  0  0  0  0  0  0
    0.9729    0.0785    0.0044 N   0  0  0  0  0  0  0  0  0  0  0  0
   -2.3343    1.1419    0.2542 N   0  0  0  0  0  0  0  0  0  0  0  0
   -0.3959    2.0334   -0.3926 N   0  0  0  0  0  0  0  0  0  0  0  0
   -1.7457    2.2358   -0.2138 N   0  0  0  0  0  0  0  0  0  0  0  0
   -0.1851    0.8017   -0.0236 C   0  0  0  0  0  0  0  0  0  0  0  0
   -1.6205   -1.0865    0.8596 C   0  0  0  0  0  0  0  0  0  0  0  0
    2.2591    0.5898   -0.3993 C   0  0  0  0  0  0  0  0  0  0  0  0
   -1.9618   -2.0233   -0.2572 C   0  0  0  0  0  0  0  0  0  0  0  0
    3.2809   -0.4888   -0.2339 C   0  0  0  0  0  0  0  0  0  0  0  0
   -1.2738   -3.1373   -0.5311 C   0  0  0  0  0  0  0  0  0  0  0  0
    4.3525   -0.3869    0.5606 C   0  0  0  0  0  0  0  0  0  0  0  0
   -0.7641   -1.4279    1.4503 H   0  0  0  0  0  0  0  0  0  0  0  0
   -2.4702   -1.0191    1.5494 H   0  0  0  0  0  0  0  0  0  0  0  0
    0.9522   -0.8914    0.3096 H   0  0  0  0  0  0  0  0  0  0  0  0
    2.2300    0.8924   -1.4523 H   0  0  0  0  0  0  0  0  0  0  0  0
    2.5152    1.4742    0.1959 H   0  0  0  0  0  0  0  0  0  0  0  0
   -2.8304   -1.7868   -0.8669 H   0  0  0  0  0  0  0  0  0  0  0  0
    3.1485   -1.4010   -0.8107 H   0  0  0  0  0  0  0  0  0  0  0  0
   -1.5748   -3.7818   -1.3498 H   0  0  0  0  0  0  0  0  0  0  0  0
   -0.4042   -3.4237    0.0500 H   0  0  0  0  0  0  0  0  0  0  0  0
    5.0637   -1.2027    0.6307 H   0  0  0  0  0  0  0  0  0  0  0  0
    4.5388    0.5033    1.1511 H   0  0  0  0  0  0  0  0  0  0  0  0
  1  3  1  0  0  0  0
  1  6  1  0  0  0  0
  1  7  1  0  0  0  0
  2  6  1  0  0  0  0
  2  8  1  0  0  0  0
  2 15  1  0  0  0  0
  3  5  2  0  0  0  0
  4  5  1  0  0  0  0
  4  6  2  0  0  0  0
  7  9  1  0  0  0  0
  7 13  1  0  0  0  0
  7 14  1  0  0  0  0
  8 10  1  0  0  0  0
  8 16  1  0  0  0  0
  8 17  1  0  0  0  0
  9 11  2  0  0  0  0
  9 18  1  0  0  0  0
 10 12  2  0  0  0  0
 10 19  1  0  0  0  0
 11 20  1  0  0  0  0
 11 21  1  0  0  0  0
 12 22  1  0  0  0  0
 12 23  1  0  0  0  0
M  END
> <PUBCHEM_COMPOUND_CID>
144197

> <PUBCHEM_CONFORMER_RMSD>
0.6

> <PUBCHEM_CONFORMER_DIVERSEORDER>
1
33
49
37
42
26
3
45
36
48
21
15
29
32
28
34
41
40
25
35
47
13
43
11
27
18
16
46
22
5
23
9
12
8
19
24
6
44
4
31
38
17
30
10
39
20
7
2
14

> <PUBCHEM_MMFF94_PARTIAL_CHARGES>
18
1 0.31
10 -0.29
11 -0.3
12 -0.3
15 0.4
18 0.15
19 0.15
2 -0.85
20 0.15
21 0.15
22 0.15
23 0.15
3 -0.42
4 -0.34
6 0.27
7 0.39
8 0.51
9 -0.29

> <PUBCHEM_EFFECTIVE_ROTOR_COUNT>
5

> <PUBCHEM_PHARMACOPHORE_FEATURES>
5
1 11 hydrophobe
1 12 hydrophobe
1 2 donor
4 1 2 4 6 cation
5 1 3 4 5 6 rings

> <PUBCHEM_HEAVY_ATOM_COUNT>
12

> <PUBCHEM_ATOM_DEF_STEREO_COUNT>
0

> <PUBCHEM_ATOM_UDEF_STEREO_COUNT>
0

> <PUBCHEM_BOND_DEF_STEREO_COUNT>
0

> <PUBCHEM_BOND_UDEF_STEREO_COUNT>
0

> <PUBCHEM_ISOTOPIC_ATOM_COUNT>
0

> <PUBCHEM_COMPONENT_COUNT>
1

> <PUBCHEM_CACTVS_TAUTO_COUNT>
3

> <PUBCHEM_CONFORMER_ID>
0002334500000001

> <PUBCHEM_MMFF94_ENERGY>
9.9096

> <PUBCHEM_FEATURE_SELFOVERLAP>
25.372

> <PUBCHEM_SHAPE_FINGERPRINT>
12500047 106 18339634522068125200
13931106 250 18269252690603319374
15669948 3 18334863813997715382
20524608 308 18339080393534411666
20645477 70 16896504989064342975
20711985 365 18409449232138033223
20724930 33 18268709587857120958
20871998 184 18410303492543396387
23402539 116 18341884165629113933
257057 1 17980474882199078775
2748010 2 17976836293269222271
3071541 12 16897927159777349773
3086196 2 18340759446785426026
6333449 129 18411135805602469584
6338986 31 18051686938868160070
69090 78 18337951190655352081
81228 2 18337391638084294195

> <PUBCHEM_SHAPE_MULTIPOLES>
222.05
5.36
2.82
0.76
7.59
0.86
-0.06
1.83
-0.65
-2.89
0.6
0
0.15
-0.29

> <PUBCHEM_SHAPE_SELFOVERLAP>
436.312

> <PUBCHEM_SHAPE_VOLUME>
132.8

> <PUBCHEM_COORDINATE_TYPE>
2
5
10

$$$$
