138393
  -OEChem-11012400443D

 23 23  0     0  0  0  0  0  0999 V2000
    1.1032   -0.0600   -1.0490 O   0  0  0  0  0  0  0  0  0  0  0  0
    2.1141   -1.0506   -0.7308 O   0  0  0  0  0  0  0  0  0  0  0  0
    0.6121    0.3819    0.2201 C   0  0  0  0  0  0  0  0  0  0  0  0
   -0.4713    1.4413   -0.0340 C   0  0  0  0  0  0  0  0  0  0  0  0
    0.0328   -0.8224    0.9800 C   0  0  0  0  0  0  0  0  0  0  0  0
   -1.7074    0.8549   -0.7186 C   0  0  0  0  0  0  0  0  0  0  0  0
   -1.2030   -1.4023    0.2905 C   0  0  0  0  0  0  0  0  0  0  0  0
   -2.2668   -0.3352    0.0540 C   0  0  0  0  0  0  0  0  0  0  0  0
    1.7862    0.9924    0.9877 C   0  0  0  0  0  0  0  0  0  0  0  0
   -0.0730    2.2409   -0.6709 H   0  0  0  0  0  0  0  0  0  0  0  0
   -0.7758    1.9011    0.9148 H   0  0  0  0  0  0  0  0  0  0  0  0
   -0.2527   -0.5049    1.9920 H   0  0  0  0  0  0  0  0  0  0  0  0
    0.7668   -1.6258    1.1099 H   0  0  0  0  0  0  0  0  0  0  0  0
   -1.4523    0.5421   -1.7384 H   0  0  0  0  0  0  0  0  0  0  0  0
   -2.4777    1.6292   -0.8089 H   0  0  0  0  0  0  0  0  0  0  0  0
   -1.6224   -2.2057    0.9068 H   0  0  0  0  0  0  0  0  0  0  0  0
   -0.9161   -1.8542   -0.6668 H   0  0  0  0  0  0  0  0  0  0  0  0
   -2.6595    0.0086    1.0189 H   0  0  0  0  0  0  0  0  0  0  0  0
   -3.1089   -0.7695   -0.4965 H   0  0  0  0  0  0  0  0  0  0  0  0
    1.4465    1.4713    1.9126 H   0  0  0  0  0  0  0  0  0  0  0  0
    2.5375    0.2464    1.2691 H   0  0  0  0  0  0  0  0  0  0  0  0
    2.2999    1.7460    0.3799 H   0  0  0  0  0  0  0  0  0  0  0  0
    2.8742   -0.5104   -1.0066 H   0  0  0  0  0  0  0  0  0  0  0  0
  1  2  1  0  0  0  0
  1  3  1  0  0  0  0
  2 23  1  0  0  0  0
  3  4  1  0  0  0  0
  3  5  1  0  0  0  0
  3  9  1  0  0  0  0
  4  6  1  0  0  0  0
  4 10  1  0  0  0  0
  4 11  1  0  0  0  0
  5  7  1  0  0  0  0
  5 12  1  0  0  0  0
  5 13  1  0  0  0  0
  6  8  1  0  0  0  0
  6 14  1  0  0  0  0
  6 15  1  0  0  0  0
  7  8  1  0  0  0  0
  7 16  1  0  0  0  0
  7 17  1  0  0  0  0
  8 18  1  0  0  0  0
  8 19  1  0  0  0  0
  9 20  1  0  0  0  0
  9 21  1  0  0  0  0
  9 22  1  0  0  0  0
M  END
> <PUBCHEM_COMPOUND_CID>
138393

> <PUBCHEM_CONFORMER_RMSD>
0.4

> <PUBCHEM_CONFORMER_DIVERSEORDER>
1
10
8
6
11
7
4
2
5
9
3

> <PUBCHEM_MMFF94_PARTIAL_CHARGES>
4
1 -0.28
2 -0.4
23 0.4
3 0.28

> <PUBCHEM_EFFECTIVE_ROTOR_COUNT>
2.2

> <PUBCHEM_PHARMACOPHORE_FEATURES>
1
6 3 4 5 6 7 8 rings

> <PUBCHEM_HEAVY_ATOM_COUNT>
9

> <PUBCHEM_ATOM_DEF_STEREO_COUNT>
0

> <PUBCHEM_ATOM_UDEF_STEREO_COUNT>
0

> <PUBCHEM_BOND_DEF_STEREO_COUNT>
0

> <PUBCHEM_BOND_UDEF_STEREO_COUNT>
0

> <PUBCHEM_ISOTOPIC_ATOM_COUNT>
0

> <PUBCHEM_COMPONENT_COUNT>
1

> <PUBCHEM_CACTVS_TAUTO_COUNT>
1

> <PUBCHEM_CONFORMER_ID>
00021C9900000001

> <PUBCHEM_MMFF94_ENERGY>
12.4504

> <PUBCHEM_FEATURE_SELFOVERLAP>
5.074

> <PUBCHEM_SHAPE_FINGERPRINT>
12423570 1 17910107250422939907
12716758 59 18335700477584443722
137420 1 14600026975349263441
16945 1 18118952826877542745
18185500 45 17677034841593867971
20653085 51 16662083272986819254
21040471 1 18042112181407781521
21922407 69 14706931726561483561
23552423 10 18040436589921766802
24536 1 17917419934866349393
29004967 10 17846218898840697984
5084963 1 17822295621943628619

> <PUBCHEM_SHAPE_MULTIPOLES>
173.48
2.65
1.48
1.03
0.07
0
0.04
-0.1
0.15
0.16
-0.04
-0.4
-0.07
0.52

> <PUBCHEM_SHAPE_SELFOVERLAP>
336.129

> <PUBCHEM_SHAPE_VOLUME>
105.7

> <PUBCHEM_COORDINATE_TYPE>
2
5
10

$$$$
