8474
  -OEChem-11012401083D

 18 18  0     0  0  0  0  0  0999 V2000
    2.0080   -0.1998   -0.0941 S   0  0  0  0  0  0  0  0  0  0  0  0
    2.4685   -0.3126    1.4707 O   0  0  0  0  0  0  0  0  0  0  0  0
    2.1709   -1.5221   -0.6807 O   0  0  0  0  0  0  0  0  0  0  0  0
    2.6703    0.9568   -0.6772 O   0  0  0  0  0  0  0  0  0  0  0  0
   -2.9402   -1.6330    0.0124 N   0  0  0  0  0  0  0  0  0  0  0  0
    0.3009    0.1621   -0.0450 C   0  0  0  0  0  0  0  0  0  0  0  0
   -0.6323   -0.8746   -0.0361 C   0  0  0  0  0  0  0  0  0  0  0  0
   -1.9962   -0.5849    0.0036 C   0  0  0  0  0  0  0  0  0  0  0  0
   -0.1297    1.4885   -0.0139 C   0  0  0  0  0  0  0  0  0  0  0  0
   -2.4269    0.7415    0.0346 C   0  0  0  0  0  0  0  0  0  0  0  0
   -1.4936    1.7782    0.0258 C   0  0  0  0  0  0  0  0  0  0  0  0
   -0.3068   -1.9118   -0.0527 H   0  0  0  0  0  0  0  0  0  0  0  0
    0.5782    2.3124   -0.0120 H   0  0  0  0  0  0  0  0  0  0  0  0
   -1.8290    2.8108    0.0519 H   0  0  0  0  0  0  0  0  0  0  0  0
   -3.4869    0.9803    0.0662 H   0  0  0  0  0  0  0  0  0  0  0  0
   -3.9290   -1.4233    0.0418 H   0  0  0  0  0  0  0  0  0  0  0  0
   -2.6289   -2.5951   -0.0096 H   0  0  0  0  0  0  0  0  0  0  0  0
    2.0306   -1.0276    1.9897 H   0  0  0  0  0  0  0  0  0  0  0  0
  1  2  1  0  0  0  0
  1  3  2  0  0  0  0
  1  4  2  0  0  0  0
  1  6  1  0  0  0  0
  2 18  1  0  0  0  0
  5  8  1  0  0  0  0
  5 16  1  0  0  0  0
  5 17  1  0  0  0  0
  6  7  1  0  0  0  0
  6  9  2  0  0  0  0
  7  8  2  0  0  0  0
  7 12  1  0  0  0  0
  8 10  1  0  0  0  0
  9 11  1  0  0  0  0
  9 13  1  0  0  0  0
 10 11  2  0  0  0  0
 10 15  1  0  0  0  0
 11 14  1  0  0  0  0
M  END
> <PUBCHEM_COMPOUND_CID>
8474

> <PUBCHEM_CONFORMER_RMSD>
0.4

> <PUBCHEM_CONFORMER_DIVERSEORDER>
2
1

> <PUBCHEM_MMFF94_PARTIAL_CHARGES>
18
1 1.49
10 -0.15
11 -0.15
12 0.15
13 0.15
14 0.15
15 0.15
16 0.4
17 0.4
18 0.5
2 -0.68
3 -0.65
4 -0.65
5 -0.9
6 -0.01
7 -0.15
8 0.1
9 -0.15

> <PUBCHEM_EFFECTIVE_ROTOR_COUNT>
1

> <PUBCHEM_PHARMACOPHORE_FEATURES>
7
1 2 acceptor
1 3 acceptor
1 4 acceptor
1 5 cation
1 5 donor
4 1 2 3 4 anion
6 6 7 8 9 10 11 rings

> <PUBCHEM_HEAVY_ATOM_COUNT>
11

> <PUBCHEM_ATOM_DEF_STEREO_COUNT>
0

> <PUBCHEM_ATOM_UDEF_STEREO_COUNT>
0

> <PUBCHEM_BOND_DEF_STEREO_COUNT>
0

> <PUBCHEM_BOND_UDEF_STEREO_COUNT>
0

> <PUBCHEM_ISOTOPIC_ATOM_COUNT>
0

> <PUBCHEM_COMPONENT_COUNT>
1

> <PUBCHEM_CACTVS_TAUTO_COUNT>
1

> <PUBCHEM_CONFORMER_ID>
0000211A00000002

> <PUBCHEM_MMFF94_ENERGY>
27.7148

> <PUBCHEM_FEATURE_SELFOVERLAP>
35.577

> <PUBCHEM_SHAPE_FINGERPRINT>
10857977 72 18343012324335072801
12716758 59 18196932171636392681
12897270 3 18411708702879483740
12932764 1 17458349585037104100
14128692 85 18266466584152184837
16945 1 18191867829674182629
19973954 147 18340210691466809356
20645464 45 17560505249202414898
20645477 70 17617652607139639903
20871998 184 18201722859947489239
21040471 1 18050848819044873105
23552423 10 18261397706488134902
2748010 2 18341616975428637143
3248919 1 18340761559513631740
369184 2 17240482485622494377
5084963 1 18127413349883767400

> <PUBCHEM_SHAPE_MULTIPOLES>
207.64
4.23
1.73
0.81
0.71
0.11
0.18
-0.9
0.07
-0.74
-0.14
0.54
-0.04
-0.04

> <PUBCHEM_SHAPE_SELFOVERLAP>
420.069

> <PUBCHEM_SHAPE_VOLUME>
121.6

> <PUBCHEM_COORDINATE_TYPE>
2
5
10

$$$$
