5324677
  -OEChem-11012400403D

 27 27  0     0  0  0  0  0  0999 V2000
    2.9013    2.0996   -0.1063 O   0  0  0  0  0  0  0  0  0  0  0  0
    2.0866   -2.6010    0.0574 O   0  0  0  0  0  0  0  0  0  0  0  0
   -4.8141   -1.1086   -0.3715 O   0  0  0  0  0  0  0  0  0  0  0  0
   -4.4912    1.0396    0.3254 O   0  0  0  0  0  0  0  0  0  0  0  0
   -0.2351    0.2265    0.0983 C   0  0  0  0  0  0  0  0  0  0  0  0
    2.0301    1.0560   -0.0356 C   0  0  0  0  0  0  0  0  0  0  0  0
    1.6177   -1.3231    0.0465 C   0  0  0  0  0  0  0  0  0  0  0  0
    0.2450   -1.0830    0.1083 C   0  0  0  0  0  0  0  0  0  0  0  0
    0.6575    1.2960    0.0263 C   0  0  0  0  0  0  0  0  0  0  0  0
    2.5102   -0.2535   -0.0254 C   0  0  0  0  0  0  0  0  0  0  0  0
   -1.6664    0.4766    0.1639 C   0  0  0  0  0  0  0  0  0  0  0  0
   -2.6310   -0.4194   -0.1417 C   0  0  0  0  0  0  0  0  0  0  0  0
    2.3425    3.4123   -0.1132 C   0  0  0  0  0  0  0  0  0  0  0  0
    3.5013   -2.7739   -0.0085 C   0  0  0  0  0  0  0  0  0  0  0  0
   -4.0542   -0.0439   -0.0239 C   0  0  0  0  0  0  0  0  0  0  0  0
   -0.4161   -1.9421    0.1833 H   0  0  0  0  0  0  0  0  0  0  0  0
    0.2353    2.2960    0.0194 H   0  0  0  0  0  0  0  0  0  0  0  0
    3.5873   -0.3749   -0.0756 H   0  0  0  0  0  0  0  0  0  0  0  0
   -1.9530    1.4757    0.4860 H   0  0  0  0  0  0  0  0  0  0  0  0
   -2.4146   -1.4230   -0.4897 H   0  0  0  0  0  0  0  0  0  0  0  0
    1.8090    3.6280    0.8188 H   0  0  0  0  0  0  0  0  0  0  0  0
    1.7195    3.5804   -0.9982 H   0  0  0  0  0  0  0  0  0  0  0  0
    3.1775    4.1181   -0.1728 H   0  0  0  0  0  0  0  0  0  0  0  0
    3.6962   -3.8512    0.0101 H   0  0  0  0  0  0  0  0  0  0  0  0
    4.0006   -2.3440    0.8665 H   0  0  0  0  0  0  0  0  0  0  0  0
    3.9102   -2.3918   -0.9500 H   0  0  0  0  0  0  0  0  0  0  0  0
   -5.7732   -0.9110   -0.3107 H   0  0  0  0  0  0  0  0  0  0  0  0
  1  6  1  0  0  0  0
  1 13  1  0  0  0  0
  2  7  1  0  0  0  0
  2 14  1  0  0  0  0
  3 15  1  0  0  0  0
  3 27  1  0  0  0  0
  4 15  2  0  0  0  0
  5  8  2  0  0  0  0
  5  9  1  0  0  0  0
  5 11  1  0  0  0  0
  6  9  2  0  0  0  0
  6 10  1  0  0  0  0
  7  8  1  0  0  0  0
  7 10  2  0  0  0  0
  8 16  1  0  0  0  0
  9 17  1  0  0  0  0
 10 18  1  0  0  0  0
 11 12  2  0  0  0  0
 11 19  1  0  0  0  0
 12 15  1  0  0  0  0
 12 20  1  0  0  0  0
 13 21  1  0  0  0  0
 13 22  1  0  0  0  0
 13 23  1  0  0  0  0
 14 24  1  0  0  0  0
 14 25  1  0  0  0  0
 14 26  1  0  0  0  0
M  END
> <PUBCHEM_COMPOUND_CID>
5324677

> <PUBCHEM_CONFORMER_RMSD>
0.6

> <PUBCHEM_CONFORMER_DIVERSEORDER>
3
2
4
1

> <PUBCHEM_MMFF94_PARTIAL_CHARGES>
21
1 -0.36
10 -0.15
11 -0.18
12 -0.14
13 0.28
14 0.28
15 0.71
16 0.15
17 0.15
18 0.15
19 0.15
2 -0.36
20 0.15
27 0.5
3 -0.65
4 -0.57
5 0.03
6 0.08
7 0.08
8 -0.15
9 -0.15

> <PUBCHEM_EFFECTIVE_ROTOR_COUNT>
4

> <PUBCHEM_PHARMACOPHORE_FEATURES>
6
1 1 acceptor
1 2 acceptor
1 3 acceptor
1 4 acceptor
3 3 4 15 anion
6 5 6 7 8 9 10 rings

> <PUBCHEM_HEAVY_ATOM_COUNT>
15

> <PUBCHEM_ATOM_DEF_STEREO_COUNT>
0

> <PUBCHEM_ATOM_UDEF_STEREO_COUNT>
0

> <PUBCHEM_BOND_DEF_STEREO_COUNT>
1

> <PUBCHEM_BOND_UDEF_STEREO_COUNT>
0

> <PUBCHEM_ISOTOPIC_ATOM_COUNT>
0

> <PUBCHEM_COMPONENT_COUNT>
1

> <PUBCHEM_CACTVS_TAUTO_COUNT>
1

> <PUBCHEM_CONFORMER_ID>
00513F8500000003

> <PUBCHEM_MMFF94_ENERGY>
56.8437

> <PUBCHEM_FEATURE_SELFOVERLAP>
30.504

> <PUBCHEM_SHAPE_FINGERPRINT>
10465860 228 18411705391412517929
10608611 8 18334290968498088637
10980938 120 18411135874438088313
11471102 20 18409728465015260284
11806522 49 18337673014540916610
12346645 6 18410008875082895468
12532896 13 17908141328418255572
12841375 25 18266459793909226974
13380535 76 18190458448887843602
13955234 65 18411138073324019003
14178000 15 18340767031581814560
14178000 29 18199470965555287910
14251717 144 18410570699670502127
14415576 193 18336548321335319965
15442244 35 18268433425818324065
15477762 27 18411136900961801686
15502722 9 18410295843074643439
16945 1 18410019844624379448
17134986 127 18118973739569595172
18186145 218 17603866672472360483
19422 9 18272088284400334607
20281475 54 18343578547676208599
20645477 70 18408315588795883799
20671657 1 18411422833950762646
20671657 53 18268151950593647934
20820808 20 18268993261793907320
20871998 22 17983579602673304078
212916 134 17912345830844967952
21499 59 18193271029760048517
21524375 3 17972872837546174296
22096605 113 18338237175606283969
221490 88 18335991929870884171
2255824 54 18411984654470450150
22959321 4 18411700976449680283
23532345 1 18336829800933792137
23559900 14 18411411783205742331
2748010 2 18050832339708772764
3060560 45 18337676433524697868
3071541 12 18410578404957732784
3071541 37 18334864947895578844
3091708 16 9432170936111156152
474 4 18265332996069649153
5104073 3 18412266125726927987
53777708 50 18343023302872816051
54173680 148 17545318575783145710
581208 293 18410851096604984377
6049 1 17895185555095433253
7364860 26 18411418414809086578
77779 3 18410857664300913995
81539 233 18189332531911998956
8272917 22 18411986866431108301
84936 182 18201157775005529568
9709674 26 18335704961905224083

> <PUBCHEM_SHAPE_MULTIPOLES>
285.22
7.62
3.13
0.61
10.82
0.89
0
-1.4
0.29
-4.95
0.1
0.04
0
-0.31

> <PUBCHEM_SHAPE_SELFOVERLAP>
590.107

> <PUBCHEM_SHAPE_VOLUME>
164.5

> <PUBCHEM_COORDINATE_TYPE>
2
5
10

$$$$
