137130
  -OEChem-11012400373D

 21 20  0     0  0  0  0  0  0999 V2000
   -0.9437    0.1134   -1.7261 S   0  0  0  0  0  0  0  0  0  0  0  0
   -0.6284   -0.0062    0.0872 C   0  0  0  0  0  0  0  0  0  0  0  0
    0.9020   -0.0070    0.4263 C   0  0  0  0  0  0  0  0  0  0  0  0
   -1.3043   -1.2993    0.5803 C   0  0  0  0  0  0  0  0  0  0  0  0
   -1.3405    1.1878    0.7504 C   0  0  0  0  0  0  0  0  0  0  0  0
    1.6528    1.2533   -0.0339 C   0  0  0  0  0  0  0  0  0  0  0  0
    1.6622   -1.2421   -0.0841 C   0  0  0  0  0  0  0  0  0  0  0  0
    0.9851   -0.0310    1.5226 H   0  0  0  0  0  0  0  0  0  0  0  0
   -2.3932   -1.2608    0.4517 H   0  0  0  0  0  0  0  0  0  0  0  0
   -0.9498   -2.1908    0.0520 H   0  0  0  0  0  0  0  0  0  0  0  0
   -1.1135   -1.4504    1.6493 H   0  0  0  0  0  0  0  0  0  0  0  0
   -1.0019    2.1514    0.3555 H   0  0  0  0  0  0  0  0  0  0  0  0
   -1.1601    1.1924    1.8317 H   0  0  0  0  0  0  0  0  0  0  0  0
   -2.4271    1.1427    0.6068 H   0  0  0  0  0  0  0  0  0  0  0  0
    2.6968    1.2165    0.2979 H   0  0  0  0  0  0  0  0  0  0  0  0
    1.6619    1.3533   -1.1235 H   0  0  0  0  0  0  0  0  0  0  0  0
    1.2196    2.1616    0.3937 H   0  0  0  0  0  0  0  0  0  0  0  0
    2.7119   -1.1984    0.2290 H   0  0  0  0  0  0  0  0  0  0  0  0
    1.6524   -1.3104   -1.1759 H   0  0  0  0  0  0  0  0  0  0  0  0
    1.2534   -2.1693    0.3268 H   0  0  0  0  0  0  0  0  0  0  0  0
   -0.4453   -1.0855   -2.0604 H   0  0  0  0  0  0  0  0  0  0  0  0
  1  2  1  0  0  0  0
  1 21  1  0  0  0  0
  2  3  1  0  0  0  0
  2  4  1  0  0  0  0
  2  5  1  0  0  0  0
  3  6  1  0  0  0  0
  3  7  1  0  0  0  0
  3  8  1  0  0  0  0
  4  9  1  0  0  0  0
  4 10  1  0  0  0  0
  4 11  1  0  0  0  0
  5 12  1  0  0  0  0
  5 13  1  0  0  0  0
  5 14  1  0  0  0  0
  6 15  1  0  0  0  0
  6 16  1  0  0  0  0
  6 17  1  0  0  0  0
  7 18  1  0  0  0  0
  7 19  1  0  0  0  0
  7 20  1  0  0  0  0
M  END
> <PUBCHEM_COMPOUND_CID>
137130

> <PUBCHEM_CONFORMER_RMSD>
0.4

> <PUBCHEM_CONFORMER_DIVERSEORDER>
1
2
3

> <PUBCHEM_MMFF94_PARTIAL_CHARGES>
3
1 -0.41
2 0.23
21 0.18

> <PUBCHEM_EFFECTIVE_ROTOR_COUNT>
1

> <PUBCHEM_PHARMACOPHORE_FEATURES>
2
3 2 4 5 hydrophobe
3 3 6 7 hydrophobe

> <PUBCHEM_HEAVY_ATOM_COUNT>
7

> <PUBCHEM_ATOM_DEF_STEREO_COUNT>
0

> <PUBCHEM_ATOM_UDEF_STEREO_COUNT>
0

> <PUBCHEM_BOND_DEF_STEREO_COUNT>
0

> <PUBCHEM_BOND_UDEF_STEREO_COUNT>
0

> <PUBCHEM_ISOTOPIC_ATOM_COUNT>
0

> <PUBCHEM_COMPONENT_COUNT>
1

> <PUBCHEM_CACTVS_TAUTO_COUNT>
1

> <PUBCHEM_CONFORMER_ID>
000217AA00000001

> <PUBCHEM_MMFF94_ENERGY>
17.9381

> <PUBCHEM_FEATURE_SELFOVERLAP>
10.166

> <PUBCHEM_SHAPE_FINGERPRINT>
137420 1 11743565314781934149
20096714 4 18341059505763892656
21040471 1 18268158560484876784
24536 1 18339348725879515672
29004967 10 18123191470035752683
5084963 1 17914334576432197057
5943 1 9818076758318028175

> <PUBCHEM_SHAPE_MULTIPOLES>
147.91
2.2
1.5
1.27
0.65
0.08
0.64
0
-0.05
0.17
-0.26
-0.64
-0.11
0.03

> <PUBCHEM_SHAPE_SELFOVERLAP>
254.277

> <PUBCHEM_SHAPE_VOLUME>
102.1

> <PUBCHEM_COORDINATE_TYPE>
2
5
10

$$$$
