75169
  -OEChem-11012401273D

 14 13  0     1  0  0  0  0  0999 V2000
    1.1171   -1.3045    0.9208 Cl  0  0  0  0  0  0  0  0  0  0  0  0
   -1.1174    1.3047    0.9206 Cl  0  0  0  0  0  0  0  0  0  0  0  0
    0.7375   -0.2243   -0.4581 C   0  0  1  0  0  0  0  0  0  0  0  0
   -0.7374    0.2243   -0.4582 C   0  0  1  0  0  0  0  0  0  0  0  0
    1.7212    0.9429   -0.4625 C   0  0  0  0  0  0  0  0  0  0  0  0
   -1.7210   -0.9431   -0.4626 C   0  0  0  0  0  0  0  0  0  0  0  0
    0.9149   -0.8238   -1.3584 H   0  0  0  0  0  0  0  0  0  0  0  0
   -0.9147    0.8237   -1.3585 H   0  0  0  0  0  0  0  0  0  0  0  0
    2.7464    0.5807   -0.6004 H   0  0  0  0  0  0  0  0  0  0  0  0
    1.6991    1.5140    0.4711 H   0  0  0  0  0  0  0  0  0  0  0  0
    1.5026    1.6292   -1.2876 H   0  0  0  0  0  0  0  0  0  0  0  0
   -1.6990   -1.5141    0.4711 H   0  0  0  0  0  0  0  0  0  0  0  0
   -2.7461   -0.5811   -0.6008 H   0  0  0  0  0  0  0  0  0  0  0  0
   -1.5021   -1.6295   -1.2874 H   0  0  0  0  0  0  0  0  0  0  0  0
  1  3  1  0  0  0  0
  2  4  1  0  0  0  0
  3  4  1  0  0  0  0
  3  5  1  0  0  0  0
  3  7  1  0  0  0  0
  4  6  1  0  0  0  0
  4  8  1  0  0  0  0
  5  9  1  0  0  0  0
  5 10  1  0  0  0  0
  5 11  1  0  0  0  0
  6 12  1  0  0  0  0
  6 13  1  0  0  0  0
  6 14  1  0  0  0  0
M  END
> <PUBCHEM_COMPOUND_CID>
75169

> <PUBCHEM_CONFORMER_RMSD>
0.4

> <PUBCHEM_CONFORMER_DIVERSEORDER>
1
2
3

> <PUBCHEM_MMFF94_PARTIAL_CHARGES>
4
1 -0.29
2 -0.29
3 0.29
4 0.29

> <PUBCHEM_EFFECTIVE_ROTOR_COUNT>
1

> <PUBCHEM_PHARMACOPHORE_FEATURES>
0

> <PUBCHEM_HEAVY_ATOM_COUNT>
6

> <PUBCHEM_ATOM_DEF_STEREO_COUNT>
2

> <PUBCHEM_ATOM_UDEF_STEREO_COUNT>
0

> <PUBCHEM_BOND_DEF_STEREO_COUNT>
0

> <PUBCHEM_BOND_UDEF_STEREO_COUNT>
0

> <PUBCHEM_ISOTOPIC_ATOM_COUNT>
0

> <PUBCHEM_COMPONENT_COUNT>
1

> <PUBCHEM_CACTVS_TAUTO_COUNT>
1

> <PUBCHEM_CONFORMER_ID>
000125A100000001

> <PUBCHEM_MMFF94_ENERGY>
5.0879

> <PUBCHEM_FEATURE_SELFOVERLAP>
0

> <PUBCHEM_SHAPE_FINGERPRINT>
137420 1 14066275236251055485
16714656 1 17488475232980780541
18185500 45 18336537227249833650
20096714 4 18198644145468995276
21040471 1 17557431981001012729
23552333 60 18334285479228950611
24536 1 17987793003859744205
29004967 10 17385724737699371309
5943 1 10847054925272186898

> <PUBCHEM_SHAPE_MULTIPOLES>
127.22
2.21
1.53
1.06
0
0
0.21
0
-0.06
0
0.31
0
0
-0.72

> <PUBCHEM_SHAPE_SELFOVERLAP>
206.197

> <PUBCHEM_SHAPE_VOLUME>
90.5

> <PUBCHEM_COORDINATE_TYPE>
2
5
10

$$$$
