69738
  -OEChem-11012400533D

 28 29  0     0  0  0  0  0  0999 V2000
   -0.0767    0.6008   -1.2093 C   0  0  0  0  0  0  0  0  0  0  0  0
    1.1432    0.0410   -0.5058 C   0  0  0  0  0  0  0  0  0  0  0  0
    2.1358    0.8915   -0.0516 C   0  0  0  0  0  0  0  0  0  0  0  0
   -1.3656    0.2870   -0.5275 C   0  0  0  0  0  0  0  0  0  0  0  0
    1.2297   -1.3302   -0.3357 C   0  0  0  0  0  0  0  0  0  0  0  0
    3.2500    0.3544    0.5932 C   0  0  0  0  0  0  0  0  0  0  0  0
   -1.8741    1.1569    0.4372 C   0  0  0  0  0  0  0  0  0  0  0  0
   -2.0628   -0.8760   -0.8547 C   0  0  0  0  0  0  0  0  0  0  0  0
    2.0471    2.3712   -0.2339 C   0  0  0  0  0  0  0  0  0  0  0  0
    2.3438   -1.8671    0.3093 C   0  0  0  0  0  0  0  0  0  0  0  0
    3.3540   -1.0249    0.7736 C   0  0  0  0  0  0  0  0  0  0  0  0
   -3.0795    0.8636    1.0748 C   0  0  0  0  0  0  0  0  0  0  0  0
   -3.2683   -1.1692   -0.2171 C   0  0  0  0  0  0  0  0  0  0  0  0
   -3.7766   -0.2993    0.7476 C   0  0  0  0  0  0  0  0  0  0  0  0
   -0.0893    0.1871   -2.2283 H   0  0  0  0  0  0  0  0  0  0  0  0
   -0.0244    1.6815   -1.3758 H   0  0  0  0  0  0  0  0  0  0  0  0
    0.4707   -2.0104   -0.7058 H   0  0  0  0  0  0  0  0  0  0  0  0
    4.0466    0.9958    0.9608 H   0  0  0  0  0  0  0  0  0  0  0  0
   -1.3410    2.0660    0.7022 H   0  0  0  0  0  0  0  0  0  0  0  0
   -1.6891   -1.5583   -1.6134 H   0  0  0  0  0  0  0  0  0  0  0  0
    2.9122    2.8818    0.2046 H   0  0  0  0  0  0  0  0  0  0  0  0
    2.0318    2.6315   -1.2973 H   0  0  0  0  0  0  0  0  0  0  0  0
    1.1589    2.7738    0.2635 H   0  0  0  0  0  0  0  0  0  0  0  0
    2.4276   -2.9414    0.4453 H   0  0  0  0  0  0  0  0  0  0  0  0
    4.2221   -1.4433    1.2744 H   0  0  0  0  0  0  0  0  0  0  0  0
   -3.4753    1.5408    1.8260 H   0  0  0  0  0  0  0  0  0  0  0  0
   -3.8128   -2.0731   -0.4740 H   0  0  0  0  0  0  0  0  0  0  0  0
   -4.7156   -0.5272    1.2435 H   0  0  0  0  0  0  0  0  0  0  0  0
  1  2  1  0  0  0  0
  1  4  1  0  0  0  0
  1 15  1  0  0  0  0
  1 16  1  0  0  0  0
  2  3  1  0  0  0  0
  2  5  2  0  0  0  0
  3  6  2  0  0  0  0
  3  9  1  0  0  0  0
  4  7  2  0  0  0  0
  4  8  1  0  0  0  0
  5 10  1  0  0  0  0
  5 17  1  0  0  0  0
  6 11  1  0  0  0  0
  6 18  1  0  0  0  0
  7 12  1  0  0  0  0
  7 19  1  0  0  0  0
  8 13  2  0  0  0  0
  8 20  1  0  0  0  0
  9 21  1  0  0  0  0
  9 22  1  0  0  0  0
  9 23  1  0  0  0  0
 10 11  2  0  0  0  0
 10 24  1  0  0  0  0
 11 25  1  0  0  0  0
 12 14  2  0  0  0  0
 12 26  1  0  0  0  0
 13 14  1  0  0  0  0
 13 27  1  0  0  0  0
 14 28  1  0  0  0  0
M  END
> <PUBCHEM_COMPOUND_CID>
69738

> <PUBCHEM_CONFORMER_RMSD>
0.6

> <PUBCHEM_CONFORMER_DIVERSEORDER>
3
5
2
6
4
1

> <PUBCHEM_MMFF94_PARTIAL_CHARGES>
23
1 0.29
10 -0.15
11 -0.15
12 -0.15
13 -0.15
14 -0.15
17 0.15
18 0.15
19 0.15
2 -0.14
20 0.15
24 0.15
25 0.15
26 0.15
27 0.15
28 0.15
3 -0.14
4 -0.14
5 -0.15
6 -0.15
7 -0.15
8 -0.15
9 0.14

> <PUBCHEM_EFFECTIVE_ROTOR_COUNT>
2

> <PUBCHEM_PHARMACOPHORE_FEATURES>
2
6 2 3 5 6 10 11 rings
6 4 7 8 12 13 14 rings

> <PUBCHEM_HEAVY_ATOM_COUNT>
14

> <PUBCHEM_ATOM_DEF_STEREO_COUNT>
0

> <PUBCHEM_ATOM_UDEF_STEREO_COUNT>
0

> <PUBCHEM_BOND_DEF_STEREO_COUNT>
0

> <PUBCHEM_BOND_UDEF_STEREO_COUNT>
0

> <PUBCHEM_ISOTOPIC_ATOM_COUNT>
0

> <PUBCHEM_COMPONENT_COUNT>
1

> <PUBCHEM_CACTVS_TAUTO_COUNT>
1

> <PUBCHEM_CONFORMER_ID>
0001106A00000003

> <PUBCHEM_MMFF94_ENERGY>
40.3295

> <PUBCHEM_FEATURE_SELFOVERLAP>
10.149

> <PUBCHEM_SHAPE_FINGERPRINT>
11471102 22 18260266352157247816
12251169 10 18413671296648659807
12382932 28 18201435826950606001
12696612 119 18412263917575686388
12932764 1 18335990808810209781
13296908 3 16950559991250975047
13693222 15 18335136501128479489
13764800 53 16128384765771339147
14144814 61 18341612598730290239
14787075 74 17118037868666041581
15375462 189 18187927210292033554
15501101 241 18186519912601639204
15775835 57 17846780740776927104
16945 1 18409443700246542910
19050596 39 18342740749447890051
200 152 18271790346724204215
20279233 1 16877938352048415339
20281407 28 17604149220631777918
20361792 2 16732989708394137567
20559304 39 18342462547173202028
20645477 70 18187632626922213215
20653085 51 10591774168722297495
20711985 344 15575262173958631893
20871998 22 18195528095688967782
21524375 3 17982452904023993620
21730867 7 18260546749018039358
22445834 79 18411139121449103843
2255824 54 18262525904587609444
23463225 33 18412545413863748541
23557571 272 14332839460830956069
23559900 14 17631752477527527565
23590187 214 18337105764987433495
2748010 2 18050269389713153798
5374978 207 18202004335187781507
7097593 13 18269839722406493267

> <PUBCHEM_SHAPE_MULTIPOLES>
288.11
6.54
1.87
1.04
2.09
0.31
0.02
-0.98
-2.12
-1.15
0
0.3
0.05
-0.65

> <PUBCHEM_SHAPE_SELFOVERLAP>
617.567

> <PUBCHEM_SHAPE_VOLUME>
151.4

> <PUBCHEM_COORDINATE_TYPE>
2
5
10

$$$$
