12463390
  -OEChem-11012401053D

 33 32  0     0  0  0  0  0  0999 V2000
   -1.6915   -0.2153    0.0527 O   0  0  0  0  0  0  0  0  0  0  0  0
   -0.6604   -0.2687   -1.9984 O   0  0  0  0  0  0  0  0  0  0  0  0
    2.6988    0.2073   -1.7106 N   0  0  0  0  0  0  0  0  0  0  0  0
    0.6909    0.0754    0.0215 C   0  0  0  0  0  0  0  0  0  0  0  0
    0.6052    1.4681    0.7594 C   0  0  0  0  0  0  0  0  0  0  0  0
    0.9587   -1.1363    0.9965 C   0  0  0  0  0  0  0  0  0  0  0  0
   -0.6091   -0.1637   -0.7776 C   0  0  0  0  0  0  0  0  0  0  0  0
   -0.4859    1.5662    1.8356 C   0  0  0  0  0  0  0  0  0  0  0  0
    0.4365    2.6580   -0.2053 C   0  0  0  0  0  0  0  0  0  0  0  0
    2.2500   -0.9952    1.8197 C   0  0  0  0  0  0  0  0  0  0  0  0
    0.9866   -2.4982    0.2762 C   0  0  0  0  0  0  0  0  0  0  0  0
    1.8205    0.1489   -0.9538 C   0  0  0  0  0  0  0  0  0  0  0  0
   -2.9579   -0.4066   -0.5859 C   0  0  0  0  0  0  0  0  0  0  0  0
   -4.0424   -0.4400    0.4699 C   0  0  0  0  0  0  0  0  0  0  0  0
    1.5646    1.6361    1.2672 H   0  0  0  0  0  0  0  0  0  0  0  0
    0.1272   -1.1999    1.7089 H   0  0  0  0  0  0  0  0  0  0  0  0
   -0.2996    2.4476    2.4617 H   0  0  0  0  0  0  0  0  0  0  0  0
   -1.4857    1.7023    1.4147 H   0  0  0  0  0  0  0  0  0  0  0  0
   -0.4925    0.7055    2.5078 H   0  0  0  0  0  0  0  0  0  0  0  0
    1.2680    2.7341   -0.9119 H   0  0  0  0  0  0  0  0  0  0  0  0
   -0.4943    2.5852   -0.7771 H   0  0  0  0  0  0  0  0  0  0  0  0
    0.4076    3.6007    0.3531 H   0  0  0  0  0  0  0  0  0  0  0  0
    3.1395   -0.9399    1.1847 H   0  0  0  0  0  0  0  0  0  0  0  0
    2.3748   -1.8576    2.4844 H   0  0  0  0  0  0  0  0  0  0  0  0
    2.2238   -0.1073    2.4575 H   0  0  0  0  0  0  0  0  0  0  0  0
    0.0537   -2.6862   -0.2641 H   0  0  0  0  0  0  0  0  0  0  0  0
    1.1068   -3.3112    1.0012 H   0  0  0  0  0  0  0  0  0  0  0  0
    1.8156   -2.5668   -0.4352 H   0  0  0  0  0  0  0  0  0  0  0  0
   -3.1440    0.4192   -1.2815 H   0  0  0  0  0  0  0  0  0  0  0  0
   -2.9490   -1.3532   -1.1375 H   0  0  0  0  0  0  0  0  0  0  0  0
   -5.0263   -0.5863    0.0157 H   0  0  0  0  0  0  0  0  0  0  0  0
   -3.8587   -1.2485    1.1851 H   0  0  0  0  0  0  0  0  0  0  0  0
   -4.0519    0.4938    1.0418 H   0  0  0  0  0  0  0  0  0  0  0  0
  1  7  1  0  0  0  0
  1 13  1  0  0  0  0
  2  7  2  0  0  0  0
  3 12  3  0  0  0  0
  4  5  1  0  0  0  0
  4  6  1  0  0  0  0
  4  7  1  0  0  0  0
  4 12  1  0  0  0  0
  5  8  1  0  0  0  0
  5  9  1  0  0  0  0
  5 15  1  0  0  0  0
  6 10  1  0  0  0  0
  6 11  1  0  0  0  0
  6 16  1  0  0  0  0
  8 17  1  0  0  0  0
  8 18  1  0  0  0  0
  8 19  1  0  0  0  0
  9 20  1  0  0  0  0
  9 21  1  0  0  0  0
  9 22  1  0  0  0  0
 10 23  1  0  0  0  0
 10 24  1  0  0  0  0
 10 25  1  0  0  0  0
 11 26  1  0  0  0  0
 11 27  1  0  0  0  0
 11 28  1  0  0  0  0
 13 14  1  0  0  0  0
 13 29  1  0  0  0  0
 13 30  1  0  0  0  0
 14 31  1  0  0  0  0
 14 32  1  0  0  0  0
 14 33  1  0  0  0  0
M  END
> <PUBCHEM_COMPOUND_CID>
12463390

> <PUBCHEM_CONFORMER_RMSD>
0.6

> <PUBCHEM_CONFORMER_DIVERSEORDER>
1
17
13
18
3
10
16
12
8
23
14
6
11
4
15
22
2
5
19
21
20
9
7

> <PUBCHEM_MMFF94_PARTIAL_CHARGES>
7
1 -0.43
12 0.36
13 0.28
2 -0.57
3 -0.56
4 0.26
7 0.66

> <PUBCHEM_EFFECTIVE_ROTOR_COUNT>
5

> <PUBCHEM_PHARMACOPHORE_FEATURES>
4
1 2 acceptor
1 3 acceptor
3 5 8 9 hydrophobe
3 6 10 11 hydrophobe

> <PUBCHEM_HEAVY_ATOM_COUNT>
14

> <PUBCHEM_ATOM_DEF_STEREO_COUNT>
0

> <PUBCHEM_ATOM_UDEF_STEREO_COUNT>
0

> <PUBCHEM_BOND_DEF_STEREO_COUNT>
0

> <PUBCHEM_BOND_UDEF_STEREO_COUNT>
0

> <PUBCHEM_ISOTOPIC_ATOM_COUNT>
0

> <PUBCHEM_COMPONENT_COUNT>
1

> <PUBCHEM_CACTVS_TAUTO_COUNT>
1

> <PUBCHEM_CONFORMER_ID>
00BE2D1E00000001

> <PUBCHEM_MMFF94_ENERGY>
27.457

> <PUBCHEM_FEATURE_SELFOVERLAP>
20.297

> <PUBCHEM_SHAPE_FINGERPRINT>
10353120 184 18201451280301173669
11086676 242 18202278066111773289
12326174 3 18128517431282860972
12423570 1 10211153384776190760
12592029 89 17022902367928482176
12716301 132 16770704997088568930
12932764 1 18336258042218666367
137420 1 14281355069336464764
14817 1 17413020998553829184
16945 1 18410008857950330199
187816 3 18264790872918516276
21524375 3 17334475594496595881
21922407 69 17973179339223011048
22112679 90 18197230147835419184
22344851 341 17903638832227955282
23380061 451 18335711528925686435
23419403 2 17245783227133046112
430814 3 17398643071523645969
4369600 1 18341619234618344878
528886 8 16951134009140095294
5337951 7 18126018292876650894
54276843 12 17988375826632242133
568465 68 18117811387911217179
68250623 7 17695660388180020382
68419 9 17977400338708420180

> <PUBCHEM_SHAPE_MULTIPOLES>
271.39
4
2.17
1.77
4.61
0.56
0.04
-1.4
0.05
-0.87
-0.58
-0.79
0.13
-0.57

> <PUBCHEM_SHAPE_SELFOVERLAP>
519.363

> <PUBCHEM_SHAPE_VOLUME>
165.9

> <PUBCHEM_COORDINATE_TYPE>
2
5
10

$$$$
