142936
  -OEChem-11012401073D

 22 22  0     0  0  0  0  0  0999 V2000
    2.0156   -0.4558   -0.3612 O   0  0  0  0  0  0  0  0  0  0  0  0
    1.5326    1.5702    0.6190 O   0  0  0  0  0  0  0  0  0  0  0  0
   -2.4340    0.1462   -0.1431 N   0  0  0  0  0  0  0  0  0  0  0  0
   -0.2235    0.0603    0.0522 C   0  0  0  0  0  0  0  0  0  0  0  0
   -1.2973    0.9103   -0.0943 C   0  0  0  0  0  0  0  0  0  0  0  0
   -0.7326   -1.2612    0.0938 C   0  0  0  0  0  0  0  0  0  0  0  0
   -2.1021   -1.1785   -0.0290 C   0  0  0  0  0  0  0  0  0  0  0  0
   -1.3673    2.3814   -0.1947 C   0  0  0  0  0  0  0  0  0  0  0  0
    0.0490   -2.5053    0.2407 C   0  0  0  0  0  0  0  0  0  0  0  0
    1.1459    0.4827    0.1425 C   0  0  0  0  0  0  0  0  0  0  0  0
    3.4138   -0.1503   -0.3261 C   0  0  0  0  0  0  0  0  0  0  0  0
   -3.3749    0.5010   -0.2464 H   0  0  0  0  0  0  0  0  0  0  0  0
   -2.8699   -1.9395   -0.0460 H   0  0  0  0  0  0  0  0  0  0  0  0
   -0.6626    2.7522   -0.9461 H   0  0  0  0  0  0  0  0  0  0  0  0
   -2.3672    2.7230   -0.4828 H   0  0  0  0  0  0  0  0  0  0  0  0
   -1.1193    2.8424    0.7667 H   0  0  0  0  0  0  0  0  0  0  0  0
   -0.6027   -3.3590    0.4564 H   0  0  0  0  0  0  0  0  0  0  0  0
    0.5953   -2.7311   -0.6806 H   0  0  0  0  0  0  0  0  0  0  0  0
    0.7654   -2.4264    1.0648 H   0  0  0  0  0  0  0  0  0  0  0  0
    3.9578   -0.9930   -0.7604 H   0  0  0  0  0  0  0  0  0  0  0  0
    3.7425   -0.0125    0.7081 H   0  0  0  0  0  0  0  0  0  0  0  0
    3.6178    0.7460   -0.9191 H   0  0  0  0  0  0  0  0  0  0  0  0
  1 10  1  0  0  0  0
  1 11  1  0  0  0  0
  2 10  2  0  0  0  0
  3  5  1  0  0  0  0
  3  7  1  0  0  0  0
  3 12  1  0  0  0  0
  4  5  2  0  0  0  0
  4  6  1  0  0  0  0
  4 10  1  0  0  0  0
  5  8  1  0  0  0  0
  6  7  2  0  0  0  0
  6  9  1  0  0  0  0
  7 13  1  0  0  0  0
  8 14  1  0  0  0  0
  8 15  1  0  0  0  0
  8 16  1  0  0  0  0
  9 17  1  0  0  0  0
  9 18  1  0  0  0  0
  9 19  1  0  0  0  0
 11 20  1  0  0  0  0
 11 21  1  0  0  0  0
 11 22  1  0  0  0  0
M  END
> <PUBCHEM_COMPOUND_CID>
142936

> <PUBCHEM_CONFORMER_RMSD>
0.4

> <PUBCHEM_CONFORMER_DIVERSEORDER>
2
5
3
4
6
1

> <PUBCHEM_MMFF94_PARTIAL_CHARGES>
13
1 -0.43
10 0.81
11 0.28
12 0.27
13 0.15
2 -0.57
3 0.03
4 -0.09
5 -0.33
6 -0.18
7 -0.3
8 0.18
9 0.18

> <PUBCHEM_EFFECTIVE_ROTOR_COUNT>
2

> <PUBCHEM_PHARMACOPHORE_FEATURES>
4
1 2 acceptor
1 3 cation
1 3 donor
5 3 4 5 6 7 rings

> <PUBCHEM_HEAVY_ATOM_COUNT>
11

> <PUBCHEM_ATOM_DEF_STEREO_COUNT>
0

> <PUBCHEM_ATOM_UDEF_STEREO_COUNT>
0

> <PUBCHEM_BOND_DEF_STEREO_COUNT>
0

> <PUBCHEM_BOND_UDEF_STEREO_COUNT>
0

> <PUBCHEM_ISOTOPIC_ATOM_COUNT>
0

> <PUBCHEM_COMPONENT_COUNT>
1

> <PUBCHEM_CACTVS_TAUTO_COUNT>
2

> <PUBCHEM_CONFORMER_ID>
00022E5800000002

> <PUBCHEM_MMFF94_ENERGY>
14.3993

> <PUBCHEM_FEATURE_SELFOVERLAP>
20.297

> <PUBCHEM_SHAPE_FINGERPRINT>
11206711 2 18410853235372143133
12423570 1 12857384341798677321
12524768 44 18052250984006223051
12716758 59 18339925922556001306
13024252 1 17894916243207550439
16945 1 18339353081060873123
193761 8 18049440336318135851
20201158 50 18202005434451749230
20871998 184 18199195159708476654
21040471 1 18193551164669844465
23552423 10 18116431638246352534
23559900 14 18127974097574403726
241688 4 18338797947905687347
2748010 2 18266454506651309895
369184 2 14476965579471940606
5084963 1 18202562890761976361
5255222 1 18266455412905383001

> <PUBCHEM_SHAPE_MULTIPOLES>
209.66
3.59
2.35
0.65
2.71
0.16
-0.01
-0.31
0.46
-0.85
-0.15
0.08
-0.03
0.19

> <PUBCHEM_SHAPE_SELFOVERLAP>
432.719

> <PUBCHEM_SHAPE_VOLUME>
123

> <PUBCHEM_COORDINATE_TYPE>
2
5
10

$$$$
