12260655
  -OEChem-11012401243D

 19 19  0     1  0  0  0  0  0999 V2000
    1.0756    2.3948    0.1290 O   0  0  0  0  0  0  0  0  0  0  0  0
   -1.7642    0.2968    0.7338 O   0  0  0  0  0  0  0  0  0  0  0  0
    0.8255   -0.5838    0.4431 O   0  0  0  0  0  0  0  0  0  0  0  0
   -2.5902   -0.4008   -1.1952 O   0  5  0  0  0  0  0  0  0  0  0  0
    2.1835   -1.4085   -1.1115 O   0  5  0  0  0  0  0  0  0  0  0  0
   -2.7674   -1.7381    0.5801 O   0  0  0  0  0  0  0  0  0  0  0  0
    2.8379   -1.4686    1.0192 O   0  0  0  0  0  0  0  0  0  0  0  0
   -2.4330   -0.7103   -0.0136 N   0  3  0  0  0  0  0  0  0  0  0  0
    2.0609   -1.2087    0.0977 N   0  3  0  0  0  0  0  0  0  0  0  0
   -0.8649    1.0625   -0.0366 C   0  0  2  0  0  0  0  0  0  0  0  0
    0.3041    0.2679   -0.5731 C   0  0  1  0  0  0  0  0  0  0  0  0
   -0.1704    2.1247    0.7890 C   0  0  0  0  0  0  0  0  0  0  0  0
    1.3026    1.3722   -0.8620 C   0  0  0  0  0  0  0  0  0  0  0  0
   -1.3849    1.5849   -0.8525 H   0  0  0  0  0  0  0  0  0  0  0  0
    0.0408   -0.3238   -1.4561 H   0  0  0  0  0  0  0  0  0  0  0  0
   -0.7561    3.0465    0.8582 H   0  0  0  0  0  0  0  0  0  0  0  0
    0.0403    1.7861    1.8096 H   0  0  0  0  0  0  0  0  0  0  0  0
    2.3612    1.1085   -0.8279 H   0  0  0  0  0  0  0  0  0  0  0  0
    1.0969    1.8292   -1.8367 H   0  0  0  0  0  0  0  0  0  0  0  0
  1 12  1  0  0  0  0
  1 13  1  0  0  0  0
  2  8  1  0  0  0  0
  2 10  1  0  0  0  0
  3  9  1  0  0  0  0
  3 11  1  0  0  0  0
  4  8  1  0  0  0  0
  5  9  1  0  0  0  0
  6  8  2  0  0  0  0
  7  9  2  0  0  0  0
 10 11  1  0  0  0  0
 10 12  1  0  0  0  0
 10 14  1  0  0  0  0
 11 13  1  0  0  0  0
 11 15  1  0  0  0  0
 12 16  1  0  0  0  0
 12 17  1  0  0  0  0
 13 18  1  0  0  0  0
 13 19  1  0  0  0  0
M  CHG  4   4  -1   5  -1   8   1   9   1
M  END
> <PUBCHEM_COMPOUND_CID>
12260655

> <PUBCHEM_CONFORMER_RMSD>
0.6

> <PUBCHEM_CONFORMER_DIVERSEORDER>
1
13
4
10
3
14
9
12
8
15
11
6
5
2
7

> <PUBCHEM_MMFF94_PARTIAL_CHARGES>
13
1 -0.56
10 0.28
11 0.28
12 0.28
13 0.28
2 -0.27
3 -0.27
4 -0.52
5 -0.52
6 -0.52
7 -0.52
8 1.03
9 1.03

> <PUBCHEM_EFFECTIVE_ROTOR_COUNT>
5

> <PUBCHEM_PHARMACOPHORE_FEATURES>
6
1 1 acceptor
1 4 acceptor
1 5 acceptor
1 6 acceptor
1 7 acceptor
5 1 10 11 12 13 rings

> <PUBCHEM_HEAVY_ATOM_COUNT>
13

> <PUBCHEM_ATOM_DEF_STEREO_COUNT>
2

> <PUBCHEM_ATOM_UDEF_STEREO_COUNT>
0

> <PUBCHEM_BOND_DEF_STEREO_COUNT>
0

> <PUBCHEM_BOND_UDEF_STEREO_COUNT>
0

> <PUBCHEM_ISOTOPIC_ATOM_COUNT>
0

> <PUBCHEM_COMPONENT_COUNT>
1

> <PUBCHEM_CACTVS_TAUTO_COUNT>
1

> <PUBCHEM_CONFORMER_ID>
00BB152F00000001

> <PUBCHEM_MMFF94_ENERGY>
46.3804

> <PUBCHEM_FEATURE_SELFOVERLAP>
30.59

> <PUBCHEM_SHAPE_FINGERPRINT>
1 1 17904761429088948604
14128692 85 18335150769015137676
16945 1 18265334091238622532
20645477 70 18268429225810138383
20653085 51 8934132919246632502
20653091 64 18337399326038973544
20871998 184 17911807864135350069
23552423 10 18261969538513149629
528862 383 18267861877044639148
5493415 88 18334006215949563362
81228 2 18053382089429545128

> <PUBCHEM_SHAPE_MULTIPOLES>
216.49
3.7
2.31
1.03
1.05
0.76
0.11
-2.81
-0.07
-0.76
-0.39
-0.11
-0.09
-0.2

> <PUBCHEM_SHAPE_SELFOVERLAP>
436.163

> <PUBCHEM_SHAPE_VOLUME>
128

> <PUBCHEM_COORDINATE_TYPE>
2
5
10

$$$$
