136048
  -OEChem-11012401073D

 20 22  0     0  0  0  0  0  0999 V2000
   -1.6768   -1.6581    0.0003 N   0  0  0  0  0  0  0  0  0  0  0  0
   -3.0455    0.1946   -0.0005 N   0  0  0  0  0  0  0  0  0  0  0  0
   -2.9031   -1.1321    0.0000 N   0  0  0  0  0  0  0  0  0  0  0  0
    0.5263   -0.4454    0.0003 C   0  0  0  0  0  0  0  0  0  0  0  0
    1.0196    0.8923    0.0003 C   0  0  0  0  0  0  0  0  0  0  0  0
   -0.8953   -0.5636    0.0003 C   0  0  0  0  0  0  0  0  0  0  0  0
   -1.7705    0.6164    0.0000 C   0  0  0  0  0  0  0  0  0  0  0  0
    0.1415    2.0177    0.0000 C   0  0  0  0  0  0  0  0  0  0  0  0
   -1.2646    1.9278   -0.0002 C   0  0  0  0  0  0  0  0  0  0  0  0
    1.4015   -1.5493   -0.0001 C   0  0  0  0  0  0  0  0  0  0  0  0
    2.4114    1.0657    0.0001 C   0  0  0  0  0  0  0  0  0  0  0  0
    2.7765   -1.3334   -0.0004 C   0  0  0  0  0  0  0  0  0  0  0  0
    3.2788   -0.0326   -0.0001 C   0  0  0  0  0  0  0  0  0  0  0  0
    0.5735    3.0200   -0.0001 H   0  0  0  0  0  0  0  0  0  0  0  0
   -1.8959    2.8075   -0.0006 H   0  0  0  0  0  0  0  0  0  0  0  0
    1.0202   -2.5667   -0.0003 H   0  0  0  0  0  0  0  0  0  0  0  0
    2.8418    2.0655    0.0001 H   0  0  0  0  0  0  0  0  0  0  0  0
    3.4591   -2.1781   -0.0008 H   0  0  0  0  0  0  0  0  0  0  0  0
    4.3532    0.1306   -0.0003 H   0  0  0  0  0  0  0  0  0  0  0  0
   -3.7183   -1.7343   -0.0002 H   0  0  0  0  0  0  0  0  0  0  0  0
  1  3  1  0  0  0  0
  1  6  2  0  0  0  0
  2  3  1  0  0  0  0
  2  7  2  0  0  0  0
  3 20  1  0  0  0  0
  4  5  1  0  0  0  0
  4  6  1  0  0  0  0
  4 10  2  0  0  0  0
  5  8  1  0  0  0  0
  5 11  2  0  0  0  0
  6  7  1  0  0  0  0
  7  9  1  0  0  0  0
  8  9  2  0  0  0  0
  8 14  1  0  0  0  0
  9 15  1  0  0  0  0
 10 12  1  0  0  0  0
 10 16  1  0  0  0  0
 11 13  1  0  0  0  0
 11 17  1  0  0  0  0
 12 13  2  0  0  0  0
 12 18  1  0  0  0  0
 13 19  1  0  0  0  0
M  END
> <PUBCHEM_COMPOUND_CID>
136048

> <PUBCHEM_CONFORMER_RMSD>
0.4

> <PUBCHEM_CONFORMER_DIVERSEORDER>
1

> <PUBCHEM_MMFF94_PARTIAL_CHARGES>
18
1 -0.71
10 -0.15
11 -0.15
12 -0.15
13 -0.15
14 0.15
15 0.15
16 0.15
17 0.15
18 0.15
19 0.15
2 -0.71
20 0.27
3 0.57
6 0.29
7 0.29
8 -0.15
9 -0.15

> <PUBCHEM_EFFECTIVE_ROTOR_COUNT>
0

> <PUBCHEM_PHARMACOPHORE_FEATURES>
5
1 1 acceptor
1 2 acceptor
5 1 2 3 6 7 rings
6 4 5 10 11 12 13 rings
6 4 5 6 7 8 9 rings

> <PUBCHEM_HEAVY_ATOM_COUNT>
13

> <PUBCHEM_ATOM_DEF_STEREO_COUNT>
0

> <PUBCHEM_ATOM_UDEF_STEREO_COUNT>
0

> <PUBCHEM_BOND_DEF_STEREO_COUNT>
0

> <PUBCHEM_BOND_UDEF_STEREO_COUNT>
0

> <PUBCHEM_ISOTOPIC_ATOM_COUNT>
0

> <PUBCHEM_COMPONENT_COUNT>
1

> <PUBCHEM_CACTVS_TAUTO_COUNT>
3

> <PUBCHEM_CONFORMER_ID>
0002137000000001

> <PUBCHEM_MMFF94_ENERGY>
37.8074

> <PUBCHEM_FEATURE_SELFOVERLAP>
25.569

> <PUBCHEM_SHAPE_FINGERPRINT>
10608611 8 18411131420525568176
10967382 1 18194401314775486246
11132069 177 18411975871399213664
11206711 2 18336548213855298532
11471102 20 18410006654705960437
12032990 46 18410300228241826235
12382932 28 18413107255699653536
12524768 44 18341336599842312775
12897270 3 18410573989646865574
14144814 61 18411419483876239258
14325111 11 18410855464613215044
16945 1 18410856538323384036
17844478 74 17968387783629487105
193761 8 17690280408939078951
19973954 147 18339081484551108796
20201158 50 18409164415545079234
20871998 184 18201718414376717543
21267235 1 18410583885072596167
21501502 16 18338801100527791792
22721475 48 18411141324682820232
2334 1 18338517559429108202
23463225 33 18408886230787442044
23552423 10 18260833695820066860
23559900 14 18053942854368479174
2748010 2 18411134744708500884
3312278 4 18408889550612539090
528886 8 18411695508671339570
63268167 104 18411422842535448537
7364860 26 18197780118419095552
8809292 202 18261117374083761338

> <PUBCHEM_SHAPE_MULTIPOLES>
252.59
4.54
2.05
0.6
0.38
0.35
0
-1.05
0
-0.23
0
0.05
0.02
0

> <PUBCHEM_SHAPE_SELFOVERLAP>
571.113

> <PUBCHEM_SHAPE_VOLUME>
130.1

> <PUBCHEM_COORDINATE_TYPE>
2
5
10

$$$$
