86210161
  -OEChem-11012400523D

 32 33  0     0  0  0  0  0  0999 V2000
    0.0033   -1.4117   -0.1480 P   0  0  0  0  0  0  0  0  0  0  0  0
   -0.0826   -1.8198   -1.5934 O   0  0  0  0  0  0  0  0  0  0  0  0
    1.4388   -1.2174    0.6342 N   0  0  0  0  0  0  0  0  0  0  0  0
   -0.7963   -0.1347    0.5096 N   0  0  0  0  0  0  0  0  0  0  0  0
   -0.6631   -2.6949    0.9253 C   0  0  0  0  0  0  0  0  0  0  0  0
    2.4606   -0.3130    0.2688 C   0  0  0  0  0  0  0  0  0  0  0  0
   -2.1319    0.2514    0.2721 C   0  0  0  0  0  0  0  0  0  0  0  0
    3.5981   -0.1866    1.0662 C   0  0  0  0  0  0  0  0  0  0  0  0
   -2.6863    1.3175    0.9804 C   0  0  0  0  0  0  0  0  0  0  0  0
    2.3320    0.4535   -0.8893 C   0  0  0  0  0  0  0  0  0  0  0  0
   -2.8984   -0.4330   -0.6709 C   0  0  0  0  0  0  0  0  0  0  0  0
    4.6071    0.7066    0.7055 C   0  0  0  0  0  0  0  0  0  0  0  0
   -4.0072    1.6992    0.7457 C   0  0  0  0  0  0  0  0  0  0  0  0
    3.3408    1.3466   -1.2502 C   0  0  0  0  0  0  0  0  0  0  0  0
   -4.2193   -0.0515   -0.9058 C   0  0  0  0  0  0  0  0  0  0  0  0
    4.4783    1.4731   -0.4528 C   0  0  0  0  0  0  0  0  0  0  0  0
   -4.7738    1.0146   -0.1974 C   0  0  0  0  0  0  0  0  0  0  0  0
    1.6537   -1.7051    1.5014 H   0  0  0  0  0  0  0  0  0  0  0  0
   -0.3608    0.4313    1.2351 H   0  0  0  0  0  0  0  0  0  0  0  0
   -0.0845   -3.6162    0.8060 H   0  0  0  0  0  0  0  0  0  0  0  0
   -0.6328   -2.4061    1.9808 H   0  0  0  0  0  0  0  0  0  0  0  0
   -1.7011   -2.9163    0.6611 H   0  0  0  0  0  0  0  0  0  0  0  0
    3.7119   -0.7774    1.9715 H   0  0  0  0  0  0  0  0  0  0  0  0
   -2.1010    1.8602    1.7183 H   0  0  0  0  0  0  0  0  0  0  0  0
    1.4604    0.3846   -1.5324 H   0  0  0  0  0  0  0  0  0  0  0  0
   -2.5079   -1.2704   -1.2380 H   0  0  0  0  0  0  0  0  0  0  0  0
    5.4927    0.8053    1.3262 H   0  0  0  0  0  0  0  0  0  0  0  0
   -4.4391    2.5293    1.2971 H   0  0  0  0  0  0  0  0  0  0  0  0
    3.2407    1.9443   -2.1515 H   0  0  0  0  0  0  0  0  0  0  0  0
   -4.8171   -0.5852   -1.6390 H   0  0  0  0  0  0  0  0  0  0  0  0
    5.2637    2.1687   -0.7337 H   0  0  0  0  0  0  0  0  0  0  0  0
   -5.8024    1.3114   -0.3800 H   0  0  0  0  0  0  0  0  0  0  0  0
  1  2  2  0  0  0  0
  1  3  1  0  0  0  0
  1  4  1  0  0  0  0
  1  5  1  0  0  0  0
  3  6  1  0  0  0  0
  3 18  1  0  0  0  0
  4  7  1  0  0  0  0
  4 19  1  0  0  0  0
  5 20  1  0  0  0  0
  5 21  1  0  0  0  0
  5 22  1  0  0  0  0
  6  8  2  0  0  0  0
  6 10  1  0  0  0  0
  7  9  2  0  0  0  0
  7 11  1  0  0  0  0
  8 12  1  0  0  0  0
  8 23  1  0  0  0  0
  9 13  1  0  0  0  0
  9 24  1  0  0  0  0
 10 14  2  0  0  0  0
 10 25  1  0  0  0  0
 11 15  2  0  0  0  0
 11 26  1  0  0  0  0
 12 16  2  0  0  0  0
 12 27  1  0  0  0  0
 13 17  2  0  0  0  0
 13 28  1  0  0  0  0
 14 16  1  0  0  0  0
 14 29  1  0  0  0  0
 15 17  1  0  0  0  0
 15 30  1  0  0  0  0
 16 31  1  0  0  0  0
 17 32  1  0  0  0  0
M  END
> <PUBCHEM_COMPOUND_CID>
86210161

> <PUBCHEM_CONFORMER_RMSD>
0.6

> <PUBCHEM_CONFORMER_DIVERSEORDER>
1
41
3
22
42
10
25
35
32
20
15
36
29
26
33
13
6
24
5
14
4
38
37
39
34
23
28
43
44
2
30
9
27
12
7
40
31
11
8
19
17
45
21
18
16

> <PUBCHEM_MMFF94_PARTIAL_CHARGES>
28
1 1.25
10 -0.15
11 -0.15
12 -0.15
13 -0.15
14 -0.15
15 -0.15
16 -0.15
17 -0.15
18 0.4
19 0.4
2 -0.7
23 0.15
24 0.15
25 0.15
26 0.15
27 0.15
28 0.15
29 0.15
3 -0.78
30 0.15
31 0.15
32 0.15
4 -0.78
6 0.1
7 0.1
8 -0.15
9 -0.15

> <PUBCHEM_EFFECTIVE_ROTOR_COUNT>
4

> <PUBCHEM_PHARMACOPHORE_FEATURES>
3
1 2 acceptor
6 6 8 10 12 14 16 rings
6 7 9 11 13 15 17 rings

> <PUBCHEM_HEAVY_ATOM_COUNT>
17

> <PUBCHEM_ATOM_DEF_STEREO_COUNT>
0

> <PUBCHEM_ATOM_UDEF_STEREO_COUNT>
0

> <PUBCHEM_BOND_DEF_STEREO_COUNT>
0

> <PUBCHEM_BOND_UDEF_STEREO_COUNT>
0

> <PUBCHEM_ISOTOPIC_ATOM_COUNT>
0

> <PUBCHEM_COMPONENT_COUNT>
1

> <PUBCHEM_CACTVS_TAUTO_COUNT>
2

> <PUBCHEM_CONFORMER_ID>
0523767100000001

> <PUBCHEM_MMFF94_ENERGY>
47.6607

> <PUBCHEM_FEATURE_SELFOVERLAP>
15.223

> <PUBCHEM_SHAPE_FINGERPRINT>
10498660 4 17846498093411775521
122479 349 18409731789589193634
12507557 5 17967814976626160929
12633257 1 16081087121276719632
12788726 201 17976256064763576618
12892183 10 15864067650389204917
13583140 156 16877947182432617537
13675066 3 15140678072681338841
14123260 362 18412832399362543369
1420 369 9439414518747144932
15188451 53 13984953977988035657
15239191 94 9727631691747051345
15342168 16 18259992565240757429
15342816 4 9367337154752707744
1741750 31 18409171051501764282
18186145 218 18335705979321726351
18222031 100 10809349966000775337
204376 136 18187085052941057995
20671657 53 11239998957969602906
21033648 29 16153694440815767165
21499 59 18335420149590997355
21524375 3 18412260623167166514
2255824 54 18122628258206059147
22620623 9 16844435210727511879
22950370 63 10447926196020564549
23402539 116 17703500048030960876
235170 7 15913611652895499792
23557571 272 17130978935625301182
23559900 14 17271726075284086991
2871803 45 12895358789515899484
298252 57 18131628997740023850
328317 168 18413669119084533433
3323516 105 14476954605851475271
3472631 163 18202845465367021909
4028521 119 17561083609303536057
4325135 7 18334015025818874879
4340502 62 17968669220642478563
465052 167 9655286073292694129
474 4 18334859377106705019
4990 188 16343701023610033752
5104073 3 17605265380476206816
5281201 14 15410898461439975192
5924683 9 15719685367462178753
6328613 192 18261681463163676892
633830 44 18339082583978626623
83771 10 9799692597220536810
960060 61 12175614071020857945

> <PUBCHEM_SHAPE_MULTIPOLES>
337.87
10.12
2.06
1.24
0.21
1.03
0.18
-6.44
-0.08
-0.33
-0.19
0.17
0.06
-1.01

> <PUBCHEM_SHAPE_SELFOVERLAP>
695.616

> <PUBCHEM_SHAPE_VOLUME>
194

> <PUBCHEM_COORDINATE_TYPE>
2
5
10

$$$$
