9591
  -OEChem-11012400573D

 15 15  0     0  0  0  0  0  0999 V2000
    2.8275    0.4776    0.0001 F   0  0  0  0  0  0  0  0  0  0  0  0
    0.5542   -0.2860   -0.0001 C   0  0  0  0  0  0  0  0  0  0  0  0
    0.1418    1.0466   -0.0001 C   0  0  0  0  0  0  0  0  0  0  0  0
   -0.3935   -1.3093    0.0000 C   0  0  0  0  0  0  0  0  0  0  0  0
    2.0085   -0.6165    0.0000 C   0  0  0  0  0  0  0  0  0  0  0  0
   -1.2184    1.3557    0.0000 C   0  0  0  0  0  0  0  0  0  0  0  0
   -1.7538   -1.0002    0.0001 C   0  0  0  0  0  0  0  0  0  0  0  0
   -2.1663    0.3322    0.0000 C   0  0  0  0  0  0  0  0  0  0  0  0
    0.8652    1.8573   -0.0001 H   0  0  0  0  0  0  0  0  0  0  0  0
   -0.0824   -2.3507    0.0000 H   0  0  0  0  0  0  0  0  0  0  0  0
    2.2600   -1.2016   -0.8903 H   0  0  0  0  0  0  0  0  0  0  0  0
    2.2600   -1.2018    0.8903 H   0  0  0  0  0  0  0  0  0  0  0  0
   -1.5398    2.3932    0.0000 H   0  0  0  0  0  0  0  0  0  0  0  0
   -2.4918   -1.7971    0.0001 H   0  0  0  0  0  0  0  0  0  0  0  0
   -3.2253    0.5729    0.0001 H   0  0  0  0  0  0  0  0  0  0  0  0
  1  5  1  0  0  0  0
  2  3  2  0  0  0  0
  2  4  1  0  0  0  0
  2  5  1  0  0  0  0
  3  6  1  0  0  0  0
  3  9  1  0  0  0  0
  4  7  2  0  0  0  0
  4 10  1  0  0  0  0
  5 11  1  0  0  0  0
  5 12  1  0  0  0  0
  6  8  2  0  0  0  0
  6 13  1  0  0  0  0
  7  8  1  0  0  0  0
  7 14  1  0  0  0  0
  8 15  1  0  0  0  0
M  END
> <PUBCHEM_COMPOUND_CID>
9591

> <PUBCHEM_CONFORMER_RMSD>
0.4

> <PUBCHEM_CONFORMER_DIVERSEORDER>
1
2

> <PUBCHEM_MMFF94_PARTIAL_CHARGES>
13
1 -0.34
10 0.15
13 0.15
14 0.15
15 0.15
2 -0.14
3 -0.15
4 -0.15
5 0.48
6 -0.15
7 -0.15
8 -0.15
9 0.15

> <PUBCHEM_EFFECTIVE_ROTOR_COUNT>
1

> <PUBCHEM_PHARMACOPHORE_FEATURES>
1
6 2 3 4 6 7 8 rings

> <PUBCHEM_HEAVY_ATOM_COUNT>
8

> <PUBCHEM_ATOM_DEF_STEREO_COUNT>
0

> <PUBCHEM_ATOM_UDEF_STEREO_COUNT>
0

> <PUBCHEM_BOND_DEF_STEREO_COUNT>
0

> <PUBCHEM_BOND_UDEF_STEREO_COUNT>
0

> <PUBCHEM_ISOTOPIC_ATOM_COUNT>
0

> <PUBCHEM_COMPONENT_COUNT>
1

> <PUBCHEM_CACTVS_TAUTO_COUNT>
1

> <PUBCHEM_CONFORMER_ID>
0000257700000001

> <PUBCHEM_MMFF94_ENERGY>
15.6706

> <PUBCHEM_FEATURE_SELFOVERLAP>
5.074

> <PUBCHEM_SHAPE_FINGERPRINT>
10857977 72 18339352080148760218
16714656 1 18411420604883763399
18185500 45 18335420200782321831
21040471 1 18194683661672736513
23552423 10 18260834752456212470
29004967 10 18336553797228380538
369184 2 16370722634348809904
5084963 1 18200027322517073130

> <PUBCHEM_SHAPE_MULTIPOLES>
157.36
3.07
1.43
0.6
1.55
0.02
0
0.15
0
-0.39
0
-0.04
-0.01
0

> <PUBCHEM_SHAPE_SELFOVERLAP>
323.02

> <PUBCHEM_SHAPE_VOLUME>
91.1

> <PUBCHEM_COORDINATE_TYPE>
2
5
10

$$$$
