274386
  -OEChem-11012401063D

 34 35  0     0  0  0  0  0  0999 V2000
   -0.0298   -0.8471    0.4102 C   0  0  0  0  0  0  0  0  0  0  0  0
   -0.0403   -2.2000   -0.3777 C   0  0  0  0  0  0  0  0  0  0  0  0
    1.2502   -0.0309    0.2384 C   0  0  0  0  0  0  0  0  0  0  0  0
   -1.2507    0.0353    0.1558 C   0  0  0  0  0  0  0  0  0  0  0  0
    1.1144   -3.1166    0.0580 C   0  0  0  0  0  0  0  0  0  0  0  0
   -1.3583   -2.9641   -0.1714 C   0  0  0  0  0  0  0  0  0  0  0  0
    1.6597    0.7819    1.2719 C   0  0  0  0  0  0  0  0  0  0  0  0
   -1.2037    0.9480   -0.8744 C   0  0  0  0  0  0  0  0  0  0  0  0
    1.9488   -0.1375   -0.9436 C   0  0  0  0  0  0  0  0  0  0  0  0
   -2.3547   -0.1138    0.9654 C   0  0  0  0  0  0  0  0  0  0  0  0
    2.8284    1.5270    1.1153 C   0  0  0  0  0  0  0  0  0  0  0  0
   -2.3184    1.7536   -1.1069 C   0  0  0  0  0  0  0  0  0  0  0  0
    3.1177    0.6076   -1.1000 C   0  0  0  0  0  0  0  0  0  0  0  0
   -3.4695    0.6917    0.7328 C   0  0  0  0  0  0  0  0  0  0  0  0
    3.5574    1.4397   -0.0705 C   0  0  0  0  0  0  0  0  0  0  0  0
   -3.4513    1.6254   -0.3034 C   0  0  0  0  0  0  0  0  0  0  0  0
   -0.0542   -1.1274    1.4760 H   0  0  0  0  0  0  0  0  0  0  0  0
    0.0343   -2.0230   -1.4568 H   0  0  0  0  0  0  0  0  0  0  0  0
    2.0976   -2.6869   -0.1476 H   0  0  0  0  0  0  0  0  0  0  0  0
    1.0689   -4.0721   -0.4764 H   0  0  0  0  0  0  0  0  0  0  0  0
    1.0599   -3.3332    1.1307 H   0  0  0  0  0  0  0  0  0  0  0  0
   -2.2055   -2.4373   -0.6204 H   0  0  0  0  0  0  0  0  0  0  0  0
   -1.5654   -3.1264    0.8916 H   0  0  0  0  0  0  0  0  0  0  0  0
   -1.3130   -3.9471   -0.6539 H   0  0  0  0  0  0  0  0  0  0  0  0
    1.0979    0.8564    2.1980 H   0  0  0  0  0  0  0  0  0  0  0  0
   -0.3573    1.0606   -1.5409 H   0  0  0  0  0  0  0  0  0  0  0  0
    1.6329   -0.7497   -1.7791 H   0  0  0  0  0  0  0  0  0  0  0  0
   -2.3779   -0.8334    1.7778 H   0  0  0  0  0  0  0  0  0  0  0  0
    3.1704    2.1755    1.9166 H   0  0  0  0  0  0  0  0  0  0  0  0
   -2.3074    2.4761   -1.9178 H   0  0  0  0  0  0  0  0  0  0  0  0
    3.6826    0.5448   -2.0256 H   0  0  0  0  0  0  0  0  0  0  0  0
   -4.3514    0.5926    1.3588 H   0  0  0  0  0  0  0  0  0  0  0  0
    4.4666    2.0210   -0.1930 H   0  0  0  0  0  0  0  0  0  0  0  0
   -4.3198    2.2515   -0.4854 H   0  0  0  0  0  0  0  0  0  0  0  0
  1  2  1  0  0  0  0
  1  3  1  0  0  0  0
  1  4  1  0  0  0  0
  1 17  1  0  0  0  0
  2  5  1  0  0  0  0
  2  6  1  0  0  0  0
  2 18  1  0  0  0  0
  3  7  2  0  0  0  0
  3  9  1  0  0  0  0
  4  8  2  0  0  0  0
  4 10  1  0  0  0  0
  5 19  1  0  0  0  0
  5 20  1  0  0  0  0
  5 21  1  0  0  0  0
  6 22  1  0  0  0  0
  6 23  1  0  0  0  0
  6 24  1  0  0  0  0
  7 11  1  0  0  0  0
  7 25  1  0  0  0  0
  8 12  1  0  0  0  0
  8 26  1  0  0  0  0
  9 13  2  0  0  0  0
  9 27  1  0  0  0  0
 10 14  2  0  0  0  0
 10 28  1  0  0  0  0
 11 15  2  0  0  0  0
 11 29  1  0  0  0  0
 12 16  2  0  0  0  0
 12 30  1  0  0  0  0
 13 15  1  0  0  0  0
 13 31  1  0  0  0  0
 14 16  1  0  0  0  0
 14 32  1  0  0  0  0
 15 33  1  0  0  0  0
 16 34  1  0  0  0  0
M  END
> <PUBCHEM_COMPOUND_CID>
274386

> <PUBCHEM_CONFORMER_RMSD>
0.6

> <PUBCHEM_CONFORMER_DIVERSEORDER>
1
3
4
2

> <PUBCHEM_MMFF94_PARTIAL_CHARGES>
23
1 0.29
10 -0.15
11 -0.15
12 -0.15
13 -0.15
14 -0.15
15 -0.15
16 -0.15
25 0.15
26 0.15
27 0.15
28 0.15
29 0.15
3 -0.14
30 0.15
31 0.15
32 0.15
33 0.15
34 0.15
4 -0.14
7 -0.15
8 -0.15
9 -0.15

> <PUBCHEM_EFFECTIVE_ROTOR_COUNT>
3

> <PUBCHEM_PHARMACOPHORE_FEATURES>
3
3 2 5 6 hydrophobe
6 3 7 9 11 13 15 rings
6 4 8 10 12 14 16 rings

> <PUBCHEM_HEAVY_ATOM_COUNT>
16

> <PUBCHEM_ATOM_DEF_STEREO_COUNT>
0

> <PUBCHEM_ATOM_UDEF_STEREO_COUNT>
0

> <PUBCHEM_BOND_DEF_STEREO_COUNT>
0

> <PUBCHEM_BOND_UDEF_STEREO_COUNT>
0

> <PUBCHEM_ISOTOPIC_ATOM_COUNT>
0

> <PUBCHEM_COMPONENT_COUNT>
1

> <PUBCHEM_CACTVS_TAUTO_COUNT>
1

> <PUBCHEM_CONFORMER_ID>
00042FD200000001

> <PUBCHEM_MMFF94_ENERGY>
52.1953

> <PUBCHEM_FEATURE_SELFOVERLAP>
15.223

> <PUBCHEM_SHAPE_FINGERPRINT>
1 1 18338233739421606438
10165383 225 18267607786742867737
107287 299 18336553698771102193
11031198 65 18340486656037486877
11132069 177 18186806889579363109
11322862 65 18270690886056014167
12138202 97 18200594825447019102
12173636 292 18339641260244416141
12532896 13 18341328989228920358
12716301 132 18198612427478315290
12730499 353 18339368453339818833
13134695 92 17692229860219274910
13294875 104 18200579320768198074
13681431 1 17621036465035674510
13764800 53 18260553307565573417
14614273 12 18337943601654115263
14648413 74 17829608357942612829
15219456 202 18116441332214301935
15309172 13 18409733967137638665
15490181 7 18411698789842088014
15775835 57 18410857667757208720
16945 1 18262517112541400555
17134986 127 18409445869215739228
17357779 13 17697866326549515319
18186145 218 18202572760760593120
18219364 16 18342466970899931201
201361 129 17984439442203917465
20361792 2 8142082087147601953
20510252 161 18055072335132945034
20600515 1 16967970989599606058
20645477 56 18267308801817546016
20671657 1 18269551637448740155
20711985 344 17979064208960152658
20871998 184 18189627192754760971
21041028 32 17549829880149348265
21296965 12 18041266695573228965
21524375 3 18407757027787206299
21639500 275 18197771116304247517
22112679 90 17686076280291125295
23402539 116 17838041968489063022
23419403 2 17180592027281384266
23557571 272 17619062176465910548
23559900 14 17678467359490388991
23598294 1 18191014819257283842
238 59 18123451814058106565
25 1 18060430092334298648
2748010 2 18042973069058192725
305870 269 18337944610928952458
3071541 158 17831017927343646214
3082319 5 15482950561966954169
350125 39 18410577283687003634
458136 41 18267603346026018323
495365 180 18122606276832054493
633830 44 17917721166772184601
6442390 28 18340498853924098635
7364860 26 18122621652334692231
81228 2 17906730658741047738
84936 182 18128251177728698649

> <PUBCHEM_SHAPE_MULTIPOLES>
329.27
5.58
2.9
1.18
0.08
3.09
0.03
-4.16
0.06
0.26
-0.27
-0.22
-0.41
0.57

> <PUBCHEM_SHAPE_SELFOVERLAP>
698.797

> <PUBCHEM_SHAPE_VOLUME>
176.4

> <PUBCHEM_COORDINATE_TYPE>
2
5
10

$$$$
