33054
  -OEChem-11012401213D

 34 35  0     1  0  0  0  0  0999 V2000
    0.6490    0.6355   -0.2787 C   0  0  1  0  0  0  0  0  0  0  0  0
    0.8633   -0.7874    0.2736 C   0  0  1  0  0  0  0  0  0  0  0  0
   -0.7102    1.1929    0.1665 C   0  0  0  0  0  0  0  0  0  0  0  0
   -1.8616    0.2667   -0.2517 C   0  0  1  0  0  0  0  0  0  0  0  0
   -0.2800   -1.7136   -0.1581 C   0  0  0  0  0  0  0  0  0  0  0  0
    1.7935    1.5626    0.1519 C   0  0  0  0  0  0  0  0  0  0  0  0
    2.2225   -1.3435   -0.1706 C   0  0  0  0  0  0  0  0  0  0  0  0
   -1.6381   -1.1590    0.2689 C   0  0  0  0  0  0  0  0  0  0  0  0
    3.1513    1.0056   -0.2712 C   0  0  0  0  0  0  0  0  0  0  0  0
    3.3647   -0.4162    0.2394 C   0  0  0  0  0  0  0  0  0  0  0  0
   -3.2001    0.8158    0.2394 C   0  0  0  0  0  0  0  0  0  0  0  0
   -4.3542   -0.0592   -0.2095 C   0  0  0  0  0  0  0  0  0  0  0  0
    0.6501    0.5881   -1.3773 H   0  0  0  0  0  0  0  0  0  0  0  0
    0.8617   -0.7398    1.3722 H   0  0  0  0  0  0  0  0  0  0  0  0
   -0.7171    1.3250    1.2566 H   0  0  0  0  0  0  0  0  0  0  0  0
   -0.8606    2.1869   -0.2732 H   0  0  0  0  0  0  0  0  0  0  0  0
   -1.8830    0.2309   -1.3499 H   0  0  0  0  0  0  0  0  0  0  0  0
   -0.1416   -2.7083    0.2822 H   0  0  0  0  0  0  0  0  0  0  0  0
   -0.2669   -1.8434   -1.2477 H   0  0  0  0  0  0  0  0  0  0  0  0
    1.7794    1.6943    1.2413 H   0  0  0  0  0  0  0  0  0  0  0  0
    1.6571    2.5565   -0.2906 H   0  0  0  0  0  0  0  0  0  0  0  0
    2.2358   -1.4750   -1.2600 H   0  0  0  0  0  0  0  0  0  0  0  0
    2.3846   -2.3337    0.2715 H   0  0  0  0  0  0  0  0  0  0  0  0
   -2.4046   -1.8420   -0.1119 H   0  0  0  0  0  0  0  0  0  0  0  0
   -1.7075   -1.1747    1.3640 H   0  0  0  0  0  0  0  0  0  0  0  0
    3.9493    1.6557    0.1050 H   0  0  0  0  0  0  0  0  0  0  0  0
    3.2226    1.0137   -1.3658 H   0  0  0  0  0  0  0  0  0  0  0  0
    4.3130   -0.8076   -0.1458 H   0  0  0  0  0  0  0  0  0  0  0  0
    3.4465   -0.4016    1.3334 H   0  0  0  0  0  0  0  0  0  0  0  0
   -3.3460    1.8263   -0.1613 H   0  0  0  0  0  0  0  0  0  0  0  0
   -3.2102    0.9019    1.3325 H   0  0  0  0  0  0  0  0  0  0  0  0
   -4.3088   -0.2680   -1.2832 H   0  0  0  0  0  0  0  0  0  0  0  0
   -4.3868   -1.0078    0.3342 H   0  0  0  0  0  0  0  0  0  0  0  0
   -5.3029    0.4512   -0.0104 H   0  0  0  0  0  0  0  0  0  0  0  0
  1  2  1  0  0  0  0
  1  3  1  0  0  0  0
  1  6  1  0  0  0  0
  1 13  1  0  0  0  0
  2  5  1  0  0  0  0
  2  7  1  0  0  0  0
  2 14  1  0  0  0  0
  3  4  1  0  0  0  0
  3 15  1  0  0  0  0
  3 16  1  0  0  0  0
  4  8  1  0  0  0  0
  4 11  1  0  0  0  0
  4 17  1  0  0  0  0
  5  8  1  0  0  0  0
  5 18  1  0  0  0  0
  5 19  1  0  0  0  0
  6  9  1  0  0  0  0
  6 20  1  0  0  0  0
  6 21  1  0  0  0  0
  7 10  1  0  0  0  0
  7 22  1  0  0  0  0
  7 23  1  0  0  0  0
  8 24  1  0  0  0  0
  8 25  1  0  0  0  0
  9 10  1  0  0  0  0
  9 26  1  0  0  0  0
  9 27  1  0  0  0  0
 10 28  1  0  0  0  0
 10 29  1  0  0  0  0
 11 12  1  0  0  0  0
 11 30  1  0  0  0  0
 11 31  1  0  0  0  0
 12 32  1  0  0  0  0
 12 33  1  0  0  0  0
 12 34  1  0  0  0  0
M  END
> <PUBCHEM_COMPOUND_CID>
33054

> <PUBCHEM_CONFORMER_RMSD>
0.6

> <PUBCHEM_CONFORMER_DIVERSEORDER>
1
10
2
12
14
9
5
7
8
6
13
4
11
3
15

> <PUBCHEM_MMFF94_PARTIAL_CHARGES>
0

> <PUBCHEM_EFFECTIVE_ROTOR_COUNT>
2.6

> <PUBCHEM_PHARMACOPHORE_FEATURES>
3
1 12 hydrophobe
6 1 2 3 4 5 8 rings
6 1 2 6 7 9 10 rings

> <PUBCHEM_HEAVY_ATOM_COUNT>
12

> <PUBCHEM_ATOM_DEF_STEREO_COUNT>
0

> <PUBCHEM_ATOM_UDEF_STEREO_COUNT>
3

> <PUBCHEM_BOND_DEF_STEREO_COUNT>
0

> <PUBCHEM_BOND_UDEF_STEREO_COUNT>
0

> <PUBCHEM_ISOTOPIC_ATOM_COUNT>
0

> <PUBCHEM_COMPONENT_COUNT>
1

> <PUBCHEM_CACTVS_TAUTO_COUNT>
1

> <PUBCHEM_CONFORMER_ID>
0000811E00000001

> <PUBCHEM_MMFF94_ENERGY>
11.9328

> <PUBCHEM_FEATURE_SELFOVERLAP>
15.24

> <PUBCHEM_SHAPE_FINGERPRINT>
10130415 120 18335978692860247098
10219947 1 18333453127362249365
10608611 8 18408601470066200709
10967382 1 18410856555365934282
10980938 120 18410293583974690770
11132069 177 18412819196506455442
11471102 20 18410008827590160053
12032990 46 18409455764946989547
12932764 1 17095793378214964778
13380535 21 18336276737546641222
13380535 76 18410575101885542387
13690532 89 18337670819691094714
13897977 150 18338795718670090789
14144814 61 18411702067012664473
14251717 144 18411978044657966111
14325111 11 18410575084937573901
14897335 6 18411978104460369582
14911166 2 18411427198064725470
14993402 34 18411140225092025878
15536298 74 18343582936689524070
15775835 57 18336551598421383204
16945 1 18410296882662548354
17844478 74 17894634729734500245
18186145 218 18341054016990834621
193761 8 17834396000805092713
20201158 50 18410576167031955714
20606313 2 18411135818471560260
20645476 183 17823435953019993374
20645477 70 18339356367133068927
21501502 16 18337668749469372310
23235685 24 18410849966938966665
23402539 116 18202273693661063853
23402655 69 18341607093115174957
23463225 33 18408040693207566308
23552423 10 18188772893594484654
23559900 14 18199758093616321292
2748010 2 18266182905646209142
449060 62 18411704283120668136
528886 8 18411133653813207498
53812653 166 18341890835539186200
581208 293 18411696586528730692
63268167 104 18411985749523314176
69090 78 18341326764673166511
7364860 26 18342458093635130910

> <PUBCHEM_SHAPE_MULTIPOLES>
246.95
6.16
1.69
0.67
3.29
0.19
0
-0.74
-0.15
-0.55
0.01
0
0
-0.07

> <PUBCHEM_SHAPE_SELFOVERLAP>
491.93

> <PUBCHEM_SHAPE_VOLUME>
144

> <PUBCHEM_COORDINATE_TYPE>
2
5
10

$$$$
