14510873
  -OEChem-11012401133D

 23 23  0     0  0  0  0  0  0999 V2000
    1.0816   -1.2496    0.4993 O   0  0  0  0  0  0  0  0  0  0  0  0
    3.4867   -0.8118   -1.0886 O   0  0  0  0  0  0  0  0  0  0  0  0
   -0.0341    0.7790    0.1057 N   0  0  0  0  0  0  0  0  0  0  0  0
    4.7517    0.4711    0.3386 N   0  0  0  0  0  0  0  0  0  0  0  0
   -1.3916    0.3863    0.0286 C   0  0  0  0  0  0  0  0  0  0  0  0
    2.3559    0.7757    0.3313 C   0  0  0  0  0  0  0  0  0  0  0  0
    1.0730   -0.0363    0.3156 C   0  0  0  0  0  0  0  0  0  0  0  0
   -2.3641    1.3483   -0.1878 C   0  0  0  0  0  0  0  0  0  0  0  0
   -1.7183   -0.9520    0.1703 C   0  0  0  0  0  0  0  0  0  0  0  0
   -3.7019    0.9608   -0.2645 C   0  0  0  0  0  0  0  0  0  0  0  0
   -3.0561   -1.3396    0.0934 C   0  0  0  0  0  0  0  0  0  0  0  0
   -4.0478   -0.3831   -0.1240 C   0  0  0  0  0  0  0  0  0  0  0  0
    3.5648    0.0513   -0.2177 C   0  0  0  0  0  0  0  0  0  0  0  0
    2.5365    1.0711    1.3715 H   0  0  0  0  0  0  0  0  0  0  0  0
    2.2406    1.6909   -0.2612 H   0  0  0  0  0  0  0  0  0  0  0  0
    0.1291    1.7773   -0.0060 H   0  0  0  0  0  0  0  0  0  0  0  0
   -2.1055    2.3976   -0.2988 H   0  0  0  0  0  0  0  0  0  0  0  0
   -1.0112   -1.7506    0.3380 H   0  0  0  0  0  0  0  0  0  0  0  0
   -4.4742    1.7054   -0.4339 H   0  0  0  0  0  0  0  0  0  0  0  0
   -3.3269   -2.3858    0.2020 H   0  0  0  0  0  0  0  0  0  0  0  0
   -5.0894   -0.6848   -0.1840 H   0  0  0  0  0  0  0  0  0  0  0  0
    5.6352    0.0648    0.0493 H   0  0  0  0  0  0  0  0  0  0  0  0
    4.7949    1.1956    1.0481 H   0  0  0  0  0  0  0  0  0  0  0  0
  1  7  2  0  0  0  0
  2 13  2  0  0  0  0
  3  5  1  0  0  0  0
  3  7  1  0  0  0  0
  3 16  1  0  0  0  0
  4 13  1  0  0  0  0
  4 22  1  0  0  0  0
  4 23  1  0  0  0  0
  5  8  2  0  0  0  0
  5  9  1  0  0  0  0
  6  7  1  0  0  0  0
  6 13  1  0  0  0  0
  6 14  1  0  0  0  0
  6 15  1  0  0  0  0
  8 10  1  0  0  0  0
  8 17  1  0  0  0  0
  9 11  2  0  0  0  0
  9 18  1  0  0  0  0
 10 12  2  0  0  0  0
 10 19  1  0  0  0  0
 11 12  1  0  0  0  0
 11 20  1  0  0  0  0
 12 21  1  0  0  0  0
M  END
> <PUBCHEM_COMPOUND_CID>
14510873

> <PUBCHEM_CONFORMER_RMSD>
0.6

> <PUBCHEM_CONFORMER_DIVERSEORDER>
1
26
24
11
14
9
16
17
27
2
18
13
12
15
20
10
4
19
22
8
5
23
25
7
21
6
3

> <PUBCHEM_MMFF94_PARTIAL_CHARGES>
21
1 -0.57
10 -0.15
11 -0.15
12 -0.15
13 0.57
16 0.37
17 0.15
18 0.15
19 0.15
2 -0.57
20 0.15
21 0.15
22 0.37
23 0.37
3 -0.55
4 -0.8
5 0.12
6 0.12
7 0.57
8 -0.15
9 -0.15

> <PUBCHEM_EFFECTIVE_ROTOR_COUNT>
4

> <PUBCHEM_PHARMACOPHORE_FEATURES>
6
1 1 acceptor
1 2 acceptor
1 3 donor
1 4 donor
1 6 anion
6 5 8 9 10 11 12 rings

> <PUBCHEM_HEAVY_ATOM_COUNT>
13

> <PUBCHEM_ATOM_DEF_STEREO_COUNT>
0

> <PUBCHEM_ATOM_UDEF_STEREO_COUNT>
0

> <PUBCHEM_BOND_DEF_STEREO_COUNT>
0

> <PUBCHEM_BOND_UDEF_STEREO_COUNT>
0

> <PUBCHEM_ISOTOPIC_ATOM_COUNT>
0

> <PUBCHEM_COMPONENT_COUNT>
1

> <PUBCHEM_CACTVS_TAUTO_COUNT>
4

> <PUBCHEM_CONFORMER_ID>
00DD6B1900000001

> <PUBCHEM_MMFF94_ENERGY>
33.0434

> <PUBCHEM_FEATURE_SELFOVERLAP>
30.448

> <PUBCHEM_SHAPE_FINGERPRINT>
11062470 55 14418130720869994477
12032990 46 18342462559920674553
12932764 1 17676476246632075409
14144814 61 18334008367917822881
14325111 11 18410011039772662976
17834074 16 18342741814410154654
18186145 218 18408885122591167984
190213 19 18131071532443554048
1986462 14 18409168805207202349
200 152 17203323416878767029
20279233 1 18202004330634442102
20645477 56 18336264557431197269
20645477 70 17560523902556878086
21119208 17 18187083957476224205
22485316 2 17775002396970214134
23402539 116 18334566958310581732
23402655 69 18341047436858337525
23559900 14 18341891849531126506
3312278 4 18409448085719355979
4990 188 18343023272423079070
573450 72 18114166519760207880
77779 3 18412546513491381844

> <PUBCHEM_SHAPE_MULTIPOLES>
245.83
8.58
1.3
0.72
5.16
0.08
0.07
-0.2
0.8
-0.83
0
0.28
0.06
0.38

> <PUBCHEM_SHAPE_SELFOVERLAP>
507.056

> <PUBCHEM_SHAPE_VOLUME>
139.7

> <PUBCHEM_COORDINATE_TYPE>
2
5
10

$$$$
