138175
  -OEChem-10312420062D

 23 22  0     0  0  0  0  0  0999 V2000
    3.7320    0.0000    0.0000 Sn  0  0  0  0  0  0  0  0  0  0  0  0
    4.5981    0.5000    0.0000 C   0  0  0  0  0  0  0  0  0  0  0  0
    2.8660   -0.5000    0.0000 C   0  0  0  0  0  0  0  0  0  0  0  0
    3.2320    0.8660    0.0000 C   0  0  0  0  0  0  0  0  0  0  0  0
    4.2320   -0.8660    0.0000 C   0  0  0  0  0  0  0  0  0  0  0  0
    5.4641    0.0000    0.0000 C   0  0  0  0  0  0  0  0  0  0  0  0
    2.0000   -0.0000    0.0000 C   0  0  0  0  0  0  0  0  0  0  0  0
    4.9966    0.9749    0.0000 H   0  0  0  0  0  0  0  0  0  0  0  0
    4.1996    0.9749    0.0000 H   0  0  0  0  0  0  0  0  0  0  0  0
    2.4675   -0.9749    0.0000 H   0  0  0  0  0  0  0  0  0  0  0  0
    3.2646   -0.9749    0.0000 H   0  0  0  0  0  0  0  0  0  0  0  0
    3.7690    1.1760    0.0000 H   0  0  0  0  0  0  0  0  0  0  0  0
    2.9220    1.4030    0.0000 H   0  0  0  0  0  0  0  0  0  0  0  0
    2.6951    0.5560    0.0000 H   0  0  0  0  0  0  0  0  0  0  0  0
    3.6951   -1.1760    0.0000 H   0  0  0  0  0  0  0  0  0  0  0  0
    4.5420   -1.4030    0.0000 H   0  0  0  0  0  0  0  0  0  0  0  0
    4.7690   -0.5560    0.0000 H   0  0  0  0  0  0  0  0  0  0  0  0
    5.1541   -0.5369    0.0000 H   0  0  0  0  0  0  0  0  0  0  0  0
    6.0010   -0.3100    0.0000 H   0  0  0  0  0  0  0  0  0  0  0  0
    5.7741    0.5369    0.0000 H   0  0  0  0  0  0  0  0  0  0  0  0
    2.3100    0.5369    0.0000 H   0  0  0  0  0  0  0  0  0  0  0  0
    1.4631    0.3100    0.0000 H   0  0  0  0  0  0  0  0  0  0  0  0
    1.6900   -0.5369    0.0000 H   0  0  0  0  0  0  0  0  0  0  0  0
  1  2  1  0  0  0  0
  1  3  1  0  0  0  0
  1  4  1  0  0  0  0
  1  5  1  0  0  0  0
  2  6  1  0  0  0  0
  2  8  1  0  0  0  0
  2  9  1  0  0  0  0
  3  7  1  0  0  0  0
  3 10  1  0  0  0  0
  3 11  1  0  0  0  0
  4 12  1  0  0  0  0
  4 13  1  0  0  0  0
  4 14  1  0  0  0  0
  5 15  1  0  0  0  0
  5 16  1  0  0  0  0
  5 17  1  0  0  0  0
  6 18  1  0  0  0  0
  6 19  1  0  0  0  0
  6 20  1  0  0  0  0
  7 21  1  0  0  0  0
  7 22  1  0  0  0  0
  7 23  1  0  0  0  0
M  END
> <PUBCHEM_COMPOUND_CID>
138175

> <PUBCHEM_COMPOUND_CANONICALIZED>
1

> <PUBCHEM_CACTVS_COMPLEXITY>
42.1

> <PUBCHEM_CACTVS_HBOND_ACCEPTOR>
0

> <PUBCHEM_CACTVS_HBOND_DONOR>
0

> <PUBCHEM_CACTVS_ROTATABLE_BOND>
2

> <PUBCHEM_CACTVS_SUBSKEYS>
AAADceBgAAAAAAAAAACAAAAAAAAAAAAAAAAAAAAAAAAAAAAAAAAAGAAAAAAAAACAAAACAAAAAAAAAAAAAAAAAAAAAAAAAAAAAAAAAAAAAAAAAAAAAAAAAAAAAAAAAAAAAAAAAAAAAAAAAAAAAAAAAAAAAA==

> <PUBCHEM_IUPAC_OPENEYE_NAME>
diethyl(dimethyl)stannane

> <PUBCHEM_IUPAC_CAS_NAME>
diethyl(dimethyl)stannane

> <PUBCHEM_IUPAC_NAME_MARKUP>
diethyl(dimethyl)stannane

> <PUBCHEM_IUPAC_NAME>
diethyl(dimethyl)stannane

> <PUBCHEM_IUPAC_SYSTEMATIC_NAME>
diethyl(dimethyl)stannane

> <PUBCHEM_IUPAC_TRADITIONAL_NAME>
diethyl(dimethyl)stannane

> <PUBCHEM_IUPAC_INCHI>
InChI=1S/2C2H5.2CH3.Sn/c2*1-2;;;/h2*1H2,2H3;2*1H3;

> <PUBCHEM_IUPAC_INCHIKEY>
KQEIOCQUCGCMHX-UHFFFAOYSA-N

> <PUBCHEM_EXACT_MASS>
208.027403

> <PUBCHEM_MOLECULAR_FORMULA>
C6H16Sn

> <PUBCHEM_MOLECULAR_WEIGHT>
206.90

> <PUBCHEM_OPENEYE_CAN_SMILES>
CC[Sn](C)(C)CC

> <PUBCHEM_OPENEYE_ISO_SMILES>
CC[Sn](C)(C)CC

> <PUBCHEM_CACTVS_TPSA>
0

> <PUBCHEM_MONOISOTOPIC_WEIGHT>
208.027403

> <PUBCHEM_TOTAL_CHARGE>
0

> <PUBCHEM_HEAVY_ATOM_COUNT>
7

> <PUBCHEM_ATOM_DEF_STEREO_COUNT>
0

> <PUBCHEM_ATOM_UDEF_STEREO_COUNT>
0

> <PUBCHEM_BOND_DEF_STEREO_COUNT>
0

> <PUBCHEM_BOND_UDEF_STEREO_COUNT>
0

> <PUBCHEM_ISOTOPIC_ATOM_COUNT>
0

> <PUBCHEM_COMPONENT_COUNT>
1

> <PUBCHEM_CACTVS_TAUTO_COUNT>
-1

> <PUBCHEM_COORDINATE_TYPE>
1
5
255

$$$$
