123123
  -OEChem-11012400483D

 52 53  0     0  0  0  0  0  0999 V2000
   -4.4470   -0.1976    0.3982 C   0  0  0  0  0  0  0  0  0  0  0  0
    4.4528    0.2031    0.4070 C   0  0  0  0  0  0  0  0  0  0  0  0
   -4.5878    0.7706   -0.7841 C   0  0  0  0  0  0  0  0  0  0  0  0
   -5.5711   -1.2422    0.3859 C   0  0  0  0  0  0  0  0  0  0  0  0
    5.5767    1.2479    0.3886 C   0  0  0  0  0  0  0  0  0  0  0  0
    4.5843   -0.7620   -0.7789 C   0  0  0  0  0  0  0  0  0  0  0  0
   -3.0789   -0.8770    0.3790 C   0  0  0  0  0  0  0  0  0  0  0  0
    3.0846    0.8825    0.4005 C   0  0  0  0  0  0  0  0  0  0  0  0
   -5.9681    1.4230   -0.8170 C   0  0  0  0  0  0  0  0  0  0  0  0
   -6.9496   -0.5865    0.3509 C   0  0  0  0  0  0  0  0  0  0  0  0
    6.9550    0.5924    0.3408 C   0  0  0  0  0  0  0  0  0  0  0  0
    5.9642   -1.4142   -0.8245 C   0  0  0  0  0  0  0  0  0  0  0  0
   -7.0829    0.3817   -0.8203 C   0  0  0  0  0  0  0  0  0  0  0  0
    7.0790   -0.3728   -0.8340 C   0  0  0  0  0  0  0  0  0  0  0  0
   -1.9447    0.1462    0.4345 C   0  0  0  0  0  0  0  0  0  0  0  0
    1.9524   -0.1438    0.4578 C   0  0  0  0  0  0  0  0  0  0  0  0
   -0.5764   -0.5394    0.4492 C   0  0  0  0  0  0  0  0  0  0  0  0
    0.5575    0.4881    0.4661 C   0  0  0  0  0  0  0  0  0  0  0  0
   -4.5335    0.3814    1.3282 H   0  0  0  0  0  0  0  0  0  0  0  0
    4.5468   -0.3784    1.3348 H   0  0  0  0  0  0  0  0  0  0  0  0
   -4.4122    0.2414   -1.7292 H   0  0  0  0  0  0  0  0  0  0  0  0
   -3.8570    1.5828   -0.7250 H   0  0  0  0  0  0  0  0  0  0  0  0
   -5.4979   -1.8814    1.2739 H   0  0  0  0  0  0  0  0  0  0  0  0
   -5.4623   -1.8980   -0.4874 H   0  0  0  0  0  0  0  0  0  0  0  0
    5.5105    1.8847    1.2788 H   0  0  0  0  0  0  0  0  0  0  0  0
    5.4608    1.9060   -0.4822 H   0  0  0  0  0  0  0  0  0  0  0  0
    4.4006   -0.2308   -1.7213 H   0  0  0  0  0  0  0  0  0  0  0  0
    3.8563   -1.5762   -0.7161 H   0  0  0  0  0  0  0  0  0  0  0  0
   -2.9747   -1.4919   -0.5239 H   0  0  0  0  0  0  0  0  0  0  0  0
   -2.9970   -1.5564    1.2366 H   0  0  0  0  0  0  0  0  0  0  0  0
    2.9723    1.5009   -0.4989 H   0  0  0  0  0  0  0  0  0  0  0  0
    3.0047    1.5571    1.2619 H   0  0  0  0  0  0  0  0  0  0  0  0
   -6.0835    2.0779    0.0555 H   0  0  0  0  0  0  0  0  0  0  0  0
   -6.0550    2.0578   -1.7061 H   0  0  0  0  0  0  0  0  0  0  0  0
   -7.1213   -0.0481    1.2912 H   0  0  0  0  0  0  0  0  0  0  0  0
   -7.7233   -1.3594    0.2799 H   0  0  0  0  0  0  0  0  0  0  0  0
    7.1341    0.0515    1.2783 H   0  0  0  0  0  0  0  0  0  0  0  0
    7.7280    1.3654    0.2657 H   0  0  0  0  0  0  0  0  0  0  0  0
    6.0441   -2.0467   -1.7159 H   0  0  0  0  0  0  0  0  0  0  0  0
    6.0867   -2.0714    0.0454 H   0  0  0  0  0  0  0  0  0  0  0  0
   -7.0549   -0.1794   -1.7625 H   0  0  0  0  0  0  0  0  0  0  0  0
   -8.0563    0.8830   -0.7758 H   0  0  0  0  0  0  0  0  0  0  0  0
    8.0527   -0.8742   -0.7985 H   0  0  0  0  0  0  0  0  0  0  0  0
    7.0435    0.1908   -1.7744 H   0  0  0  0  0  0  0  0  0  0  0  0
   -2.0524    0.7768    1.3251 H   0  0  0  0  0  0  0  0  0  0  0  0
   -1.9679    0.8025   -0.4406 H   0  0  0  0  0  0  0  0  0  0  0  0
    2.0688   -0.7747    1.3474 H   0  0  0  0  0  0  0  0  0  0  0  0
    1.9868   -0.8033   -0.4145 H   0  0  0  0  0  0  0  0  0  0  0  0
   -0.4758   -1.1801   -0.4352 H   0  0  0  0  0  0  0  0  0  0  0  0
   -0.4965   -1.1879    1.3298 H   0  0  0  0  0  0  0  0  0  0  0  0
    0.4598    1.1460   -0.4067 H   0  0  0  0  0  0  0  0  0  0  0  0
    0.4583    1.1244    1.3542 H   0  0  0  0  0  0  0  0  0  0  0  0
  1  3  1  0  0  0  0
  1  4  1  0  0  0  0
  1  7  1  0  0  0  0
  1 19  1  0  0  0  0
  2  5  1  0  0  0  0
  2  6  1  0  0  0  0
  2  8  1  0  0  0  0
  2 20  1  0  0  0  0
  3  9  1  0  0  0  0
  3 21  1  0  0  0  0
  3 22  1  0  0  0  0
  4 10  1  0  0  0  0
  4 23  1  0  0  0  0
  4 24  1  0  0  0  0
  5 11  1  0  0  0  0
  5 25  1  0  0  0  0
  5 26  1  0  0  0  0
  6 12  1  0  0  0  0
  6 27  1  0  0  0  0
  6 28  1  0  0  0  0
  7 15  1  0  0  0  0
  7 29  1  0  0  0  0
  7 30  1  0  0  0  0
  8 16  1  0  0  0  0
  8 31  1  0  0  0  0
  8 32  1  0  0  0  0
  9 13  1  0  0  0  0
  9 33  1  0  0  0  0
  9 34  1  0  0  0  0
 10 13  1  0  0  0  0
 10 35  1  0  0  0  0
 10 36  1  0  0  0  0
 11 14  1  0  0  0  0
 11 37  1  0  0  0  0
 11 38  1  0  0  0  0
 12 14  1  0  0  0  0
 12 39  1  0  0  0  0
 12 40  1  0  0  0  0
 13 41  1  0  0  0  0
 13 42  1  0  0  0  0
 14 43  1  0  0  0  0
 14 44  1  0  0  0  0
 15 17  1  0  0  0  0
 15 45  1  0  0  0  0
 15 46  1  0  0  0  0
 16 18  1  0  0  0  0
 16 47  1  0  0  0  0
 16 48  1  0  0  0  0
 17 18  1  0  0  0  0
 17 49  1  0  0  0  0
 17 50  1  0  0  0  0
 18 51  1  0  0  0  0
 18 52  1  0  0  0  0
M  END
> <PUBCHEM_COMPOUND_CID>
123123

> <PUBCHEM_CONFORMER_RMSD>
0.8

> <PUBCHEM_CONFORMER_DIVERSEORDER>
1
70
94
96
113
50
21
63
12
8
36
163
106
2
26
39
68
90
80
114
64
99
28
20
145
11
109
132
10
91
3
157
44
139
45
84
138
118
65
85
58
111
48
103
49
101
38
92
115
4
18
29
43
128
54
110
62
14
52
142
5
23
24
31
46
108
141
72
133
56
34
55
127
40
107
105
53
165
159
154
150
27
116
144
37
69
123
9
162
98
6
81
74
57
15
79
61
140
137
75
33
83
125
124
47
147
87
156
126
59
32
51
25
7
121
122
100
153
148
95
17
35
143
152
88
71
151
19
146
130
16
30
120
119
131
160
86
104
13
76
78
135
158
149
112
42
155
82
67
93
97
22
66
129
134
136
102
73
60
89
117
41
161
77
164

> <PUBCHEM_MMFF94_PARTIAL_CHARGES>
0

> <PUBCHEM_EFFECTIVE_ROTOR_COUNT>
9.4

> <PUBCHEM_PHARMACOPHORE_FEATURES>
4
3 7 15 17 hydrophobe
3 8 16 18 hydrophobe
6 1 3 4 9 10 13 rings
6 2 5 6 11 12 14 rings

> <PUBCHEM_HEAVY_ATOM_COUNT>
18

> <PUBCHEM_ATOM_DEF_STEREO_COUNT>
0

> <PUBCHEM_ATOM_UDEF_STEREO_COUNT>
0

> <PUBCHEM_BOND_DEF_STEREO_COUNT>
0

> <PUBCHEM_BOND_UDEF_STEREO_COUNT>
0

> <PUBCHEM_ISOTOPIC_ATOM_COUNT>
0

> <PUBCHEM_COMPONENT_COUNT>
1

> <PUBCHEM_CACTVS_TAUTO_COUNT>
1

> <PUBCHEM_CONFORMER_ID>
0001E0F300000001

> <PUBCHEM_MMFF94_ENERGY>
9.2402

> <PUBCHEM_FEATURE_SELFOVERLAP>
20.297

> <PUBCHEM_SHAPE_FINGERPRINT>
10066227 49 18059579031891276238
10299344 5 15769776857537793093
10730089 173 18040150708894185949
11315181 36 18343304782339854993
11524674 6 8790881891803402593
11719270 70 18272649022530605318
12091667 2 17967533489344466171
12516196 113 18131350817203462280
13167372 99 13695859312571346614
13288520 33 12679460903053165097
13533116 47 16415484818490264630
13668630 136 17346600772245565207
13964095 4 18260830392969110683
14251752 14 18409163294584891435
14251757 52 17167869699165047692
14251764 18 15574714707325317123
14251764 46 18413388743519080931
14933364 13 18334857221001571217
15119646 104 16271934778889737598
15183329 4 18410856525285332890
15419008 47 18410849962671367169
15690457 1 15626219109046184150
15716309 27 14764629711414432297
15849732 13 18410575101848236477
17834072 8 18410575084663078946
17834076 25 16443063906597197505
18006028 8 17060621096416990472
20157964 124 18131351925916635712
20281389 69 14634866461659100870
21130983 4 14056721244556782454
21150785 3 18410856568229724163
21236236 1 17846223207136540793
21267235 1 18114186372016772075
220451 1 15410898461233902295
221357 26 18344144778884774920
22224240 67 14261629526387214294
2297311 6 18261111872873992765
23035841 295 14692852501837612773
23081809 10 16487263170243028752
23559900 14 17845646070705070121
29717793 49 17847065471861210732
3014965 18 18341892944542487542
328311 84 18410860970903817483
3545911 37 18334856125969416867
4073 2 17749675207086492930
445580 37 18040437659648406501
542803 24 15791730806177960931
5758199 1 16008748009106511177
59755656 215 18335701615698354450
59755656 520 16732979855997994147
6438161 24 18187922830185397890
8209 1 18413670222906790441

> <PUBCHEM_SHAPE_MULTIPOLES>
370.43
25.01
1.25
0.95
0.04
0
-0.13
0.1
-4.98
-0.01
-0.12
0.02
0
1.94

> <PUBCHEM_SHAPE_SELFOVERLAP>
717.398

> <PUBCHEM_SHAPE_VOLUME>
220.1

> <PUBCHEM_COORDINATE_TYPE>
2
5
10

$$$$
