5382499
  -OEChem-11012400323D

 34 35  0     0  0  0  0  0  0999 V2000
    2.0885   -0.0002    0.5304 S   0  0  0  0  0  0  0  0  0  0  0  0
   -2.0800   -0.0002   -0.5561 S   0  0  0  0  0  0  0  0  0  0  0  0
    4.6756   -0.0002   -0.4066 C   0  0  0  0  0  0  0  0  0  0  0  0
   -4.6643   -0.0001    0.4097 C   0  0  0  0  0  0  0  0  0  0  0  0
    3.2414   -0.0004   -0.8592 C   0  0  0  0  0  0  0  0  0  0  0  0
   -3.2380   -0.0004    0.8463 C   0  0  0  0  0  0  0  0  0  0  0  0
    5.3292   -1.2080   -0.2000 C   0  0  0  0  0  0  0  0  0  0  0  0
   -5.3313   -1.2080    0.2053 C   0  0  0  0  0  0  0  0  0  0  0  0
    5.3288    1.2080   -0.2002 C   0  0  0  0  0  0  0  0  0  0  0  0
   -5.3309    1.2080    0.2054 C   0  0  0  0  0  0  0  0  0  0  0  0
    6.6593   -1.2076    0.2200 C   0  0  0  0  0  0  0  0  0  0  0  0
   -6.6650   -1.2076   -0.2033 C   0  0  0  0  0  0  0  0  0  0  0  0
    6.6590    1.2084    0.2196 C   0  0  0  0  0  0  0  0  0  0  0  0
   -6.6646    1.2084   -0.2029 C   0  0  0  0  0  0  0  0  0  0  0  0
    7.3244    0.0005    0.4297 C   0  0  0  0  0  0  0  0  0  0  0  0
   -7.3318    0.0005   -0.4073 C   0  0  0  0  0  0  0  0  0  0  0  0
    0.5895   -0.0006   -0.3319 C   0  0  0  0  0  0  0  0  0  0  0  0
   -0.5897   -0.0005    0.3010 C   0  0  0  0  0  0  0  0  0  0  0  0
    3.0546    0.8772   -1.4902 H   0  0  0  0  0  0  0  0  0  0  0  0
    3.0547   -0.8784   -1.4898 H   0  0  0  0  0  0  0  0  0  0  0  0
   -3.0416    0.8769    1.4748 H   0  0  0  0  0  0  0  0  0  0  0  0
   -3.0418   -0.8781    1.4743 H   0  0  0  0  0  0  0  0  0  0  0  0
    4.8211   -2.1550   -0.3593 H   0  0  0  0  0  0  0  0  0  0  0  0
   -4.8235   -2.1564    0.3597 H   0  0  0  0  0  0  0  0  0  0  0  0
    4.8203    2.1548   -0.3598 H   0  0  0  0  0  0  0  0  0  0  0  0
   -4.8227    2.1562    0.3600 H   0  0  0  0  0  0  0  0  0  0  0  0
    7.1773   -2.1480    0.3841 H   0  0  0  0  0  0  0  0  0  0  0  0
   -7.1845   -2.1480   -0.3629 H   0  0  0  0  0  0  0  0  0  0  0  0
    7.1767    2.1490    0.3833 H   0  0  0  0  0  0  0  0  0  0  0  0
   -7.1837    2.1490   -0.3622 H   0  0  0  0  0  0  0  0  0  0  0  0
    8.3600    0.0007    0.7568 H   0  0  0  0  0  0  0  0  0  0  0  0
   -8.3702    0.0007   -0.7254 H   0  0  0  0  0  0  0  0  0  0  0  0
    0.6305   -0.0005   -1.4172 H   0  0  0  0  0  0  0  0  0  0  0  0
   -0.6265   -0.0005    1.3866 H   0  0  0  0  0  0  0  0  0  0  0  0
  1  5  1  0  0  0  0
  1 17  1  0  0  0  0
  2  6  1  0  0  0  0
  2 18  1  0  0  0  0
  3  5  1  0  0  0  0
  3  7  2  0  0  0  0
  3  9  1  0  0  0  0
  4  6  1  0  0  0  0
  4  8  2  0  0  0  0
  4 10  1  0  0  0  0
  5 19  1  0  0  0  0
  5 20  1  0  0  0  0
  6 21  1  0  0  0  0
  6 22  1  0  0  0  0
  7 11  1  0  0  0  0
  7 23  1  0  0  0  0
  8 12  1  0  0  0  0
  8 24  1  0  0  0  0
  9 13  2  0  0  0  0
  9 25  1  0  0  0  0
 10 14  2  0  0  0  0
 10 26  1  0  0  0  0
 11 15  2  0  0  0  0
 11 27  1  0  0  0  0
 12 16  2  0  0  0  0
 12 28  1  0  0  0  0
 13 15  1  0  0  0  0
 13 29  1  0  0  0  0
 14 16  1  0  0  0  0
 14 30  1  0  0  0  0
 15 31  1  0  0  0  0
 16 32  1  0  0  0  0
 17 18  2  0  0  0  0
 17 33  1  0  0  0  0
 18 34  1  0  0  0  0
M  END
> <PUBCHEM_COMPOUND_CID>
5382499

> <PUBCHEM_CONFORMER_RMSD>
0.8

> <PUBCHEM_CONFORMER_DIVERSEORDER>
1
7
19
17
22
28
23
37
25
43
14
31
38
10
20
34
15
4
13
2
11
33
35
49
24
21
50
6
42
12
48
46
27
18
26
44
36
51
5
40
9
41
52
3
45
8
39
47
29
32
30
16

> <PUBCHEM_MMFF94_PARTIAL_CHARGES>
30
1 -0.33
10 -0.15
11 -0.15
12 -0.15
13 -0.15
14 -0.15
15 -0.15
16 -0.15
17 -0.05
18 -0.05
2 -0.33
23 0.15
24 0.15
25 0.15
26 0.15
27 0.15
28 0.15
29 0.15
3 -0.14
30 0.15
31 0.15
32 0.15
33 0.15
34 0.15
4 -0.14
5 0.37
6 0.37
7 -0.15
8 -0.15
9 -0.15

> <PUBCHEM_EFFECTIVE_ROTOR_COUNT>
6

> <PUBCHEM_PHARMACOPHORE_FEATURES>
2
6 3 7 9 11 13 15 rings
6 4 8 10 12 14 16 rings

> <PUBCHEM_HEAVY_ATOM_COUNT>
18

> <PUBCHEM_ATOM_DEF_STEREO_COUNT>
0

> <PUBCHEM_ATOM_UDEF_STEREO_COUNT>
0

> <PUBCHEM_BOND_DEF_STEREO_COUNT>
1

> <PUBCHEM_BOND_UDEF_STEREO_COUNT>
0

> <PUBCHEM_ISOTOPIC_ATOM_COUNT>
0

> <PUBCHEM_COMPONENT_COUNT>
1

> <PUBCHEM_CACTVS_TAUTO_COUNT>
1

> <PUBCHEM_CONFORMER_ID>
0052216300000001

> <PUBCHEM_MMFF94_ENERGY>
37.4419

> <PUBCHEM_FEATURE_SELFOVERLAP>
10.149

> <PUBCHEM_SHAPE_FINGERPRINT>
10066227 49 17988085478723246558
10299344 5 18410292510175000330
11315181 36 18131072641457681361
11719270 70 17988924449113367286
12091667 2 18333171670277324163
12236239 1 18410576184174706695
125118 31 18334860515347599652
12516196 113 18342739619666152472
13073987 5 15769225946398970226
13533116 47 17241037713873512890
13885169 127 18335137562228306597
14123256 10 15502373422017870026
14251732 16 18342458157552841878
14251752 14 18341892982954086795
14251764 18 17917991689407697500
14251764 46 18410573989446450915
14933364 13 18410855464423414912
15183329 4 15719391732842039617
15716309 27 18272087201704572927
17093844 174 18113336419258118769
19489759 90 18410014330350640521
20157964 124 18344150280996018910
20281389 69 18413387639871098592
20621476 8 17095519574376840591
21150785 3 17632574959664922581
21315763 28 18410855464423155073
220451 1 12468357972342910080
22224240 67 18040150734321124450
23035841 295 13190341274942198177
23521765 1 18341895190345678855
23536379 177 18410576175816880842
23559900 14 18338794637124498073
28498 318 14562522969139357618
34797466 226 13830133914823737888
4073 2 18041284378138670946
57583515 80 17749391468767167409
59755656 215 15864066551257353258
59755656 520 18259980500889197355
8209 1 18410855464423142092

> <PUBCHEM_SHAPE_MULTIPOLES>
378.13
26.43
1.26
0.81
0.12
0
0
0
-0.15
0
0
-0.01
0
0

> <PUBCHEM_SHAPE_SELFOVERLAP>
760.835

> <PUBCHEM_SHAPE_VOLUME>
218

> <PUBCHEM_COORDINATE_TYPE>
2
5
10

$$$$
