3036315
  -OEChem-11012401153D

 30 31  0     0  0  0  0  0  0999 V2000
    5.2423    0.2280    0.0033 O   0  0  0  0  0  0  0  0  0  0  0  0
   -0.7981   -1.3063   -1.1151 O   0  5  0  0  0  0  0  0  0  0  0  0
   -1.1844   -0.3866   -0.3232 N   0  3  0  0  0  0  0  0  0  0  0  0
    1.1001    0.3819    0.2207 C   0  0  0  0  0  0  0  0  0  0  0  0
   -2.6017   -0.1791   -0.1234 C   0  0  0  0  0  0  0  0  0  0  0  0
   -0.3513    0.4358    0.2961 C   0  0  0  0  0  0  0  0  0  0  0  0
    1.8466    1.5578    0.2959 C   0  0  0  0  0  0  0  0  0  0  0  0
    1.7456   -0.8458    0.0728 C   0  0  0  0  0  0  0  0  0  0  0  0
    3.8842    0.2782    0.0754 C   0  0  0  0  0  0  0  0  0  0  0  0
    3.2386    1.5059    0.2232 C   0  0  0  0  0  0  0  0  0  0  0  0
    3.1376   -0.8977    0.0002 C   0  0  0  0  0  0  0  0  0  0  0  0
   -3.2880    0.6604   -0.9827 C   0  0  0  0  0  0  0  0  0  0  0  0
   -3.2371   -0.8254    0.9218 C   0  0  0  0  0  0  0  0  0  0  0  0
   -4.6549    0.8605   -0.7901 C   0  0  0  0  0  0  0  0  0  0  0  0
   -4.6041   -0.6254    1.1143 C   0  0  0  0  0  0  0  0  0  0  0  0
   -5.3129    0.2177    0.2583 C   0  0  0  0  0  0  0  0  0  0  0  0
    5.8375   -1.0600   -0.1476 C   0  0  0  0  0  0  0  0  0  0  0  0
   -0.8072    1.2458    0.8928 H   0  0  0  0  0  0  0  0  0  0  0  0
    1.3556    2.5209    0.4097 H   0  0  0  0  0  0  0  0  0  0  0  0
    1.2063   -1.7877    0.0594 H   0  0  0  0  0  0  0  0  0  0  0  0
    3.8149    2.4253    0.2817 H   0  0  0  0  0  0  0  0  0  0  0  0
    3.5753   -1.8847   -0.1038 H   0  0  0  0  0  0  0  0  0  0  0  0
   -2.7810    1.1635   -1.8009 H   0  0  0  0  0  0  0  0  0  0  0  0
   -2.6902   -1.4832    1.5912 H   0  0  0  0  0  0  0  0  0  0  0  0
   -5.2069    1.5168   -1.4566 H   0  0  0  0  0  0  0  0  0  0  0  0
   -5.1166   -1.1260    1.9306 H   0  0  0  0  0  0  0  0  0  0  0  0
   -6.3772    0.3735    0.4082 H   0  0  0  0  0  0  0  0  0  0  0  0
    5.5426   -1.5316   -1.0911 H   0  0  0  0  0  0  0  0  0  0  0  0
    5.6354   -1.7004    0.7177 H   0  0  0  0  0  0  0  0  0  0  0  0
    6.9216   -0.9122   -0.1894 H   0  0  0  0  0  0  0  0  0  0  0  0
  1  9  1  0  0  0  0
  1 17  1  0  0  0  0
  2  3  1  0  0  0  0
  3  5  1  0  0  0  0
  3  6  2  0  0  0  0
  4  6  1  0  0  0  0
  4  7  2  0  0  0  0
  4  8  1  0  0  0  0
  5 12  2  0  0  0  0
  5 13  1  0  0  0  0
  6 18  1  0  0  0  0
  7 10  1  0  0  0  0
  7 19  1  0  0  0  0
  8 11  2  0  0  0  0
  8 20  1  0  0  0  0
  9 10  2  0  0  0  0
  9 11  1  0  0  0  0
 10 21  1  0  0  0  0
 11 22  1  0  0  0  0
 12 14  1  0  0  0  0
 12 23  1  0  0  0  0
 13 15  2  0  0  0  0
 13 24  1  0  0  0  0
 14 16  2  0  0  0  0
 14 25  1  0  0  0  0
 15 16  1  0  0  0  0
 15 26  1  0  0  0  0
 16 27  1  0  0  0  0
 17 28  1  0  0  0  0
 17 29  1  0  0  0  0
 17 30  1  0  0  0  0
M  CHG  2   2  -1   3   1
M  END
> <PUBCHEM_COMPOUND_CID>
3036315

> <PUBCHEM_CONFORMER_RMSD>
0.6

> <PUBCHEM_CONFORMER_DIVERSEORDER>
1
6
5
4
2
3

> <PUBCHEM_MMFF94_PARTIAL_CHARGES>
27
1 -0.36
10 -0.15
11 -0.15
12 -0.15
13 -0.15
14 -0.15
15 -0.15
16 -0.15
17 0.28
18 0.06
19 0.15
2 -0.63
20 0.15
21 0.15
22 0.15
23 0.15
24 0.15
25 0.15
26 0.15
27 0.15
3 0.66
4 0.09
5 -0.03
6 -0.14
7 -0.15
8 -0.15
9 0.08

> <PUBCHEM_EFFECTIVE_ROTOR_COUNT>
3

> <PUBCHEM_PHARMACOPHORE_FEATURES>
4
1 1 acceptor
1 2 anion
6 4 7 8 9 10 11 rings
6 5 12 13 14 15 16 rings

> <PUBCHEM_HEAVY_ATOM_COUNT>
17

> <PUBCHEM_ATOM_DEF_STEREO_COUNT>
0

> <PUBCHEM_ATOM_UDEF_STEREO_COUNT>
0

> <PUBCHEM_BOND_DEF_STEREO_COUNT>
1

> <PUBCHEM_BOND_UDEF_STEREO_COUNT>
0

> <PUBCHEM_ISOTOPIC_ATOM_COUNT>
0

> <PUBCHEM_COMPONENT_COUNT>
1

> <PUBCHEM_CACTVS_TAUTO_COUNT>
1

> <PUBCHEM_CONFORMER_ID>
002E549B00000001

> <PUBCHEM_MMFF94_ENERGY>
66.9769

> <PUBCHEM_FEATURE_SELFOVERLAP>
20.297

> <PUBCHEM_SHAPE_FINGERPRINT>
10680689 15 18186800305515531811
11089746 13 17060615598816582000
11287383 113 17748830739132613324
11401426 45 14908181953926792649
11471102 20 18342454855097615576
12236239 1 17203609285047819755
128620 24 11241965975496818217
13533116 47 16128381420445801742
13675066 3 18336543918861712880
13760787 5 18060699511074149784
14123238 8 13840265888028454792
14251731 8 18259984859726400282
14341114 176 18113624511993747641
15242439 84 18259982669467224073
15788980 27 18411417323507630862
17834072 8 18342459236032725604
17844677 252 17968103027013276701
19433438 28 18186238450515267329
200 152 17988922258210079905
20645477 70 18341891844714394302
21033648 29 18338218423805936993
21267235 1 18341902870306379778
2297311 6 17531251647355731189
23402539 116 15482670165237680769
23536379 177 16950280681365049368
23557571 272 17458344100395425141
23559900 14 17967249788783359731
26918003 58 18411139142855245515
300161 21 14476964450117009901
3545911 37 18113336397419343661
42 15 18333171678181560289
4214541 1 18259704497658026177
42788 4 18186521003343834544
4463277 17 18410857668543406568
5104073 3 18129938009175795410
542803 24 14923944543858555516
602551 16 16805609225650920123
633830 44 17822565118451742556
7495541 125 17458349671332160220
77779 3 18186521024998116593
90127 26 18040718099195152801
9971528 1 16271934813592561704

> <PUBCHEM_SHAPE_MULTIPOLES>
333.13
12.8
1.31
0.91
2.24
0.19
-0.03
-0.91
0.34
0.67
0.02
-0.82
-0.07
0.89

> <PUBCHEM_SHAPE_SELFOVERLAP>
713.229

> <PUBCHEM_SHAPE_VOLUME>
185.4

> <PUBCHEM_COORDINATE_TYPE>
2
5
10

$$$$
