6327454
  -OEChem-10312420192D

 68 72  0     0  0  0  0  0  0999 V2000
    4.9543    0.1471    0.0000 Ge  0  4  0  0  0  0  0  0  0  0  0  0
    5.9391   -0.0265    0.0000 Ge  0  4  0  0  0  0  0  0  0  0  0  0
    3.9696    0.3209    0.0000 C   0  0  0  0  0  0  0  0  0  0  0  0
    4.6123   -0.7925    0.0000 C   0  0  0  0  0  0  0  0  0  0  0  0
    5.8204   -0.3529    0.0000 C   0  0  0  0  0  0  0  0  0  0  0  0
    5.2964   -0.7926    0.0000 C   0  0  0  0  0  0  0  0  0  0  0  0
    6.7052    0.6163    0.0000 C   0  0  0  0  0  0  0  0  0  0  0  0
    5.5971    0.9132    0.0000 C   0  0  0  0  0  0  0  0  0  0  0  0
    3.6277    1.2607    0.0000 C   0  0  0  0  0  0  0  0  0  0  0  0
    3.6273   -0.9661    0.0000 C   0  0  0  0  0  0  0  0  0  0  0  0
    6.6864    0.1471    0.0000 C   0  0  0  0  0  0  0  0  0  0  0  0
    4.4303   -1.2926    0.0000 C   0  0  0  0  0  0  0  0  0  0  0  0
    6.5315    1.6011    0.0000 C   0  0  0  0  0  0  0  0  0  0  0  0
    4.6123    1.0868    0.0000 C   0  0  0  0  0  0  0  0  0  0  0  0
    3.3266   -0.4450    0.0000 C   0  0  0  0  0  0  0  0  0  0  0  0
    5.2552   -1.5586    0.0000 C   0  0  0  0  0  0  0  0  0  0  0  0
    5.8204   -1.3529    0.0000 C   0  0  0  0  0  0  0  0  0  0  0  0
    6.1624   -1.2926    0.0000 C   0  0  0  0  0  0  0  0  0  0  0  0
    7.6449    0.2743    0.0000 C   0  0  0  0  0  0  0  0  0  0  0  0
    6.2399    1.6792    0.0000 C   0  0  0  0  0  0  0  0  0  0  0  0
    2.6429    1.4345    0.0000 C   0  0  0  0  0  0  0  0  0  0  0  0
    3.2853   -1.9058    0.0000 C   0  0  0  0  0  0  0  0  0  0  0  0
    7.5524   -0.3529    0.0000 C   0  0  0  0  0  0  0  0  0  0  0  0
    4.4303   -2.2926    0.0000 C   0  0  0  0  0  0  0  0  0  0  0  0
    7.2976    2.2439    0.0000 C   0  0  0  0  0  0  0  0  0  0  0  0
    4.2703    2.0265    0.0000 C   0  0  0  0  0  0  0  0  0  0  0  0
    2.3419   -0.2713    0.0000 C   0  0  0  0  0  0  0  0  0  0  0  0
    4.9131   -2.4983    0.0000 C   0  0  0  0  0  0  0  0  0  0  0  0
    6.6864   -1.8529    0.0000 C   0  0  0  0  0  0  0  0  0  0  0  0
    6.1624   -2.2926    0.0000 C   0  0  0  0  0  0  0  0  0  0  0  0
    8.4109    0.9170    0.0000 C   0  0  0  0  0  0  0  0  0  0  0  0
    5.8979    2.6189    0.0000 C   0  0  0  0  0  0  0  0  0  0  0  0
    2.0000    0.6685    0.0000 C   0  0  0  0  0  0  0  0  0  0  0  0
    3.9282   -2.6719    0.0000 C   0  0  0  0  0  0  0  0  0  0  0  0
    7.5524   -1.3529    0.0000 C   0  0  0  0  0  0  0  0  0  0  0  0
    5.2964   -2.7926    0.0000 C   0  0  0  0  0  0  0  0  0  0  0  0
    8.2373    1.9018    0.0000 C   0  0  0  0  0  0  0  0  0  0  0  0
    4.9131    2.7926    0.0000 C   0  0  0  0  0  0  0  0  0  0  0  0
    4.0263    1.7356    0.0000 H   0  0  0  0  0  0  0  0  0  0  0  0
    3.2288   -0.4911    0.0000 H   0  0  0  0  0  0  0  0  0  0  0  0
    6.6864    0.7671    0.0000 H   0  0  0  0  0  0  0  0  0  0  0  0
    3.8934   -0.9826    0.0000 H   0  0  0  0  0  0  0  0  0  0  0  0
    5.9489    1.8131    0.0000 H   0  0  0  0  0  0  0  0  0  0  0  0
    4.2138    0.6119    0.0000 H   0  0  0  0  0  0  0  0  0  0  0  0
    3.5386   -1.0276    0.0000 H   0  0  0  0  0  0  0  0  0  0  0  0
    5.8657   -1.4509    0.0000 H   0  0  0  0  0  0  0  0  0  0  0  0
    5.2834   -1.6629    0.0000 H   0  0  0  0  0  0  0  0  0  0  0  0
    6.6993   -0.9826    0.0000 H   0  0  0  0  0  0  0  0  0  0  0  0
    7.7525   -0.3363    0.0000 H   0  0  0  0  0  0  0  0  0  0  0  0
    6.8505    1.5716    0.0000 H   0  0  0  0  0  0  0  0  0  0  0  0
    2.4310    2.0171    0.0000 H   0  0  0  0  0  0  0  0  0  0  0  0
    2.6747   -2.0135    0.0000 H   0  0  0  0  0  0  0  0  0  0  0  0
    8.0893   -0.0429    0.0000 H   0  0  0  0  0  0  0  0  0  0  0  0
    3.8934   -2.6026    0.0000 H   0  0  0  0  0  0  0  0  0  0  0  0
    7.1899    2.8544    0.0000 H   0  0  0  0  0  0  0  0  0  0  0  0
    3.6597    2.1342    0.0000 H   0  0  0  0  0  0  0  0  0  0  0  0
    1.9433   -0.7462    0.0000 H   0  0  0  0  0  0  0  0  0  0  0  0
    5.3116   -2.9733    0.0000 H   0  0  0  0  0  0  0  0  0  0  0  0
    6.6864   -2.4729    0.0000 H   0  0  0  0  0  0  0  0  0  0  0  0
    6.6993   -2.6026    0.0000 H   0  0  0  0  0  0  0  0  0  0  0  0
    8.9935    0.7050    0.0000 H   0  0  0  0  0  0  0  0  0  0  0  0
    6.2964    3.0939    0.0000 H   0  0  0  0  0  0  0  0  0  0  0  0
    1.3894    0.7763    0.0000 H   0  0  0  0  0  0  0  0  0  0  0  0
    3.7161   -3.2545    0.0000 H   0  0  0  0  0  0  0  0  0  0  0  0
    8.0893   -1.6629    0.0000 H   0  0  0  0  0  0  0  0  0  0  0  0
    5.2964   -3.4126    0.0000 H   0  0  0  0  0  0  0  0  0  0  0  0
    8.7122    2.3004    0.0000 H   0  0  0  0  0  0  0  0  0  0  0  0
    4.7010    3.3752    0.0000 H   0  0  0  0  0  0  0  0  0  0  0  0
  1  3  1  0  0  0  0
  1  4  1  0  0  0  0
  1  5  1  0  0  0  0
  2  6  1  0  0  0  0
  2  7  1  0  0  0  0
  2  8  1  0  0  0  0
  3  9  2  0  0  0  0
  3 15  1  0  0  0  0
  4 10  2  0  0  0  0
  4 16  1  0  0  0  0
  5 11  2  0  0  0  0
  5 17  1  0  0  0  0
  6 12  2  0  0  0  0
  6 18  1  0  0  0  0
  7 13  2  0  0  0  0
  7 19  1  0  0  0  0
  8 14  2  0  0  0  0
  8 20  1  0  0  0  0
  9 21  1  0  0  0  0
  9 39  1  0  0  0  0
 10 22  1  0  0  0  0
 10 40  1  0  0  0  0
 11 23  1  0  0  0  0
 11 41  1  0  0  0  0
 12 24  1  0  0  0  0
 12 42  1  0  0  0  0
 13 25  1  0  0  0  0
 13 43  1  0  0  0  0
 14 26  1  0  0  0  0
 14 44  1  0  0  0  0
 15 27  2  0  0  0  0
 15 45  1  0  0  0  0
 16 28  2  0  0  0  0
 16 46  1  0  0  0  0
 17 29  2  0  0  0  0
 17 47  1  0  0  0  0
 18 30  2  0  0  0  0
 18 48  1  0  0  0  0
 19 31  2  0  0  0  0
 19 49  1  0  0  0  0
 20 32  2  0  0  0  0
 20 50  1  0  0  0  0
 21 33  2  0  0  0  0
 21 51  1  0  0  0  0
 22 34  2  0  0  0  0
 22 52  1  0  0  0  0
 23 35  2  0  0  0  0
 23 53  1  0  0  0  0
 24 36  2  0  0  0  0
 24 54  1  0  0  0  0
 25 37  2  0  0  0  0
 25 55  1  0  0  0  0
 26 38  2  0  0  0  0
 26 56  1  0  0  0  0
 27 33  1  0  0  0  0
 27 57  1  0  0  0  0
 28 34  1  0  0  0  0
 28 58  1  0  0  0  0
 29 35  1  0  0  0  0
 29 59  1  0  0  0  0
 30 36  1  0  0  0  0
 30 60  1  0  0  0  0
 31 37  1  0  0  0  0
 31 61  1  0  0  0  0
 32 38  1  0  0  0  0
 32 62  1  0  0  0  0
 33 63  1  0  0  0  0
 34 64  1  0  0  0  0
 35 65  1  0  0  0  0
 36 66  1  0  0  0  0
 37 67  1  0  0  0  0
 38 68  1  0  0  0  0
M  RAD  2   1   2   2   2
M  END
> <PUBCHEM_COMPOUND_CID>
6327454

> <PUBCHEM_COMPOUND_CANONICALIZED>
1

> <PUBCHEM_CACTVS_COMPLEXITY>
457

> <PUBCHEM_CACTVS_HBOND_ACCEPTOR>
0

> <PUBCHEM_CACTVS_HBOND_DONOR>
0

> <PUBCHEM_CACTVS_ROTATABLE_BOND>
6

> <PUBCHEM_CACTVS_SUBSKEYS>
AAADceB8AAAAAAAAgAAAAAAAAAAAAAAAAAAwYMGDAAAAAAABVAAAGAAAAAAACACAEAAwAIAAAACAACBCAAACAAAgAAAIiAAAAIgIICKAERCAIAAggAAIiAcAAAAAAAAAAAAAAAAAAAAAAAAAAAAAAAAAAA==

> <PUBCHEM_IUPAC_INCHI>
InChI=1S/2C18H15Ge/c2*1-4-10-16(11-5-1)19(17-12-6-2-7-13-17)18-14-8-3-9-15-18/h2*1-15H

> <PUBCHEM_IUPAC_INCHIKEY>
JQHWEIUKAAZLFP-UHFFFAOYSA-N

> <PUBCHEM_EXACT_MASS>
608.0780045

> <PUBCHEM_MOLECULAR_FORMULA>
C36H30Ge2

> <PUBCHEM_MOLECULAR_WEIGHT>
607.9

> <PUBCHEM_OPENEYE_CAN_SMILES>
C1=CC=C(C=C1)[Ge](C2=CC=CC=C2)C3=CC=CC=C3.C1=CC=C(C=C1)[Ge](C2=CC=CC=C2)C3=CC=CC=C3

> <PUBCHEM_OPENEYE_ISO_SMILES>
C1=CC=C(C=C1)[Ge](C2=CC=CC=C2)C3=CC=CC=C3.C1=CC=C(C=C1)[Ge](C2=CC=CC=C2)C3=CC=CC=C3

> <PUBCHEM_CACTVS_TPSA>
0

> <PUBCHEM_MONOISOTOPIC_WEIGHT>
610.0771065

> <PUBCHEM_TOTAL_CHARGE>
0

> <PUBCHEM_HEAVY_ATOM_COUNT>
38

> <PUBCHEM_ATOM_DEF_STEREO_COUNT>
0

> <PUBCHEM_ATOM_UDEF_STEREO_COUNT>
0

> <PUBCHEM_BOND_DEF_STEREO_COUNT>
0

> <PUBCHEM_BOND_UDEF_STEREO_COUNT>
0

> <PUBCHEM_ISOTOPIC_ATOM_COUNT>
0

> <PUBCHEM_COMPONENT_COUNT>
2

> <PUBCHEM_CACTVS_TAUTO_COUNT>
-1

> <PUBCHEM_NONSTANDARDBOND>
1  2  6

> <PUBCHEM_COORDINATE_TYPE>
1
5
255

> <PUBCHEM_BONDANNOTATIONS>
10  22  8
11  23  8
12  24  8
13  25  8
14  26  8
15  27  8
16  28  8
17  29  8
18  30  8
19  31  8
20  32  8
21  33  8
22  34  8
23  35  8
24  36  8
25  37  8
26  38  8
27  33  8
28  34  8
29  35  8
3  15  8
3  9  8
30  36  8
31  37  8
32  38  8
4  10  8
4  16  8
5  11  8
5  17  8
6  12  8
6  18  8
7  13  8
7  19  8
8  14  8
8  20  8
9  21  8

$$$$
