20121
  -OEChem-11012401153D

 30 29  0     0  0  0  0  0  0999 V2000
   -0.6771    1.7284    1.2276 O   0  5  0  0  0  0  0  0  0  0  0  0
    0.6144    2.7018   -0.2665 O   0  0  0  0  0  0  0  0  0  0  0  0
   -0.0206    0.5615   -0.5784 N   0  0  0  0  0  0  0  0  0  0  0  0
   -0.0154    1.7367    0.1826 N   0  3  0  0  0  0  0  0  0  0  0  0
   -0.8103   -0.5435   -0.0480 C   0  0  0  0  0  0  0  0  0  0  0  0
    1.2959    0.0998   -1.0359 C   0  0  0  0  0  0  0  0  0  0  0  0
   -2.2977   -0.3011   -0.2986 C   0  0  0  0  0  0  0  0  0  0  0  0
    2.0566   -0.5580    0.1140 C   0  0  0  0  0  0  0  0  0  0  0  0
   -3.1433   -1.4596    0.2315 C   0  0  0  0  0  0  0  0  0  0  0  0
    3.4235   -1.0658   -0.3466 C   0  0  0  0  0  0  0  0  0  0  0  0
   -4.6277   -1.2097    0.0176 C   0  0  0  0  0  0  0  0  0  0  0  0
    4.2017   -1.6904    0.8007 C   0  0  0  0  0  0  0  0  0  0  0  0
   -0.6197   -0.7311    1.0171 H   0  0  0  0  0  0  0  0  0  0  0  0
   -0.5623   -1.4765   -0.5734 H   0  0  0  0  0  0  0  0  0  0  0  0
    1.8812    0.9214   -1.4673 H   0  0  0  0  0  0  0  0  0  0  0  0
    1.1616   -0.6200   -1.8539 H   0  0  0  0  0  0  0  0  0  0  0  0
   -2.4763   -0.1884   -1.3760 H   0  0  0  0  0  0  0  0  0  0  0  0
   -2.6392    0.6258    0.1752 H   0  0  0  0  0  0  0  0  0  0  0  0
    1.5105   -1.4137    0.5265 H   0  0  0  0  0  0  0  0  0  0  0  0
    2.1997    0.1587    0.9325 H   0  0  0  0  0  0  0  0  0  0  0  0
   -2.9552   -1.5983    1.3026 H   0  0  0  0  0  0  0  0  0  0  0  0
   -2.8585   -2.3908   -0.2719 H   0  0  0  0  0  0  0  0  0  0  0  0
    4.0069   -0.2374   -0.7652 H   0  0  0  0  0  0  0  0  0  0  0  0
    3.2963   -1.8086   -1.1427 H   0  0  0  0  0  0  0  0  0  0  0  0
   -5.2128   -2.0512    0.4014 H   0  0  0  0  0  0  0  0  0  0  0  0
   -4.9529   -0.3042    0.5397 H   0  0  0  0  0  0  0  0  0  0  0  0
   -4.8565   -1.0940   -1.0467 H   0  0  0  0  0  0  0  0  0  0  0  0
    5.1754   -2.0455    0.4489 H   0  0  0  0  0  0  0  0  0  0  0  0
    4.3742   -0.9627    1.6001 H   0  0  0  0  0  0  0  0  0  0  0  0
    3.6615   -2.5437    1.2230 H   0  0  0  0  0  0  0  0  0  0  0  0
  1  4  1  0  0  0  0
  2  4  2  0  0  0  0
  3  4  1  0  0  0  0
  3  5  1  0  0  0  0
  3  6  1  0  0  0  0
  5  7  1  0  0  0  0
  5 13  1  0  0  0  0
  5 14  1  0  0  0  0
  6  8  1  0  0  0  0
  6 15  1  0  0  0  0
  6 16  1  0  0  0  0
  7  9  1  0  0  0  0
  7 17  1  0  0  0  0
  7 18  1  0  0  0  0
  8 10  1  0  0  0  0
  8 19  1  0  0  0  0
  8 20  1  0  0  0  0
  9 11  1  0  0  0  0
  9 21  1  0  0  0  0
  9 22  1  0  0  0  0
 10 12  1  0  0  0  0
 10 23  1  0  0  0  0
 10 24  1  0  0  0  0
 11 25  1  0  0  0  0
 11 26  1  0  0  0  0
 11 27  1  0  0  0  0
 12 28  1  0  0  0  0
 12 29  1  0  0  0  0
 12 30  1  0  0  0  0
M  CHG  2   1  -1   4   1
M  END
> <PUBCHEM_COMPOUND_CID>
20121

> <PUBCHEM_CONFORMER_RMSD>
0.8

> <PUBCHEM_CONFORMER_DIVERSEORDER>
1
15
25
17
46
7
52
48
22
47
49
32
6
45
2
35
16
5
43
23
33
21
3
24
31
36
41
42
20
50
40
19
30
9
37
14
27
38
44
26
13
51
11
4
28
8
29
18
10
34
39
12

> <PUBCHEM_MMFF94_PARTIAL_CHARGES>
6
1 -0.52
2 -0.52
3 -0.53
4 1.03
5 0.27
6 0.27

> <PUBCHEM_EFFECTIVE_ROTOR_COUNT>
7

> <PUBCHEM_PHARMACOPHORE_FEATURES>
4
1 1 acceptor
1 11 hydrophobe
1 12 hydrophobe
1 2 acceptor

> <PUBCHEM_HEAVY_ATOM_COUNT>
12

> <PUBCHEM_ATOM_DEF_STEREO_COUNT>
0

> <PUBCHEM_ATOM_UDEF_STEREO_COUNT>
0

> <PUBCHEM_BOND_DEF_STEREO_COUNT>
0

> <PUBCHEM_BOND_UDEF_STEREO_COUNT>
0

> <PUBCHEM_ISOTOPIC_ATOM_COUNT>
0

> <PUBCHEM_COMPONENT_COUNT>
1

> <PUBCHEM_CACTVS_TAUTO_COUNT>
1

> <PUBCHEM_CONFORMER_ID>
00004E9900000001

> <PUBCHEM_MMFF94_ENERGY>
12.2604

> <PUBCHEM_FEATURE_SELFOVERLAP>
20.377

> <PUBCHEM_SHAPE_FINGERPRINT>
10130415 120 18411426132828634563
10465860 250 18410005520660748223
10726558 24 8358258163590816522
14252887 29 18131079224799150830
17041 49 18272383000734663427
18186145 218 12973891407118551998
20645477 70 18265893747585351671
20671657 53 17676207957315798774
20711985 327 18060703913658169367
20871998 184 18058445413732419566
20871998 22 18409722993385310680
21296965 67 18410853256820611935
23402539 116 18271797991265259679
23419403 2 17986927757065922089
23500284 5 18263361391374521162
3086196 2 18340763724520027370
58734987 33 18271805756592056321
5902787 121 18338800129601848103
81228 2 18126585426144153217

> <PUBCHEM_SHAPE_MULTIPOLES>
225.25
7.27
2.22
0.89
1.6
1.58
-0.05
-6.8
-0.85
-0.38
-0.4
-0.28
0.11
-0.43

> <PUBCHEM_SHAPE_SELFOVERLAP>
410.329

> <PUBCHEM_SHAPE_VOLUME>
145.1

> <PUBCHEM_COORDINATE_TYPE>
2
5
10

$$$$
