138564
  -OEChem-11012401023D

 16 17  0     0  0  0  0  0  0999 V2000
   -0.6476   -0.1406    0.3876 C   0  0  0  0  0  0  0  0  0  0  0  0
    0.6476   -0.1410   -0.3875 C   0  0  0  0  0  0  0  0  0  0  0  0
   -1.7690    0.8046    0.0704 C   0  0  0  0  0  0  0  0  0  0  0  0
   -1.9278   -0.6638   -0.1949 C   0  0  0  0  0  0  0  0  0  0  0  0
    1.9279   -0.6637    0.1949 C   0  0  0  0  0  0  0  0  0  0  0  0
    1.7689    0.8046   -0.0706 C   0  0  0  0  0  0  0  0  0  0  0  0
   -0.5199   -0.3366    1.4532 H   0  0  0  0  0  0  0  0  0  0  0  0
    0.5199   -0.3373   -1.4530 H   0  0  0  0  0  0  0  0  0  0  0  0
   -1.6626    1.4613   -0.7842 H   0  0  0  0  0  0  0  0  0  0  0  0
   -2.3208    1.2311    0.8990 H   0  0  0  0  0  0  0  0  0  0  0  0
   -2.5860   -1.2267    0.4556 H   0  0  0  0  0  0  0  0  0  0  0  0
   -1.9325   -0.9899   -1.2276 H   0  0  0  0  0  0  0  0  0  0  0  0
    2.5861   -1.2265   -0.4556 H   0  0  0  0  0  0  0  0  0  0  0  0
    1.9327   -0.9898    1.2277 H   0  0  0  0  0  0  0  0  0  0  0  0
    1.6625    1.4615    0.7839 H   0  0  0  0  0  0  0  0  0  0  0  0
    2.3205    1.2311   -0.8993 H   0  0  0  0  0  0  0  0  0  0  0  0
  1  2  1  0  0  0  0
  1  3  1  0  0  0  0
  1  4  1  0  0  0  0
  1  7  1  0  0  0  0
  2  5  1  0  0  0  0
  2  6  1  0  0  0  0
  2  8  1  0  0  0  0
  3  4  1  0  0  0  0
  3  9  1  0  0  0  0
  3 10  1  0  0  0  0
  4 11  1  0  0  0  0
  4 12  1  0  0  0  0
  5  6  1  0  0  0  0
  5 13  1  0  0  0  0
  5 14  1  0  0  0  0
  6 15  1  0  0  0  0
  6 16  1  0  0  0  0
M  END
> <PUBCHEM_COMPOUND_CID>
138564

> <PUBCHEM_CONFORMER_RMSD>
0.4

> <PUBCHEM_CONFORMER_DIVERSEORDER>
1
2
3

> <PUBCHEM_MMFF94_PARTIAL_CHARGES>
16
1 -0.1
10 0.1
11 0.1
12 0.1
13 0.1
14 0.1
15 0.1
16 0.1
2 -0.1
3 -0.2
4 -0.2
5 -0.2
6 -0.2
7 0.1
8 0.1
9 0.1

> <PUBCHEM_EFFECTIVE_ROTOR_COUNT>
2.2

> <PUBCHEM_PHARMACOPHORE_FEATURES>
0

> <PUBCHEM_HEAVY_ATOM_COUNT>
6

> <PUBCHEM_ATOM_DEF_STEREO_COUNT>
0

> <PUBCHEM_ATOM_UDEF_STEREO_COUNT>
0

> <PUBCHEM_BOND_DEF_STEREO_COUNT>
0

> <PUBCHEM_BOND_UDEF_STEREO_COUNT>
0

> <PUBCHEM_ISOTOPIC_ATOM_COUNT>
0

> <PUBCHEM_COMPONENT_COUNT>
1

> <PUBCHEM_CACTVS_TAUTO_COUNT>
1

> <PUBCHEM_CONFORMER_ID>
00021D4400000001

> <PUBCHEM_MMFF94_ENERGY>
13.5135

> <PUBCHEM_FEATURE_SELFOVERLAP>
0

> <PUBCHEM_SHAPE_FINGERPRINT>
14390081 3 18342175617572331208
20096714 4 18409733958325963000
21040471 1 18412547608586690550
24536 1 18410569587104946529
29004967 10 14851608760741876644
5460574 1 9295292737405366082

> <PUBCHEM_SHAPE_MULTIPOLES>
123.48
3.04
0.99
0.68
0
0.08
0
0
0
0
0
0
-0.01
-0.1

> <PUBCHEM_SHAPE_SELFOVERLAP>
237.844

> <PUBCHEM_SHAPE_VOLUME>
78.3

> <PUBCHEM_COORDINATE_TYPE>
2
5
10

$$$$
