75097
  -OEChem-11012400463D

 24 24  0     0  0  0  0  0  0999 V2000
    2.3644   -1.9616   -0.0893 O   0  0  0  0  0  0  0  0  0  0  0  0
   -2.3908   -1.9327   -0.0732 O   0  0  0  0  0  0  0  0  0  0  0  0
   -3.5601    0.3321    0.0331 O   0  0  0  0  0  0  0  0  0  0  0  0
    3.4908    0.3882    0.5498 O   0  0  0  0  0  0  0  0  0  0  0  0
   -1.2082    0.1520    0.0204 C   0  0  0  0  0  0  0  0  0  0  0  0
    1.2076    0.1375    0.0131 C   0  0  0  0  0  0  0  0  0  0  0  0
    0.0039    0.8414    0.0493 C   0  0  0  0  0  0  0  0  0  0  0  0
    1.1991   -1.2558   -0.0516 C   0  0  0  0  0  0  0  0  0  0  0  0
   -1.2168   -1.2414   -0.0443 C   0  0  0  0  0  0  0  0  0  0  0  0
   -0.0130   -1.9453   -0.0803 C   0  0  0  0  0  0  0  0  0  0  0  0
   -2.4539    0.9055    0.0574 C   0  0  0  0  0  0  0  0  0  0  0  0
    2.4625    0.8761    0.0425 C   0  0  0  0  0  0  0  0  0  0  0  0
   -2.4274    2.4276    0.1264 C   0  0  0  0  0  0  0  0  0  0  0  0
    2.5418    2.2764   -0.5533 C   0  0  0  0  0  0  0  0  0  0  0  0
    0.0282    1.9240    0.1169 H   0  0  0  0  0  0  0  0  0  0  0  0
   -0.0116   -3.0315   -0.1310 H   0  0  0  0  0  0  0  0  0  0  0  0
   -1.9322    2.8398   -0.7565 H   0  0  0  0  0  0  0  0  0  0  0  0
   -1.9404    2.7577    1.0477 H   0  0  0  0  0  0  0  0  0  0  0  0
   -3.4565    2.8014    0.1385 H   0  0  0  0  0  0  0  0  0  0  0  0
    2.2862    3.0153    0.2100 H   0  0  0  0  0  0  0  0  0  0  0  0
    1.8761    2.3712   -1.4155 H   0  0  0  0  0  0  0  0  0  0  0  0
    3.5619    2.4555   -0.9066 H   0  0  0  0  0  0  0  0  0  0  0  0
    3.1262   -1.3638   -0.1479 H   0  0  0  0  0  0  0  0  0  0  0  0
   -2.1982   -2.8850   -0.1180 H   0  0  0  0  0  0  0  0  0  0  0  0
  1  8  1  0  0  0  0
  1 23  1  0  0  0  0
  2  9  1  0  0  0  0
  2 24  1  0  0  0  0
  3 11  2  0  0  0  0
  4 12  2  0  0  0  0
  5  7  2  0  0  0  0
  5  9  1  0  0  0  0
  5 11  1  0  0  0  0
  6  7  1  0  0  0  0
  6  8  2  0  0  0  0
  6 12  1  0  0  0  0
  7 15  1  0  0  0  0
  8 10  1  0  0  0  0
  9 10  2  0  0  0  0
 10 16  1  0  0  0  0
 11 13  1  0  0  0  0
 12 14  1  0  0  0  0
 13 17  1  0  0  0  0
 13 18  1  0  0  0  0
 13 19  1  0  0  0  0
 14 20  1  0  0  0  0
 14 21  1  0  0  0  0
 14 22  1  0  0  0  0
M  END
> <PUBCHEM_COMPOUND_CID>
75097

> <PUBCHEM_CONFORMER_RMSD>
0.6

> <PUBCHEM_CONFORMER_DIVERSEORDER>
1
5
6
7
3
4
2

> <PUBCHEM_MMFF94_PARTIAL_CHARGES>
18
1 -0.53
10 -0.15
11 0.42
12 0.42
13 0.06
14 0.06
15 0.15
16 0.15
2 -0.53
23 0.45
24 0.45
3 -0.57
4 -0.57
5 0.09
6 0.09
7 -0.15
8 0.08
9 0.08

> <PUBCHEM_EFFECTIVE_ROTOR_COUNT>
2

> <PUBCHEM_PHARMACOPHORE_FEATURES>
5
1 1 donor
1 2 donor
1 3 acceptor
1 4 acceptor
6 5 6 7 8 9 10 rings

> <PUBCHEM_HEAVY_ATOM_COUNT>
14

> <PUBCHEM_ATOM_DEF_STEREO_COUNT>
0

> <PUBCHEM_ATOM_UDEF_STEREO_COUNT>
0

> <PUBCHEM_BOND_DEF_STEREO_COUNT>
0

> <PUBCHEM_BOND_UDEF_STEREO_COUNT>
0

> <PUBCHEM_ISOTOPIC_ATOM_COUNT>
0

> <PUBCHEM_COMPONENT_COUNT>
1

> <PUBCHEM_CACTVS_TAUTO_COUNT>
25

> <PUBCHEM_CONFORMER_ID>
0001255900000001

> <PUBCHEM_MMFF94_ENERGY>
42.1833

> <PUBCHEM_FEATURE_SELFOVERLAP>
25.371

> <PUBCHEM_SHAPE_FINGERPRINT>
10608611 8 18411135809887017273
10967382 1 18410856538186272965
11680986 33 18340772537819695178
12251169 10 18334006190453871280
13380535 21 18340218448077512531
13380535 76 18411133645212957067
14325111 11 18339923706163167353
14648413 74 18338522932486261434
14897335 6 18412538808277802879
15279308 100 18267310828587994070
15442244 35 18266737983024862194
15536298 74 18272368629610794318
15775835 57 18341900713752957257
16945 1 18410298029212997127
18186145 218 18127698136343807189
193761 8 18410857650572344111
19973954 147 18410577275096412887
20510252 161 18126572451153661672
20511035 2 18201145564676899854
20671657 1 18337117778422365276
21501502 16 18411697698988817207
21524375 3 18412824698348986033
2334 1 18411701014661352215
23402539 116 18127399275371150695
23463225 33 18335133220010855208
23552423 10 18408040719072698910
2748010 2 18411706464953797463
53812653 166 18201152238929237224
53812653 8 18049166854175154516
7364860 26 18271526386429161750

> <PUBCHEM_SHAPE_MULTIPOLES>
264.64
4.95
2.6
0.63
0.04
0.15
0.01
1.84
-0.21
0.08
0.21
-0.12
0.08
-0.25

> <PUBCHEM_SHAPE_SELFOVERLAP>
559.725

> <PUBCHEM_SHAPE_VOLUME>
149.1

> <PUBCHEM_COORDINATE_TYPE>
2
5
10

$$$$
