144704
  -OEChem-11012400533D

 22 22  0     0  0  0  0  0  0999 V2000
   -3.7576    0.6012    0.6081 O   0  0  0  0  0  0  0  0  0  0  0  0
   -1.7351   -1.9814    1.0354 O   0  0  0  0  0  0  0  0  0  0  0  0
    0.6903   -0.3201    0.0147 N   0  0  0  0  0  0  0  0  0  0  0  0
   -0.3231    0.5816    0.0480 N   0  0  0  0  0  0  0  0  0  0  0  0
    2.5028    1.2599    0.0695 N   0  0  0  0  0  0  0  0  0  0  0  0
    2.9481   -0.9589   -0.0104 N   0  0  0  0  0  0  0  0  0  0  0  0
    3.8104    0.9654    0.0574 N   0  0  0  0  0  0  0  0  0  0  0  0
    4.1209   -0.3376    0.0107 N   0  0  0  0  0  0  0  0  0  0  0  0
   -1.5382    0.1294    0.0330 C   0  0  0  0  0  0  0  0  0  0  0  0
   -2.7470    1.0197    0.0662 C   0  0  0  0  0  0  0  0  0  0  0  0
   -1.6662   -1.3679   -0.0183 C   0  0  0  0  0  0  0  0  0  0  0  0
   -2.5902    2.3699   -0.5594 C   0  0  0  0  0  0  0  0  0  0  0  0
   -1.7256   -1.9856   -1.3808 C   0  0  0  0  0  0  0  0  0  0  0  0
    2.0104    0.0245    0.0257 C   0  0  0  0  0  0  0  0  0  0  0  0
    0.4807   -1.3126    0.0071 H   0  0  0  0  0  0  0  0  0  0  0  0
   -1.9014    2.9776    0.0325 H   0  0  0  0  0  0  0  0  0  0  0  0
   -2.2225    2.2653   -1.5834 H   0  0  0  0  0  0  0  0  0  0  0  0
   -3.5631    2.8684   -0.5917 H   0  0  0  0  0  0  0  0  0  0  0  0
   -1.6703   -3.0738   -1.2881 H   0  0  0  0  0  0  0  0  0  0  0  0
   -0.8853   -1.6477   -1.9920 H   0  0  0  0  0  0  0  0  0  0  0  0
   -2.6692   -1.7168   -1.8620 H   0  0  0  0  0  0  0  0  0  0  0  0
    4.5235    1.6863    0.0823 H   0  0  0  0  0  0  0  0  0  0  0  0
  1 10  2  0  0  0  0
  2 11  2  0  0  0  0
  3  4  1  0  0  0  0
  3 14  1  0  0  0  0
  3 15  1  0  0  0  0
  4  9  2  0  0  0  0
  5  7  1  0  0  0  0
  5 14  2  0  0  0  0
  6  8  2  0  0  0  0
  6 14  1  0  0  0  0
  7  8  1  0  0  0  0
  7 22  1  0  0  0  0
  9 10  1  0  0  0  0
  9 11  1  0  0  0  0
 10 12  1  0  0  0  0
 11 13  1  0  0  0  0
 12 16  1  0  0  0  0
 12 17  1  0  0  0  0
 12 18  1  0  0  0  0
 13 19  1  0  0  0  0
 13 20  1  0  0  0  0
 13 21  1  0  0  0  0
M  END
> <PUBCHEM_COMPOUND_CID>
144704

> <PUBCHEM_CONFORMER_RMSD>
0.6

> <PUBCHEM_CONFORMER_DIVERSEORDER>
1
24
15
8
23
6
10
13
11
19
14
21
22
9
12
3
17
7
5
4
18
20
2
16

> <PUBCHEM_MMFF94_PARTIAL_CHARGES>
16
1 -0.57
10 0.51
11 0.51
12 0.06
13 0.06
14 0.6
15 0.4
2 -0.57
22 0.27
3 -0.44
4 -0.49
5 -0.71
6 -0.23
7 0.57
8 -0.42
9 0.45

> <PUBCHEM_EFFECTIVE_ROTOR_COUNT>
4

> <PUBCHEM_PHARMACOPHORE_FEATURES>
6
1 1 acceptor
1 2 acceptor
1 3 donor
1 4 acceptor
4 3 5 6 14 cation
5 5 6 7 8 14 rings

> <PUBCHEM_HEAVY_ATOM_COUNT>
14

> <PUBCHEM_ATOM_DEF_STEREO_COUNT>
0

> <PUBCHEM_ATOM_UDEF_STEREO_COUNT>
0

> <PUBCHEM_BOND_DEF_STEREO_COUNT>
0

> <PUBCHEM_BOND_UDEF_STEREO_COUNT>
0

> <PUBCHEM_ISOTOPIC_ATOM_COUNT>
0

> <PUBCHEM_COMPONENT_COUNT>
1

> <PUBCHEM_CACTVS_TAUTO_COUNT>
27

> <PUBCHEM_CONFORMER_ID>
0002354000000001

> <PUBCHEM_MMFF94_ENERGY>
20.5674

> <PUBCHEM_FEATURE_SELFOVERLAP>
30.447

> <PUBCHEM_SHAPE_FINGERPRINT>
10608611 8 18411697712169241720
10922523 26 18411986840682338678
122479 349 18410579452913980801
12500047 106 18341604898144091820
12932764 1 17988085628988286482
13024252 1 17603300484108342619
13380535 76 18340769251947998783
14144814 61 18335137553369288256
14325111 11 18337390448278347008
14577589 140 18342460339364846254
14965852 173 18411134775089769966
15669948 3 18341043094730719254
18186145 218 18057610854183994981
20279233 1 17489592264228549766
20524608 308 18272084998349491735
20645477 56 18341893000086762632
20645477 70 17417819388089291518
20871998 184 18342746260091650703
21524375 3 18267019466929065501
23402539 116 18412536609813807821
23559900 14 17917707986313638082
3248919 1 18042115617523965166
366044 4 18272088262925355239
4175511 318 18343864415729236685
58051976 100 18272090530119669598
6333449 129 18343298184700200437
69090 78 18342453729763384631
81228 2 18123734603437266675
93112 12 18412261740180306492

> <PUBCHEM_SHAPE_MULTIPOLES>
246.49
6.75
2.11
0.83
5.95
0.14
0.11
-1.92
-0.3
-1.87
0.39
-0.56
0.35
0.05

> <PUBCHEM_SHAPE_SELFOVERLAP>
500.963

> <PUBCHEM_SHAPE_VOLUME>
143.4

> <PUBCHEM_COORDINATE_TYPE>
2
5
10

$$$$
