140363
  -OEChem-11012401173D

 22 22  0     1  0  0  0  0  0999 V2000
    1.7607    1.6585   -1.1242 F   0  0  0  0  0  0  0  0  0  0  0  0
    2.9629    0.5109    0.4002 F   0  0  0  0  0  0  0  0  0  0  0  0
   -1.6942    1.6916    1.1390 F   0  0  0  0  0  0  0  0  0  0  0  0
   -2.9342    0.5903   -0.3894 F   0  0  0  0  0  0  0  0  0  0  0  0
    1.8455    0.5067   -0.3898 N   0  0  0  0  0  0  0  0  0  0  0  0
   -1.8109    0.5514    0.3913 N   0  0  0  0  0  0  0  0  0  0  0  0
    0.6438    0.3493    0.4386 C   0  0  1  0  0  0  0  0  0  0  0  0
   -0.6197    0.3777   -0.4493 C   0  0  1  0  0  0  0  0  0  0  0  0
    0.7255   -0.9431    1.2707 C   0  0  0  0  0  0  0  0  0  0  0  0
   -0.7673   -0.9071   -1.2820 C   0  0  0  0  0  0  0  0  0  0  0  0
    0.5742   -2.2099    0.4275 C   0  0  0  0  0  0  0  0  0  0  0  0
   -0.6862   -2.1764   -0.4326 C   0  0  0  0  0  0  0  0  0  0  0  0
    0.6311    1.2011    1.1302 H   0  0  0  0  0  0  0  0  0  0  0  0
   -0.5832    1.2355   -1.1320 H   0  0  0  0  0  0  0  0  0  0  0  0
   -0.0670   -0.9297    2.0302 H   0  0  0  0  0  0  0  0  0  0  0  0
    1.6700   -0.9867    1.8268 H   0  0  0  0  0  0  0  0  0  0  0  0
    0.0299   -0.9366   -2.0361 H   0  0  0  0  0  0  0  0  0  0  0  0
   -1.7096   -0.9031   -1.8436 H   0  0  0  0  0  0  0  0  0  0  0  0
    0.5465   -3.0866    1.0846 H   0  0  0  0  0  0  0  0  0  0  0  0
    1.4523   -2.3287   -0.2189 H   0  0  0  0  0  0  0  0  0  0  0  0
   -0.7051   -3.0555   -1.0870 H   0  0  0  0  0  0  0  0  0  0  0  0
   -1.5699   -2.2476    0.2131 H   0  0  0  0  0  0  0  0  0  0  0  0
  1  5  1  0  0  0  0
  2  5  1  0  0  0  0
  3  6  1  0  0  0  0
  4  6  1  0  0  0  0
  5  7  1  0  0  0  0
  6  8  1  0  0  0  0
  7  8  1  0  0  0  0
  7  9  1  0  0  0  0
  7 13  1  0  0  0  0
  8 10  1  0  0  0  0
  8 14  1  0  0  0  0
  9 11  1  0  0  0  0
  9 15  1  0  0  0  0
  9 16  1  0  0  0  0
 10 12  1  0  0  0  0
 10 17  1  0  0  0  0
 10 18  1  0  0  0  0
 11 12  1  0  0  0  0
 11 19  1  0  0  0  0
 11 20  1  0  0  0  0
 12 21  1  0  0  0  0
 12 22  1  0  0  0  0
M  END
> <PUBCHEM_COMPOUND_CID>
140363

> <PUBCHEM_CONFORMER_RMSD>
0.6

> <PUBCHEM_CONFORMER_DIVERSEORDER>
1
18
14
8
16
2
21
9
17
10
22
11
24
19
20
15
23
7
12
6
5
4
3
13

> <PUBCHEM_MMFF94_PARTIAL_CHARGES>
8
1 -0.06
2 -0.06
3 -0.06
4 -0.06
5 -0.14
6 -0.14
7 0.27
8 0.27

> <PUBCHEM_EFFECTIVE_ROTOR_COUNT>
3.2

> <PUBCHEM_PHARMACOPHORE_FEATURES>
1
6 7 8 9 10 11 12 rings

> <PUBCHEM_HEAVY_ATOM_COUNT>
12

> <PUBCHEM_ATOM_DEF_STEREO_COUNT>
0

> <PUBCHEM_ATOM_UDEF_STEREO_COUNT>
2

> <PUBCHEM_BOND_DEF_STEREO_COUNT>
0

> <PUBCHEM_BOND_UDEF_STEREO_COUNT>
0

> <PUBCHEM_ISOTOPIC_ATOM_COUNT>
0

> <PUBCHEM_COMPONENT_COUNT>
1

> <PUBCHEM_CACTVS_TAUTO_COUNT>
1

> <PUBCHEM_CONFORMER_ID>
0002244B00000001

> <PUBCHEM_MMFF94_ENERGY>
-2.3349

> <PUBCHEM_FEATURE_SELFOVERLAP>
5.074

> <PUBCHEM_SHAPE_FINGERPRINT>
10702982 57 18336262426657621262
12423570 1 13501769198718958714
12716758 59 18059856194640959330
13024252 1 11748592453837873622
16945 1 18058743514258370911
17834069 17 17823722886625713425
19837323 101 18129950094933930926
20653091 64 17979927007870783091
21040471 1 18342733018216691170
2748010 2 16756038491432646446
430814 3 18409730646853326313
5084963 1 18412263900221776237
528862 383 18189606155551511339
68250623 7 18411146830715472799

> <PUBCHEM_SHAPE_MULTIPOLES>
207.9
2.83
2.12
1.16
0.16
0.93
0
-1.54
0.03
-0.09
-0.03
-0.01
-0.05
-0.73

> <PUBCHEM_SHAPE_SELFOVERLAP>
406.268

> <PUBCHEM_SHAPE_VOLUME>
126.3

> <PUBCHEM_COORDINATE_TYPE>
2
5
10

$$$$
