74446
  -OEChem-11012400543D

 25 25  0     0  0  0  0  0  0999 V2000
    3.2599    0.4528    0.0003 O   0  0  0  0  0  0  0  0  0  0  0  0
   -2.3809    0.2828    0.0000 C   0  0  0  0  0  0  0  0  0  0  0  0
   -0.8901    0.3227   -0.0001 C   0  0  0  0  0  0  0  0  0  0  0  0
   -2.9519   -0.3939    1.2606 C   0  0  0  0  0  0  0  0  0  0  0  0
   -2.9521   -0.3941   -1.2604 C   0  0  0  0  0  0  0  0  0  0  0  0
   -0.1602   -0.8660    0.0003 C   0  0  0  0  0  0  0  0  0  0  0  0
    1.2342   -0.8282    0.0004 C   0  0  0  0  0  0  0  0  0  0  0  0
   -0.2257    1.5491   -0.0003 C   0  0  0  0  0  0  0  0  0  0  0  0
    1.8986    0.3982    0.0001 C   0  0  0  0  0  0  0  0  0  0  0  0
    1.1687    1.5868   -0.0003 C   0  0  0  0  0  0  0  0  0  0  0  0
    1.9995   -2.1101   -0.0006 C   0  0  0  0  0  0  0  0  0  0  0  0
   -2.7632    1.3128   -0.0001 H   0  0  0  0  0  0  0  0  0  0  0  0
   -0.6729   -1.8246    0.0002 H   0  0  0  0  0  0  0  0  0  0  0  0
   -2.6887   -1.4560    1.3106 H   0  0  0  0  0  0  0  0  0  0  0  0
   -4.0449   -0.3207    1.2736 H   0  0  0  0  0  0  0  0  0  0  0  0
   -2.5717    0.0893    2.1675 H   0  0  0  0  0  0  0  0  0  0  0  0
   -2.5721    0.0889   -2.1675 H   0  0  0  0  0  0  0  0  0  0  0  0
   -4.0449   -0.3209   -1.2733 H   0  0  0  0  0  0  0  0  0  0  0  0
   -2.6887   -1.4562   -1.3104 H   0  0  0  0  0  0  0  0  0  0  0  0
   -0.7787    2.4846   -0.0005 H   0  0  0  0  0  0  0  0  0  0  0  0
    1.6734    2.5492   -0.0005 H   0  0  0  0  0  0  0  0  0  0  0  0
    2.6258   -2.1781   -0.8962 H   0  0  0  0  0  0  0  0  0  0  0  0
    2.6358   -2.1738    0.8883 H   0  0  0  0  0  0  0  0  0  0  0  0
    1.3379   -2.9830    0.0056 H   0  0  0  0  0  0  0  0  0  0  0  0
    3.5402    1.3840    0.0001 H   0  0  0  0  0  0  0  0  0  0  0  0
  1  9  1  0  0  0  0
  1 25  1  0  0  0  0
  2  3  1  0  0  0  0
  2  4  1  0  0  0  0
  2  5  1  0  0  0  0
  2 12  1  0  0  0  0
  3  6  2  0  0  0  0
  3  8  1  0  0  0  0
  4 14  1  0  0  0  0
  4 15  1  0  0  0  0
  4 16  1  0  0  0  0
  5 17  1  0  0  0  0
  5 18  1  0  0  0  0
  5 19  1  0  0  0  0
  6  7  1  0  0  0  0
  6 13  1  0  0  0  0
  7  9  2  0  0  0  0
  7 11  1  0  0  0  0
  8 10  2  0  0  0  0
  8 20  1  0  0  0  0
  9 10  1  0  0  0  0
 10 21  1  0  0  0  0
 11 22  1  0  0  0  0
 11 23  1  0  0  0  0
 11 24  1  0  0  0  0
M  END
> <PUBCHEM_COMPOUND_CID>
74446

> <PUBCHEM_CONFORMER_RMSD>
0.4

> <PUBCHEM_CONFORMER_DIVERSEORDER>
1
3
2

> <PUBCHEM_MMFF94_PARTIAL_CHARGES>
13
1 -0.53
10 -0.15
11 0.14
13 0.15
2 0.14
20 0.15
21 0.15
25 0.45
3 -0.14
6 -0.15
7 -0.14
8 -0.15
9 0.08

> <PUBCHEM_EFFECTIVE_ROTOR_COUNT>
1

> <PUBCHEM_PHARMACOPHORE_FEATURES>
3
1 1 donor
3 2 4 5 hydrophobe
6 3 6 7 8 9 10 rings

> <PUBCHEM_HEAVY_ATOM_COUNT>
11

> <PUBCHEM_ATOM_DEF_STEREO_COUNT>
0

> <PUBCHEM_ATOM_UDEF_STEREO_COUNT>
0

> <PUBCHEM_BOND_DEF_STEREO_COUNT>
0

> <PUBCHEM_BOND_UDEF_STEREO_COUNT>
0

> <PUBCHEM_ISOTOPIC_ATOM_COUNT>
0

> <PUBCHEM_COMPONENT_COUNT>
1

> <PUBCHEM_CACTVS_TAUTO_COUNT>
3

> <PUBCHEM_CONFORMER_ID>
000122CE00000001

> <PUBCHEM_MMFF94_ENERGY>
26.0068

> <PUBCHEM_FEATURE_SELFOVERLAP>
15.223

> <PUBCHEM_SHAPE_FINGERPRINT>
10219947 1 18409447020372488856
12138202 97 17385991914867428363
12897270 3 18409443704436125469
12932764 1 17917992767560702177
16945 1 18410574019595741444
17844478 74 17967824855230017001
20201158 50 18260546727559137651
20645477 70 18339353064208435239
20711985 344 17608924292220239852
20871998 22 18054799381656582254
21040471 1 17978228597308017792
21501502 16 18194680371764931924
23402655 69 18266722629218646445
23552423 10 18189901898604524142
2748010 2 18194397793123901804
29004967 10 18334581239092808049
3248919 1 18040433282907653661
5084963 1 18058723731865995157
528886 8 18411978095870422120
63268167 104 18413665807791173353

> <PUBCHEM_SHAPE_MULTIPOLES>
220.51
4.53
1.69
0.9
1.14
0.19
0
0.72
0
-1.13
0
0.88
0.13
0

> <PUBCHEM_SHAPE_SELFOVERLAP>
450.752

> <PUBCHEM_SHAPE_VOLUME>
129.6

> <PUBCHEM_COORDINATE_TYPE>
2
5
10

$$$$
