22278042
  -OEChem-10312420472D

 14 13  0     0  0  0  0  0  0999 V2000
    1.8543    1.5000    0.0000 O   0  0  0  0  0  0  0  0  0  0  0  0
    0.1222    1.5000    0.0000 O   0  5  0  0  0  0  0  0  0  0  0  0
    0.9882    0.0000    0.0000 O   0  0  0  0  0  0  0  0  0  0  0  0
    1.7044    4.1200    0.0000 N   0  0  0  0  0  0  0  0  0  0  0  0
    0.8954    4.7078    0.0000 N   0  0  0  0  0  0  0  0  0  0  0  0
    2.2044    5.6588    0.0000 N   0  0  0  0  0  0  0  0  0  0  0  0
    0.6166    6.4679    0.0000 N   0  0  0  0  0  0  0  0  0  0  0  0
    2.5134    4.7078    0.0000 N   0  0  0  0  0  0  0  0  0  0  0  0
    0.9882    1.0000    0.0000 N   0  3  0  0  0  0  0  0  0  0  0  0
    1.2044    5.6588    0.0000 C   0  0  0  0  0  0  0  0  0  0  0  0
    1.7044    3.5000    0.0000 H   0  0  0  0  0  0  0  0  0  0  0  0
    0.8688    7.0343    0.0000 H   0  0  0  0  0  0  0  0  0  0  0  0
    0.0000    6.4030    0.0000 H   0  0  0  0  0  0  0  0  0  0  0  0
    2.3912    1.1900    0.0000 H   0  0  0  0  0  0  0  0  0  0  0  0
  1  9  1  0  0  0  0
  1 14  1  0  0  0  0
  2  9  1  0  0  0  0
  3  9  2  0  0  0  0
  4  5  1  0  0  0  0
  4  8  1  0  0  0  0
  4 11  1  0  0  0  0
  5 10  2  0  0  0  0
  6  8  2  0  0  0  0
  6 10  1  0  0  0  0
  7 10  1  0  0  0  0
  7 12  1  0  0  0  0
  7 13  1  0  0  0  0
M  CHG  2   2  -1   9   1
M  END
> <PUBCHEM_COMPOUND_CID>
22278042

> <PUBCHEM_COMPOUND_CANONICALIZED>
1

> <PUBCHEM_CACTVS_COMPLEXITY>
68

> <PUBCHEM_CACTVS_HBOND_ACCEPTOR>
7

> <PUBCHEM_CACTVS_HBOND_DONOR>
3

> <PUBCHEM_CACTVS_ROTATABLE_BOND>
0

> <PUBCHEM_CACTVS_SUBSKEYS>
AAADcYADsAAAAAAAAAAAAAAAAAAAAWAAAAAAAAAAAAAAAAABgAAABAAcCAAAAAAAAAABEARCQAAjAAAAIQAAAAIAAAAEIAAAAAAAAAAAAAAAAAAQAAAAAAAAAAAAAAAAAAAAAAAAAAAAAAAAAAAAAAAAAA==

> <PUBCHEM_IUPAC_OPENEYE_NAME>
nitric acid;2H-tetrazol-5-amine

> <PUBCHEM_IUPAC_CAS_NAME>
nitric acid;2H-tetrazol-5-amine

> <PUBCHEM_IUPAC_NAME_MARKUP>
nitric acid;2<I>H</I>-tetrazol-5-amine

> <PUBCHEM_IUPAC_NAME>
nitric acid;2H-tetrazol-5-amine

> <PUBCHEM_IUPAC_SYSTEMATIC_NAME>
nitric acid;2H-1,2,3,4-tetrazol-5-amine

> <PUBCHEM_IUPAC_TRADITIONAL_NAME>
nitric acid;2H-tetrazol-5-ylamine

> <PUBCHEM_IUPAC_INCHI>
InChI=1S/CH3N5.HNO3/c2-1-3-5-6-4-1;2-1(3)4/h(H3,2,3,4,5,6);(H,2,3,4)

> <PUBCHEM_IUPAC_INCHIKEY>
TVIRJXQLFRFUCD-UHFFFAOYSA-N

> <PUBCHEM_EXACT_MASS>
148.03448801

> <PUBCHEM_MOLECULAR_FORMULA>
CH4N6O3

> <PUBCHEM_MOLECULAR_WEIGHT>
148.08

> <PUBCHEM_OPENEYE_CAN_SMILES>
C1(=NNN=N1)N.[N+](=O)(O)[O-]

> <PUBCHEM_OPENEYE_ISO_SMILES>
C1(=NNN=N1)N.[N+](=O)(O)[O-]

> <PUBCHEM_CACTVS_TPSA>
147

> <PUBCHEM_MONOISOTOPIC_WEIGHT>
148.03448801

> <PUBCHEM_TOTAL_CHARGE>
0

> <PUBCHEM_HEAVY_ATOM_COUNT>
10

> <PUBCHEM_ATOM_DEF_STEREO_COUNT>
0

> <PUBCHEM_ATOM_UDEF_STEREO_COUNT>
0

> <PUBCHEM_BOND_DEF_STEREO_COUNT>
0

> <PUBCHEM_BOND_UDEF_STEREO_COUNT>
0

> <PUBCHEM_ISOTOPIC_ATOM_COUNT>
0

> <PUBCHEM_COMPONENT_COUNT>
2

> <PUBCHEM_CACTVS_TAUTO_COUNT>
-1

> <PUBCHEM_COORDINATE_TYPE>
1
5
255

> <PUBCHEM_BONDANNOTATIONS>
4  5  8
4  8  8
5  10  8
6  10  8
6  8  8

$$$$
