138205
  -OEChem-11012401193D

 25 25  0     0  0  0  0  0  0999 V2000
   -2.9032    1.0428    0.0004 O   0  0  0  0  0  0  0  0  0  0  0  0
    1.9730    0.4354    0.0000 C   0  0  0  0  0  0  0  0  0  0  0  0
    0.5800   -0.1036   -0.0006 C   0  0  0  0  0  0  0  0  0  0  0  0
   -0.5223    0.7513   -0.0006 C   0  0  0  0  0  0  0  0  0  0  0  0
    2.7624    0.0361   -1.2613 C   0  0  0  0  0  0  0  0  0  0  0  0
    2.7613    0.0370    1.2623 C   0  0  0  0  0  0  0  0  0  0  0  0
    0.3908   -1.4856   -0.0001 C   0  0  0  0  0  0  0  0  0  0  0  0
   -1.8138    0.2240   -0.0002 C   0  0  0  0  0  0  0  0  0  0  0  0
   -0.3251    2.2335   -0.0003 C   0  0  0  0  0  0  0  0  0  0  0  0
   -0.9005   -2.0129    0.0003 C   0  0  0  0  0  0  0  0  0  0  0  0
   -2.0027   -1.1581    0.0002 C   0  0  0  0  0  0  0  0  0  0  0  0
    1.9769    1.5289   -0.0005 H   0  0  0  0  0  0  0  0  0  0  0  0
    2.9261   -1.0454   -1.3177 H   0  0  0  0  0  0  0  0  0  0  0  0
    3.7447    0.5210   -1.2698 H   0  0  0  0  0  0  0  0  0  0  0  0
    2.2282    0.3432   -2.1674 H   0  0  0  0  0  0  0  0  0  0  0  0
    2.2263    0.3448    2.1676 H   0  0  0  0  0  0  0  0  0  0  0  0
    3.7436    0.5220    1.2712 H   0  0  0  0  0  0  0  0  0  0  0  0
    2.9249   -1.0444    1.3196 H   0  0  0  0  0  0  0  0  0  0  0  0
    1.2331   -2.1719    0.0001 H   0  0  0  0  0  0  0  0  0  0  0  0
    0.2167    2.5517   -0.8974 H   0  0  0  0  0  0  0  0  0  0  0  0
   -1.2696    2.7872   -0.0006 H   0  0  0  0  0  0  0  0  0  0  0  0
    0.2160    2.5514    0.8975 H   0  0  0  0  0  0  0  0  0  0  0  0
   -1.0478   -3.0890    0.0007 H   0  0  0  0  0  0  0  0  0  0  0  0
   -3.0029   -1.5829    0.0006 H   0  0  0  0  0  0  0  0  0  0  0  0
   -3.7094    0.4988    0.0007 H   0  0  0  0  0  0  0  0  0  0  0  0
  1  8  1  0  0  0  0
  1 25  1  0  0  0  0
  2  3  1  0  0  0  0
  2  5  1  0  0  0  0
  2  6  1  0  0  0  0
  2 12  1  0  0  0  0
  3  4  2  0  0  0  0
  3  7  1  0  0  0  0
  4  8  1  0  0  0  0
  4  9  1  0  0  0  0
  5 13  1  0  0  0  0
  5 14  1  0  0  0  0
  5 15  1  0  0  0  0
  6 16  1  0  0  0  0
  6 17  1  0  0  0  0
  6 18  1  0  0  0  0
  7 10  2  0  0  0  0
  7 19  1  0  0  0  0
  8 11  2  0  0  0  0
  9 20  1  0  0  0  0
  9 21  1  0  0  0  0
  9 22  1  0  0  0  0
 10 11  1  0  0  0  0
 10 23  1  0  0  0  0
 11 24  1  0  0  0  0
M  END
> <PUBCHEM_COMPOUND_CID>
138205

> <PUBCHEM_CONFORMER_RMSD>
0.4

> <PUBCHEM_CONFORMER_DIVERSEORDER>
1
2

> <PUBCHEM_MMFF94_PARTIAL_CHARGES>
13
1 -0.53
10 -0.15
11 -0.15
19 0.15
2 0.14
23 0.15
24 0.15
25 0.45
3 -0.14
4 -0.14
7 -0.15
8 0.08
9 0.14

> <PUBCHEM_EFFECTIVE_ROTOR_COUNT>
1

> <PUBCHEM_PHARMACOPHORE_FEATURES>
3
1 1 donor
3 2 5 6 hydrophobe
6 3 4 7 8 10 11 rings

> <PUBCHEM_HEAVY_ATOM_COUNT>
11

> <PUBCHEM_ATOM_DEF_STEREO_COUNT>
0

> <PUBCHEM_ATOM_UDEF_STEREO_COUNT>
0

> <PUBCHEM_BOND_DEF_STEREO_COUNT>
0

> <PUBCHEM_BOND_UDEF_STEREO_COUNT>
0

> <PUBCHEM_ISOTOPIC_ATOM_COUNT>
0

> <PUBCHEM_COMPONENT_COUNT>
1

> <PUBCHEM_CACTVS_TAUTO_COUNT>
9

> <PUBCHEM_CONFORMER_ID>
00021BDD00000001

> <PUBCHEM_MMFF94_ENERGY>
29.777

> <PUBCHEM_FEATURE_SELFOVERLAP>
15.223

> <PUBCHEM_SHAPE_FINGERPRINT>
10857977 72 18270392918504769282
11206711 2 18336822104325991895
12423570 1 11886029100817710930
12524768 44 18127130994533609180
12716758 59 18341900670914047550
15310529 11 16660644072126563820
15775835 57 17967538977827497156
16945 1 18410573985288646661
193761 8 17834114530292258341
20645464 45 17988635328893805274
20645476 183 17749682860412271710
20871998 184 18128535053502391790
21040471 1 18410855421489390823
22802520 49 18129402443907310334
23235685 24 18409731724932452181
23552423 10 17611747107977840517
23559900 14 18343591720789071478
241688 4 16176505639327074675
2748010 2 18267582601181056173
29004967 10 16558756745144526218
369184 2 18336814385953139098
5084963 1 18129388111590750836
528886 8 18411138013331593897

> <PUBCHEM_SHAPE_MULTIPOLES>
220.51
3.79
1.93
0.91
1.02
0.16
0
0.23
0
-0.97
0
0.82
-0.03
0

> <PUBCHEM_SHAPE_SELFOVERLAP>
451.986

> <PUBCHEM_SHAPE_VOLUME>
129.1

> <PUBCHEM_COORDINATE_TYPE>
2
5
10

$$$$
