141056
  -OEChem-11012401093D

 29 31  0     1  0  0  0  0  0999 V2000
   -0.0016   -0.3972   -0.0008 O   0  0  0  0  0  0  0  0  0  0  0  0
   -0.7100    1.8086   -0.1744 O   0  0  0  0  0  0  0  0  0  0  0  0
    0.7057    1.8085    0.1759 O   0  0  0  0  0  0  0  0  0  0  0  0
   -0.9342    0.4775   -0.6323 C   0  0  2  0  0  0  0  0  0  0  0  0
    0.9302    0.4770    0.6324 C   0  0  2  0  0  0  0  0  0  0  0  0
   -2.3408    0.0490   -0.3143 C   0  0  0  0  0  0  0  0  0  0  0  0
    2.3374    0.0497    0.3148 C   0  0  0  0  0  0  0  0  0  0  0  0
   -2.9977   -0.8597   -1.1441 C   0  0  0  0  0  0  0  0  0  0  0  0
    2.9997   -0.8613    1.1426 C   0  0  0  0  0  0  0  0  0  0  0  0
   -2.9884    0.5606    0.8103 C   0  0  0  0  0  0  0  0  0  0  0  0
    2.9910    0.5615   -0.8099 C   0  0  0  0  0  0  0  0  0  0  0  0
   -4.3020   -1.2567   -0.8493 C   0  0  0  0  0  0  0  0  0  0  0  0
    4.3045   -1.2571    0.8482 C   0  0  0  0  0  0  0  0  0  0  0  0
   -4.2926    0.1634    1.1053 C   0  0  0  0  0  0  0  0  0  0  0  0
    4.2957    0.1656   -1.1044 C   0  0  0  0  0  0  0  0  0  0  0  0
   -4.9493   -0.7453    0.2755 C   0  0  0  0  0  0  0  0  0  0  0  0
    4.9524   -0.7439   -0.2754 C   0  0  0  0  0  0  0  0  0  0  0  0
   -0.7567    0.4613   -1.7140 H   0  0  0  0  0  0  0  0  0  0  0  0
    0.7525    0.4590    1.7140 H   0  0  0  0  0  0  0  0  0  0  0  0
   -2.5028   -1.2664   -2.0220 H   0  0  0  0  0  0  0  0  0  0  0  0
    2.5052   -1.2699    2.0201 H   0  0  0  0  0  0  0  0  0  0  0  0
   -2.4948    1.2600    1.4794 H   0  0  0  0  0  0  0  0  0  0  0  0
    2.4978    1.2618   -1.4786 H   0  0  0  0  0  0  0  0  0  0  0  0
   -4.8133   -1.9647   -1.4949 H   0  0  0  0  0  0  0  0  0  0  0  0
    4.8157   -1.9656    1.4934 H   0  0  0  0  0  0  0  0  0  0  0  0
   -4.7960    0.5592    1.9825 H   0  0  0  0  0  0  0  0  0  0  0  0
    4.7994    0.5630   -1.9807 H   0  0  0  0  0  0  0  0  0  0  0  0
   -5.9645   -1.0553    0.5055 H   0  0  0  0  0  0  0  0  0  0  0  0
    5.9679   -1.0529   -0.5052 H   0  0  0  0  0  0  0  0  0  0  0  0
  1  4  1  0  0  0  0
  1  5  1  0  0  0  0
  2  3  1  0  0  0  0
  2  4  1  0  0  0  0
  3  5  1  0  0  0  0
  4  6  1  0  0  0  0
  4 18  1  0  0  0  0
  5  7  1  0  0  0  0
  5 19  1  0  0  0  0
  6  8  2  0  0  0  0
  6 10  1  0  0  0  0
  7  9  2  0  0  0  0
  7 11  1  0  0  0  0
  8 12  1  0  0  0  0
  8 20  1  0  0  0  0
  9 13  1  0  0  0  0
  9 21  1  0  0  0  0
 10 14  2  0  0  0  0
 10 22  1  0  0  0  0
 11 15  2  0  0  0  0
 11 23  1  0  0  0  0
 12 16  2  0  0  0  0
 12 24  1  0  0  0  0
 13 17  2  0  0  0  0
 13 25  1  0  0  0  0
 14 16  1  0  0  0  0
 14 26  1  0  0  0  0
 15 17  1  0  0  0  0
 15 27  1  0  0  0  0
 16 28  1  0  0  0  0
 17 29  1  0  0  0  0
M  END
> <PUBCHEM_COMPOUND_CID>
141056

> <PUBCHEM_CONFORMER_RMSD>
0.6

> <PUBCHEM_CONFORMER_DIVERSEORDER>
1
7
2
4
8
5
9
3
6

> <PUBCHEM_MMFF94_PARTIAL_CHARGES>
27
1 -0.56
10 -0.15
11 -0.15
12 -0.15
13 -0.15
14 -0.15
15 -0.15
16 -0.15
17 -0.15
2 -0.28
20 0.15
21 0.15
22 0.15
23 0.15
24 0.15
25 0.15
26 0.15
27 0.15
28 0.15
29 0.15
3 -0.28
4 0.7
5 0.7
6 -0.14
7 -0.14
8 -0.15
9 -0.15

> <PUBCHEM_EFFECTIVE_ROTOR_COUNT>
3

> <PUBCHEM_PHARMACOPHORE_FEATURES>
4
1 1 acceptor
5 1 2 3 4 5 rings
6 6 8 10 12 14 16 rings
6 7 9 11 13 15 17 rings

> <PUBCHEM_HEAVY_ATOM_COUNT>
17

> <PUBCHEM_ATOM_DEF_STEREO_COUNT>
0

> <PUBCHEM_ATOM_UDEF_STEREO_COUNT>
2

> <PUBCHEM_BOND_DEF_STEREO_COUNT>
0

> <PUBCHEM_BOND_UDEF_STEREO_COUNT>
0

> <PUBCHEM_ISOTOPIC_ATOM_COUNT>
0

> <PUBCHEM_COMPONENT_COUNT>
1

> <PUBCHEM_CACTVS_TAUTO_COUNT>
1

> <PUBCHEM_CONFORMER_ID>
0002270000000001

> <PUBCHEM_MMFF94_ENERGY>
38.7556

> <PUBCHEM_FEATURE_SELFOVERLAP>
20.297

> <PUBCHEM_SHAPE_FINGERPRINT>
11046707 91 18342735221919938369
11089746 13 8718536204396628270
11128504 68 18261120694536138308
11287383 113 15791737424907225726
114248 4 15719112465457491526
11543360 7 15719391732836758342
12119455 92 11959731551386826625
12236239 1 18410580582226648448
12507557 5 11887665191463267099
12507560 40 15482953847611141296
12553582 1 18410847767841799622
12596602 18 17060335240542431130
12670546 56 14979959129623889227
128620 24 17167864166561166174
12892183 10 15769777944096057455
13288520 33 18413389821561172951
13583140 156 13686003332915030527
13675066 3 15770057232939617728
13760787 5 18187366536291145997
14251764 38 13038919801930096867
14252887 29 16988566792835642398
14341114 176 15698002954906761866
14576447 43 18113617851216798922
15188451 53 16916489459249575703
15209289 33 18342739628556761051
15375462 189 18409164398417873426
17804303 29 17847061103641977017
17834072 33 18059859514545463368
1813 80 18410583876540658420
18222031 100 18272923955833520837
18915474 69 18261392282144991158
19489759 90 16559031571970714267
200 152 17967250875668639352
20028762 73 17845087562097181543
20281475 54 18411132537074367490
20645477 70 17095239181858859786
20871999 31 14923943479439850427
21065199 12 15769772472297276778
212847 35 9439404623142241798
22094290 60 16950561069472499725
22646028 1 18410853261105010182
22646028 28 18410853261105062150
22950370 63 18410578383198020711
23402539 116 18260265214033196900
23402655 69 14779263094720787966
235170 7 15864063248032369971
23596394 208 16008740282539421418
314173 85 18060696182463991368
3268164 11 12901542472965051691
328317 168 10665228154911171471
34797466 226 15285368326929837999
351380 180 12251903715653173262
351380 3 18410575088958435970
4028521 119 13262391155197783159
42 15 16558753420554957039
4259306 186 18113330895023165467
465052 167 18411425046101948447
5104073 3 17774443914347413587
5281201 14 16225766294334937262
5385378 56 17273154401503153107
573450 72 17989489628127739419
5924683 9 14907601455201133525
602551 16 17704067425953480270
83771 10 18409445881947712045

> <PUBCHEM_SHAPE_MULTIPOLES>
332.24
11.27
1.32
1.16
0.03
0.25
0
-4.35
0
0
0
0
-0.15
-1.02

> <PUBCHEM_SHAPE_SELFOVERLAP>
720.792

> <PUBCHEM_SHAPE_VOLUME>
179.5

> <PUBCHEM_COORDINATE_TYPE>
2
5
10

$$$$
