67115
  -OEChem-11012401133D

 27 27  0     0  0  0  0  0  0999 V2000
   -4.1822    0.2621   -0.7226 O   0  0  0  0  0  0  0  0  0  0  0  0
    1.9515    0.0281   -0.0320 N   0  0  0  0  0  0  0  0  0  0  0  0
   -3.6089   -0.1446    0.2990 N   0  0  0  0  0  0  0  0  0  0  0  0
    2.6923   -1.1088   -0.5416 C   0  0  0  0  0  0  0  0  0  0  0  0
    2.6746    1.2158    0.3774 C   0  0  0  0  0  0  0  0  0  0  0  0
    0.5444   -0.0156    0.0517 C   0  0  0  0  0  0  0  0  0  0  0  0
    2.8849   -2.1650    0.5333 C   0  0  0  0  0  0  0  0  0  0  0  0
    2.6724    2.2657   -0.7207 C   0  0  0  0  0  0  0  0  0  0  0  0
   -0.1596    1.0835    0.5435 C   0  0  0  0  0  0  0  0  0  0  0  0
   -0.1435   -1.1582   -0.3575 C   0  0  0  0  0  0  0  0  0  0  0  0
   -1.5513    1.0403    0.6265 C   0  0  0  0  0  0  0  0  0  0  0  0
   -1.5353   -1.2013   -0.2746 C   0  0  0  0  0  0  0  0  0  0  0  0
   -2.2391   -0.1020    0.2174 C   0  0  0  0  0  0  0  0  0  0  0  0
    2.2444   -1.5315   -1.4481 H   0  0  0  0  0  0  0  0  0  0  0  0
    3.6883   -0.7804   -0.8675 H   0  0  0  0  0  0  0  0  0  0  0  0
    2.3127    1.6239    1.3280 H   0  0  0  0  0  0  0  0  0  0  0  0
    3.7205    0.9531    0.5848 H   0  0  0  0  0  0  0  0  0  0  0  0
    3.4168   -1.7489    1.3958 H   0  0  0  0  0  0  0  0  0  0  0  0
    1.9385   -2.5735    0.8981 H   0  0  0  0  0  0  0  0  0  0  0  0
    3.4795   -2.9964    0.1412 H   0  0  0  0  0  0  0  0  0  0  0  0
    3.1214    1.8698   -1.6382 H   0  0  0  0  0  0  0  0  0  0  0  0
    1.6654    2.6110   -0.9708 H   0  0  0  0  0  0  0  0  0  0  0  0
    3.2574    3.1370   -0.4091 H   0  0  0  0  0  0  0  0  0  0  0  0
    0.3135    2.0000    0.8776 H   0  0  0  0  0  0  0  0  0  0  0  0
    0.3425   -2.0444   -0.7496 H   0  0  0  0  0  0  0  0  0  0  0  0
   -2.0845    1.9063    1.0127 H   0  0  0  0  0  0  0  0  0  0  0  0
   -2.0560   -2.1000   -0.5980 H   0  0  0  0  0  0  0  0  0  0  0  0
  1  3  2  0  0  0  0
  2  4  1  0  0  0  0
  2  5  1  0  0  0  0
  2  6  1  0  0  0  0
  3 13  1  0  0  0  0
  4  7  1  0  0  0  0
  4 14  1  0  0  0  0
  4 15  1  0  0  0  0
  5  8  1  0  0  0  0
  5 16  1  0  0  0  0
  5 17  1  0  0  0  0
  6  9  2  0  0  0  0
  6 10  1  0  0  0  0
  7 18  1  0  0  0  0
  7 19  1  0  0  0  0
  7 20  1  0  0  0  0
  8 21  1  0  0  0  0
  8 22  1  0  0  0  0
  8 23  1  0  0  0  0
  9 11  1  0  0  0  0
  9 24  1  0  0  0  0
 10 12  2  0  0  0  0
 10 25  1  0  0  0  0
 11 13  2  0  0  0  0
 11 26  1  0  0  0  0
 12 13  1  0  0  0  0
 12 27  1  0  0  0  0
M  END
> <PUBCHEM_COMPOUND_CID>
67115

> <PUBCHEM_CONFORMER_RMSD>
0.6

> <PUBCHEM_CONFORMER_DIVERSEORDER>
1
11
3
7
8
5
9
4
10
2
12
6

> <PUBCHEM_MMFF94_PARTIAL_CHARGES>
15
1 -0.16
10 -0.15
11 -0.15
12 -0.15
13 0.3
2 -0.84
24 0.15
25 0.15
26 0.15
27 0.15
3 -0.14
4 0.37
5 0.37
6 0.1
9 -0.15

> <PUBCHEM_EFFECTIVE_ROTOR_COUNT>
4

> <PUBCHEM_PHARMACOPHORE_FEATURES>
2
1 2 cation
6 6 9 10 11 12 13 rings

> <PUBCHEM_HEAVY_ATOM_COUNT>
13

> <PUBCHEM_ATOM_DEF_STEREO_COUNT>
0

> <PUBCHEM_ATOM_UDEF_STEREO_COUNT>
0

> <PUBCHEM_BOND_DEF_STEREO_COUNT>
0

> <PUBCHEM_BOND_UDEF_STEREO_COUNT>
0

> <PUBCHEM_ISOTOPIC_ATOM_COUNT>
0

> <PUBCHEM_COMPONENT_COUNT>
1

> <PUBCHEM_CACTVS_TAUTO_COUNT>
1

> <PUBCHEM_CONFORMER_ID>
0001062B00000001

> <PUBCHEM_MMFF94_ENERGY>
42.0248

> <PUBCHEM_FEATURE_SELFOVERLAP>
10.148

> <PUBCHEM_SHAPE_FINGERPRINT>
10130415 120 18272087167107470747
12932764 1 17240477005317999851
13380535 21 18267878352523544202
13380535 76 18340206405379513786
13571099 22 18408885113916726967
13760787 5 18343303665452964477
14325111 11 18413672417872494425
14897335 6 18270677683537269732
16945 1 18269284473250364179
18186145 218 18408326562252312455
18619055 16 18413106182073899797
19026448 4 17675927607931411283
20559304 39 18342177739560098818
20645476 183 18338243789555376223
20645477 70 18412545396905730951
20671657 53 18265052423199289166
21501502 16 18271815566313548449
21501925 9 18270391703261315050
2255824 54 18408328778672020310
22959321 4 18410858733241582987
23463225 33 18342177730479709626
23552423 10 18410295843407141198
23559900 14 18410852149062129442
2748010 2 18269845374499182078
449060 62 18342184404864324792
5084963 1 18129945572370161802
53812654 25 17632283571381570175
7364860 26 18272934929881065808
8030462 33 18130797784150094624
81539 233 18261113040841353308

> <PUBCHEM_SHAPE_MULTIPOLES>
251.7
5.91
2.04
0.81
3.48
0.07
0.01
0.05
0.59
-2.3
0.06
-0.07
0.07
-0.48

> <PUBCHEM_SHAPE_SELFOVERLAP>
510.338

> <PUBCHEM_SHAPE_VOLUME>
148.4

> <PUBCHEM_COORDINATE_TYPE>
2
5
10

$$$$
