9074
  -OEChem-11012400553D

 25 26  0     0  0  0  0  0  0999 V2000
   -4.8405    1.2309   -0.5659 O   0  0  0  0  0  0  0  0  0  0  0  0
    0.8353   -1.1581   -0.0847 N   0  0  0  0  0  0  0  0  0  0  0  0
   -4.4828    0.4546    0.3324 N   0  0  0  0  0  0  0  0  0  0  0  0
   -0.5106   -0.7500    0.0208 C   0  0  0  0  0  0  0  0  0  0  0  0
    2.0511   -0.4470   -0.0786 C   0  0  0  0  0  0  0  0  0  0  0  0
   -0.8377    0.3927    0.7509 C   0  0  0  0  0  0  0  0  0  0  0  0
   -1.5146   -1.4889   -0.6052 C   0  0  0  0  0  0  0  0  0  0  0  0
    3.2104   -1.0474    0.4154 C   0  0  0  0  0  0  0  0  0  0  0  0
    2.0991    0.8601   -0.5663 C   0  0  0  0  0  0  0  0  0  0  0  0
   -2.1689    0.7962    0.8555 C   0  0  0  0  0  0  0  0  0  0  0  0
   -2.8457   -1.0852   -0.5006 C   0  0  0  0  0  0  0  0  0  0  0  0
   -3.1727    0.0574    0.2297 C   0  0  0  0  0  0  0  0  0  0  0  0
    4.4142   -0.3429    0.4219 C   0  0  0  0  0  0  0  0  0  0  0  0
    3.3030    1.5646   -0.5598 C   0  0  0  0  0  0  0  0  0  0  0  0
    4.4605    0.9630   -0.0656 C   0  0  0  0  0  0  0  0  0  0  0  0
    0.9500   -2.1630   -0.1833 H   0  0  0  0  0  0  0  0  0  0  0  0
   -0.0794    0.9748    1.2671 H   0  0  0  0  0  0  0  0  0  0  0  0
   -1.2720   -2.3805   -1.1778 H   0  0  0  0  0  0  0  0  0  0  0  0
    3.1872   -2.0643    0.7991 H   0  0  0  0  0  0  0  0  0  0  0  0
    1.2186    1.3462   -0.9776 H   0  0  0  0  0  0  0  0  0  0  0  0
   -2.4060    1.6870    1.4331 H   0  0  0  0  0  0  0  0  0  0  0  0
   -3.6154   -1.6735   -0.9953 H   0  0  0  0  0  0  0  0  0  0  0  0
    5.3155   -0.8111    0.8066 H   0  0  0  0  0  0  0  0  0  0  0  0
    3.3405    2.5798   -0.9440 H   0  0  0  0  0  0  0  0  0  0  0  0
    5.3980    1.5113   -0.0617 H   0  0  0  0  0  0  0  0  0  0  0  0
  1  3  2  0  0  0  0
  2  4  1  0  0  0  0
  2  5  1  0  0  0  0
  2 16  1  0  0  0  0
  3 12  1  0  0  0  0
  4  6  2  0  0  0  0
  4  7  1  0  0  0  0
  5  8  2  0  0  0  0
  5  9  1  0  0  0  0
  6 10  1  0  0  0  0
  6 17  1  0  0  0  0
  7 11  2  0  0  0  0
  7 18  1  0  0  0  0
  8 13  1  0  0  0  0
  8 19  1  0  0  0  0
  9 14  2  0  0  0  0
  9 20  1  0  0  0  0
 10 12  2  0  0  0  0
 10 21  1  0  0  0  0
 11 12  1  0  0  0  0
 11 22  1  0  0  0  0
 13 15  2  0  0  0  0
 13 23  1  0  0  0  0
 14 15  1  0  0  0  0
 14 24  1  0  0  0  0
 15 25  1  0  0  0  0
M  END
> <PUBCHEM_COMPOUND_CID>
9074

> <PUBCHEM_CONFORMER_RMSD>
0.6

> <PUBCHEM_CONFORMER_DIVERSEORDER>
1
2
5
3
4

> <PUBCHEM_MMFF94_PARTIAL_CHARGES>
25
1 -0.16
10 -0.15
11 -0.15
12 0.3
13 -0.15
14 -0.15
15 -0.15
16 0.4
17 0.15
18 0.15
19 0.15
2 -0.6
20 0.15
21 0.15
22 0.15
23 0.15
24 0.15
25 0.15
3 -0.14
4 0.1
5 0.1
6 -0.15
7 -0.15
8 -0.15
9 -0.15

> <PUBCHEM_EFFECTIVE_ROTOR_COUNT>
3

> <PUBCHEM_PHARMACOPHORE_FEATURES>
4
1 2 cation
1 2 donor
6 4 6 7 10 11 12 rings
6 5 8 9 13 14 15 rings

> <PUBCHEM_HEAVY_ATOM_COUNT>
15

> <PUBCHEM_ATOM_DEF_STEREO_COUNT>
0

> <PUBCHEM_ATOM_UDEF_STEREO_COUNT>
0

> <PUBCHEM_BOND_DEF_STEREO_COUNT>
0

> <PUBCHEM_BOND_UDEF_STEREO_COUNT>
0

> <PUBCHEM_ISOTOPIC_ATOM_COUNT>
0

> <PUBCHEM_COMPONENT_COUNT>
1

> <PUBCHEM_CACTVS_TAUTO_COUNT>
3

> <PUBCHEM_CONFORMER_ID>
0000237200000001

> <PUBCHEM_MMFF94_ENERGY>
56.743

> <PUBCHEM_FEATURE_SELFOVERLAP>
20.297

> <PUBCHEM_SHAPE_FINGERPRINT>
10014705 185 18410007754244000853
11401426 45 18272365382161669104
12236239 1 18411416224465624890
12616999 72 11959727188148394816
13214271 11 18113903784068739475
13675066 3 17822015306586962901
14144814 61 18409450306243964466
14252887 29 12396294838313861896
14897335 6 18343304760031639830
15196674 1 18411419552790875156
15342168 16 17677343851653613884
15375358 24 16487536957312733534
15669948 3 17988638652966773654
15775835 57 18410860988014919836
17802600 8 18412542098318087040
18186145 218 17894625967964390370
200 152 18343860039189138887
20279233 1 15626226827266074982
20645476 183 18341046402124920007
20645477 70 18338235968620669126
20871999 31 17774712169372556471
212847 35 18411136939869650112
23048698 100 18335141981723040242
23402539 116 18060411430574615388
23402655 69 18412546522318764860
23557571 272 17274825821436687679
23559900 14 17703795825549369822
2838139 119 17896585212324143733
300161 21 18341607140285851416
3268164 11 16487254327312015817
351380 180 18040996219965825013
3545911 37 18341618122232416662
4175511 318 18060698394851969773
4340502 62 17676497116595585683
474 4 18114465660190685544
4921388 177 15267052692631147101
5104073 3 18409448124105231834
537710 114 18201722851099195697
7364860 26 18058736780198686998
9981440 41 17545876492283472896

> <PUBCHEM_SHAPE_MULTIPOLES>
292.86
9.56
1.48
0.83
0.88
0.01
0.03
-2.88
-0.18
-0.1
-0.2
0.1
-0.06
-0.62

> <PUBCHEM_SHAPE_SELFOVERLAP>
629.869

> <PUBCHEM_SHAPE_VOLUME>
160.9

> <PUBCHEM_COORDINATE_TYPE>
2
5
10

$$$$
