142598
  -OEChem-11012401023D

 34 35  0     0  0  0  0  0  0999 V2000
    0.9121   -0.0003    0.0445 C   0  0  0  0  0  0  0  0  0  0  0  0
   -0.2053   -0.0984    1.0683 C   0  0  0  0  0  0  0  0  0  0  0  0
    1.8981    1.1265    0.3363 C   0  0  0  0  0  0  0  0  0  0  0  0
    1.8178   -1.2275    0.0232 C   0  0  0  0  0  0  0  0  0  0  0  0
   -1.0915    1.1518    1.1324 C   0  0  0  0  0  0  0  0  0  0  0  0
   -1.0228   -1.3917    0.9420 C   0  0  0  0  0  0  0  0  0  0  0  0
    3.1285    0.7665   -0.4905 C   0  0  0  0  0  0  0  0  0  0  0  0
    3.0706   -0.7473   -0.7022 C   0  0  0  0  0  0  0  0  0  0  0  0
   -1.6022    1.7289   -0.1848 C   0  0  0  0  0  0  0  0  0  0  0  0
   -1.8197   -1.5858   -0.3436 C   0  0  0  0  0  0  0  0  0  0  0  0
   -2.2337    0.7749   -1.1955 C   0  0  0  0  0  0  0  0  0  0  0  0
   -2.8519   -0.4975   -0.6301 C   0  0  0  0  0  0  0  0  0  0  0  0
    0.5112    0.1378   -0.9659 H   0  0  0  0  0  0  0  0  0  0  0  0
    0.2664   -0.1690    2.0606 H   0  0  0  0  0  0  0  0  0  0  0  0
    2.1660    1.1492    1.3999 H   0  0  0  0  0  0  0  0  0  0  0  0
    1.5117    2.1140    0.0680 H   0  0  0  0  0  0  0  0  0  0  0  0
    1.3697   -2.0826   -0.4920 H   0  0  0  0  0  0  0  0  0  0  0  0
    2.0812   -1.5418    1.0407 H   0  0  0  0  0  0  0  0  0  0  0  0
   -0.5334    1.9489    1.6422 H   0  0  0  0  0  0  0  0  0  0  0  0
   -1.9493    0.9492    1.7873 H   0  0  0  0  0  0  0  0  0  0  0  0
   -1.7269   -1.4344    1.7846 H   0  0  0  0  0  0  0  0  0  0  0  0
   -0.3715   -2.2629    1.0817 H   0  0  0  0  0  0  0  0  0  0  0  0
    4.0503    1.0717    0.0151 H   0  0  0  0  0  0  0  0  0  0  0  0
    3.1010    1.2777   -1.4598 H   0  0  0  0  0  0  0  0  0  0  0  0
    2.9994   -0.9685   -1.7735 H   0  0  0  0  0  0  0  0  0  0  0  0
    3.9677   -1.2470   -0.3230 H   0  0  0  0  0  0  0  0  0  0  0  0
   -0.7968    2.2794   -0.6864 H   0  0  0  0  0  0  0  0  0  0  0  0
   -2.3482    2.4942    0.0695 H   0  0  0  0  0  0  0  0  0  0  0  0
   -2.3540   -2.5409   -0.2566 H   0  0  0  0  0  0  0  0  0  0  0  0
   -1.1413   -1.6997   -1.1971 H   0  0  0  0  0  0  0  0  0  0  0  0
   -1.4964    0.5130   -1.9639 H   0  0  0  0  0  0  0  0  0  0  0  0
   -3.0142    1.3314   -1.7310 H   0  0  0  0  0  0  0  0  0  0  0  0
   -3.4613   -0.2842    0.2553 H   0  0  0  0  0  0  0  0  0  0  0  0
   -3.5398   -0.8935   -1.3885 H   0  0  0  0  0  0  0  0  0  0  0  0
  1  2  1  0  0  0  0
  1  3  1  0  0  0  0
  1  4  1  0  0  0  0
  1 13  1  0  0  0  0
  2  5  1  0  0  0  0
  2  6  1  0  0  0  0
  2 14  1  0  0  0  0
  3  7  1  0  0  0  0
  3 15  1  0  0  0  0
  3 16  1  0  0  0  0
  4  8  1  0  0  0  0
  4 17  1  0  0  0  0
  4 18  1  0  0  0  0
  5  9  1  0  0  0  0
  5 19  1  0  0  0  0
  5 20  1  0  0  0  0
  6 10  1  0  0  0  0
  6 21  1  0  0  0  0
  6 22  1  0  0  0  0
  7  8  1  0  0  0  0
  7 23  1  0  0  0  0
  7 24  1  0  0  0  0
  8 25  1  0  0  0  0
  8 26  1  0  0  0  0
  9 11  1  0  0  0  0
  9 27  1  0  0  0  0
  9 28  1  0  0  0  0
 10 12  1  0  0  0  0
 10 29  1  0  0  0  0
 10 30  1  0  0  0  0
 11 12  1  0  0  0  0
 11 31  1  0  0  0  0
 11 32  1  0  0  0  0
 12 33  1  0  0  0  0
 12 34  1  0  0  0  0
M  END
> <PUBCHEM_COMPOUND_CID>
142598

> <PUBCHEM_CONFORMER_RMSD>
0.6

> <PUBCHEM_CONFORMER_DIVERSEORDER>
1
4
3
2
6
7
9
5
11
8
10

> <PUBCHEM_MMFF94_PARTIAL_CHARGES>
0

> <PUBCHEM_EFFECTIVE_ROTOR_COUNT>
3.4

> <PUBCHEM_PHARMACOPHORE_FEATURES>
2
5 1 3 4 7 8 rings
7 2 5 6 9 10 11 12 rings

> <PUBCHEM_HEAVY_ATOM_COUNT>
12

> <PUBCHEM_ATOM_DEF_STEREO_COUNT>
0

> <PUBCHEM_ATOM_UDEF_STEREO_COUNT>
0

> <PUBCHEM_BOND_DEF_STEREO_COUNT>
0

> <PUBCHEM_BOND_UDEF_STEREO_COUNT>
0

> <PUBCHEM_ISOTOPIC_ATOM_COUNT>
0

> <PUBCHEM_COMPONENT_COUNT>
1

> <PUBCHEM_CACTVS_TAUTO_COUNT>
1

> <PUBCHEM_CONFORMER_ID>
00022D0600000001

> <PUBCHEM_MMFF94_ENERGY>
23.3095

> <PUBCHEM_FEATURE_SELFOVERLAP>
10.149

> <PUBCHEM_SHAPE_FINGERPRINT>
10702982 57 17484249560956334985
11206711 2 18411429431247246198
12138202 97 18114456846559124038
12716758 59 18409720759975806627
12897270 3 18340201989757397180
12932764 1 18260842470654472058
13024252 1 16153716452707404763
13299463 15 18413106190505539850
13764800 53 15575008238301835437
14817 1 11267983955679436441
15775835 57 17896318021732906021
15906896 17 16915684491888320081
16945 1 18411409618425959627
17844478 74 18114757022171568875
18186145 218 18336257942943905429
18534176 82 17896322582882789658
19837323 101 17675922092971902635
200 152 17775284980232979990
20201158 50 18341608265108373102
20361792 2 15841827867343571793
20645464 45 10881670313142220080
20653085 51 17894632513351903949
20828058 34 18040994055080430543
21028194 46 13984650460605742707
21501502 16 18411140212507810688
22802520 49 18410855481724421539
23402539 116 18115571772782295046
23419403 2 14131903810166569497
23559900 14 18128244607314829018
2748010 2 17331970924361769688
305870 269 16661468628564364906
353137 74 18335413565252917993
430814 3 17410788964359209441
5084963 1 18334294245009210356
8030462 33 18342748416106899020

> <PUBCHEM_SHAPE_MULTIPOLES>
246.95
4.64
1.75
1.13
2.19
0
-0.09
0.05
1.7
-0.51
-0.07
-0.39
-0.07
0.14

> <PUBCHEM_SHAPE_SELFOVERLAP>
491.225

> <PUBCHEM_SHAPE_VOLUME>
142.2

> <PUBCHEM_COORDINATE_TYPE>
2
5
10

$$$$
