252325
  -OEChem-11012400433D

 19 19  0     0  0  0  0  0  0999 V2000
    0.0542   -0.2399    0.0818 C   0  0  0  0  0  0  0  0  0  0  0  0
   -0.4033    1.0777    0.0841 C   0  0  0  0  0  0  0  0  0  0  0  0
   -0.8558   -1.2941    0.0031 C   0  0  0  0  0  0  0  0  0  0  0  0
    1.4799   -0.5159    0.1596 C   0  0  0  0  0  0  0  0  0  0  0  0
   -1.7710    1.3412    0.0073 C   0  0  0  0  0  0  0  0  0  0  0  0
   -2.2235   -1.0305   -0.0737 C   0  0  0  0  0  0  0  0  0  0  0  0
   -2.6811    0.2871   -0.0717 C   0  0  0  0  0  0  0  0  0  0  0  0
    2.4730    0.3527   -0.1383 C   0  0  0  0  0  0  0  0  0  0  0  0
    3.9275    0.0217   -0.0523 C   0  0  0  0  0  0  0  0  0  0  0  0
    0.2664    1.9289    0.1639 H   0  0  0  0  0  0  0  0  0  0  0  0
   -0.5181   -2.3277   -0.0014 H   0  0  0  0  0  0  0  0  0  0  0  0
    1.7515   -1.5206    0.4773 H   0  0  0  0  0  0  0  0  0  0  0  0
   -2.1282    2.3669    0.0135 H   0  0  0  0  0  0  0  0  0  0  0  0
   -2.9322   -1.8512   -0.1352 H   0  0  0  0  0  0  0  0  0  0  0  0
   -3.7460    0.4923   -0.1303 H   0  0  0  0  0  0  0  0  0  0  0  0
    2.2555    1.3582   -0.4855 H   0  0  0  0  0  0  0  0  0  0  0  0
    4.3950    0.1378   -1.0349 H   0  0  0  0  0  0  0  0  0  0  0  0
    4.4233    0.7011    0.6477 H   0  0  0  0  0  0  0  0  0  0  0  0
    4.0991   -1.0042    0.2885 H   0  0  0  0  0  0  0  0  0  0  0  0
  1  2  2  0  0  0  0
  1  3  1  0  0  0  0
  1  4  1  0  0  0  0
  2  5  1  0  0  0  0
  2 10  1  0  0  0  0
  3  6  2  0  0  0  0
  3 11  1  0  0  0  0
  4  8  2  0  0  0  0
  4 12  1  0  0  0  0
  5  7  2  0  0  0  0
  5 13  1  0  0  0  0
  6  7  1  0  0  0  0
  6 14  1  0  0  0  0
  7 15  1  0  0  0  0
  8  9  1  0  0  0  0
  8 16  1  0  0  0  0
  9 17  1  0  0  0  0
  9 18  1  0  0  0  0
  9 19  1  0  0  0  0
M  END
> <PUBCHEM_COMPOUND_CID>
252325

> <PUBCHEM_CONFORMER_RMSD>
0.4

> <PUBCHEM_CONFORMER_DIVERSEORDER>
1

> <PUBCHEM_MMFF94_PARTIAL_CHARGES>
16
1 0.03
10 0.15
11 0.15
12 0.15
13 0.15
14 0.15
15 0.15
16 0.15
2 -0.15
3 -0.15
4 -0.18
5 -0.15
6 -0.15
7 -0.15
8 -0.29
9 0.14

> <PUBCHEM_EFFECTIVE_ROTOR_COUNT>
1

> <PUBCHEM_PHARMACOPHORE_FEATURES>
2
1 9 hydrophobe
6 1 2 3 5 6 7 rings

> <PUBCHEM_HEAVY_ATOM_COUNT>
9

> <PUBCHEM_ATOM_DEF_STEREO_COUNT>
0

> <PUBCHEM_ATOM_UDEF_STEREO_COUNT>
0

> <PUBCHEM_BOND_DEF_STEREO_COUNT>
1

> <PUBCHEM_BOND_UDEF_STEREO_COUNT>
0

> <PUBCHEM_ISOTOPIC_ATOM_COUNT>
0

> <PUBCHEM_COMPONENT_COUNT>
1

> <PUBCHEM_CACTVS_TAUTO_COUNT>
1

> <PUBCHEM_CONFORMER_ID>
0003D9A500000001

> <PUBCHEM_MMFF94_ENERGY>
20.5514

> <PUBCHEM_FEATURE_SELFOVERLAP>
10.148

> <PUBCHEM_SHAPE_FINGERPRINT>
10857977 72 18341039821844190713
11062470 55 14923660874258999734
12897270 3 18412543219282997452
12932764 1 17632287991293301302
13024252 1 16226048894576968969
14325111 11 18410293584333282880
14390081 3 18413105052576719744
20201158 50 18131634473986388974
20645464 45 18060706078121116086
20871998 184 18201443639660148207
21040471 1 18267581299985138153
23235685 24 18340763754479342189
23402655 69 18123732194541434445
23552423 10 18116431629556230124
2748010 2 18050840323704783821
29004967 10 16271930414991837714
369184 2 15719109162653936737
6333449 129 18342736321072857077

> <PUBCHEM_SHAPE_MULTIPOLES>
185.22
5.05
1.31
0.62
4.72
0.04
0
0.2
-0.24
-0.77
0.01
0.01
0
-0.05

> <PUBCHEM_SHAPE_SELFOVERLAP>
376.609

> <PUBCHEM_SHAPE_VOLUME>
103.7

> <PUBCHEM_COORDINATE_TYPE>
2
5
10

$$$$
