10390
  -OEChem-11012400593D

 24 25  0     0  0  0  0  0  0999 V2000
    2.0317   -0.0001    0.0000 C   0  0  0  0  0  0  0  0  0  0  0  0
   -2.0305   -0.0002   -0.0001 C   0  0  0  0  0  0  0  0  0  0  0  0
    2.7279   -0.8909    0.8158 C   0  0  0  0  0  0  0  0  0  0  0  0
   -2.7279    0.8910    0.8156 C   0  0  0  0  0  0  0  0  0  0  0  0
    2.7276    0.8909   -0.8160 C   0  0  0  0  0  0  0  0  0  0  0  0
   -2.7281   -0.8912   -0.8158 C   0  0  0  0  0  0  0  0  0  0  0  0
    4.1227   -0.8906    0.8160 C   0  0  0  0  0  0  0  0  0  0  0  0
   -4.1227    0.8912    0.8158 C   0  0  0  0  0  0  0  0  0  0  0  0
    4.1225    0.8910   -0.8158 C   0  0  0  0  0  0  0  0  0  0  0  0
   -4.1230   -0.8908   -0.8156 C   0  0  0  0  0  0  0  0  0  0  0  0
    4.8200    0.0002    0.0001 C   0  0  0  0  0  0  0  0  0  0  0  0
   -4.8202    0.0003    0.0002 C   0  0  0  0  0  0  0  0  0  0  0  0
    0.6014   -0.0003   -0.0001 C   0  0  0  0  0  0  0  0  0  0  0  0
   -0.6015   -0.0004   -0.0001 C   0  0  0  0  0  0  0  0  0  0  0  0
    2.1985   -1.5914    1.4573 H   0  0  0  0  0  0  0  0  0  0  0  0
   -2.1984    1.5916    1.4570 H   0  0  0  0  0  0  0  0  0  0  0  0
    2.1981    1.5912   -1.4574 H   0  0  0  0  0  0  0  0  0  0  0  0
   -2.1990   -1.5919   -1.4572 H   0  0  0  0  0  0  0  0  0  0  0  0
    4.6660   -1.5841    1.4512 H   0  0  0  0  0  0  0  0  0  0  0  0
   -4.6657    1.5850    1.4510 H   0  0  0  0  0  0  0  0  0  0  0  0
    4.6657    1.5846   -1.4510 H   0  0  0  0  0  0  0  0  0  0  0  0
   -4.6664   -1.5844   -1.4506 H   0  0  0  0  0  0  0  0  0  0  0  0
    5.9061    0.0003    0.0002 H   0  0  0  0  0  0  0  0  0  0  0  0
   -5.9063    0.0005    0.0002 H   0  0  0  0  0  0  0  0  0  0  0  0
  1  3  2  0  0  0  0
  1  5  1  0  0  0  0
  1 13  1  0  0  0  0
  2  4  2  0  0  0  0
  2  6  1  0  0  0  0
  2 14  1  0  0  0  0
  3  7  1  0  0  0  0
  3 15  1  0  0  0  0
  4  8  1  0  0  0  0
  4 16  1  0  0  0  0
  5  9  2  0  0  0  0
  5 17  1  0  0  0  0
  6 10  2  0  0  0  0
  6 18  1  0  0  0  0
  7 11  2  0  0  0  0
  7 19  1  0  0  0  0
  8 12  2  0  0  0  0
  8 20  1  0  0  0  0
  9 11  1  0  0  0  0
  9 21  1  0  0  0  0
 10 12  1  0  0  0  0
 10 22  1  0  0  0  0
 11 23  1  0  0  0  0
 12 24  1  0  0  0  0
 13 14  3  0  0  0  0
M  END
> <PUBCHEM_COMPOUND_CID>
10390

> <PUBCHEM_CONFORMER_RMSD>
0.4

> <PUBCHEM_CONFORMER_DIVERSEORDER>
1

> <PUBCHEM_MMFF94_PARTIAL_CHARGES>
24
1 0.07
10 -0.15
11 -0.15
12 -0.15
13 -0.07
14 -0.07
15 0.15
16 0.15
17 0.15
18 0.15
19 0.15
2 0.07
20 0.15
21 0.15
22 0.15
23 0.15
24 0.15
3 -0.15
4 -0.15
5 -0.15
6 -0.15
7 -0.15
8 -0.15
9 -0.15

> <PUBCHEM_EFFECTIVE_ROTOR_COUNT>
0

> <PUBCHEM_PHARMACOPHORE_FEATURES>
2
6 1 3 5 7 9 11 rings
6 2 4 6 8 10 12 rings

> <PUBCHEM_HEAVY_ATOM_COUNT>
14

> <PUBCHEM_ATOM_DEF_STEREO_COUNT>
0

> <PUBCHEM_ATOM_UDEF_STEREO_COUNT>
0

> <PUBCHEM_BOND_DEF_STEREO_COUNT>
0

> <PUBCHEM_BOND_UDEF_STEREO_COUNT>
0

> <PUBCHEM_ISOTOPIC_ATOM_COUNT>
0

> <PUBCHEM_COMPONENT_COUNT>
1

> <PUBCHEM_CACTVS_TAUTO_COUNT>
1

> <PUBCHEM_CONFORMER_ID>
0000289600000001

> <PUBCHEM_MMFF94_ENERGY>
28.686

> <PUBCHEM_FEATURE_SELFOVERLAP>
10.149

> <PUBCHEM_SHAPE_FINGERPRINT>
10680689 15 15985103020409927005
10912923 1 18410575097547981035
11287383 113 15791737424865060212
11471102 20 17676206879684870548
12107183 9 17689997830029089001
12236239 1 18410573985151451145
13167823 11 18410854364911865091
13760787 5 18186521007522796428
14123238 8 18410855464423129096
14386348 63 15769779065077136670
15375358 24 15719391737136948688
17834072 33 18335701680017024631
18186145 218 17167864162213432032
19050596 39 18411418410086884026
1986462 14 17346883347023897557
200 152 18113894966273969053
20645477 70 17313376795409374394
20828058 21 17561083609429915780
21065201 7 17346600755092069366
22646028 1 18410853261104945223
2297311 6 17131844182868061985
23048698 100 18187085048519288688
23402539 116 18059849559001026109
23402655 69 18040152924822750782
23557571 272 16916800551745980025
23559900 14 17060350578271013028
26918003 58 17095243622390702888
300161 21 18411130342356544308
3268164 11 17489298664601756661
42 15 18131067104495938586
474 4 18044376269339828316
522135 26 17894911824160891498
5281201 14 16588022381795808254
542803 24 18411421712911524684
573450 72 18272927198470662147

> <PUBCHEM_SHAPE_MULTIPOLES>
288.11
11.56
1.07
1
0
0
0
0
0
0
0
0
0
-1.42

> <PUBCHEM_SHAPE_SELFOVERLAP>
619.756

> <PUBCHEM_SHAPE_VOLUME>
147.1

> <PUBCHEM_COORDINATE_TYPE>
2
5
10

$$$$
