912043
  -OEChem-11012400513D

 27 28  0     0  0  0  0  0  0999 V2000
    5.0608    2.2013    0.0141 Cl  0  0  0  0  0  0  0  0  0  0  0  0
   -6.3008    0.3322    0.5659 Cl  0  0  0  0  0  0  0  0  0  0  0  0
    0.4754   -0.3995   -2.7053 N   0  0  0  0  0  0  0  0  0  0  0  0
   -1.8494   -0.0230   -0.0704 C   0  0  0  0  0  0  0  0  0  0  0  0
    1.9552   -0.2402    0.5709 C   0  0  0  0  0  0  0  0  0  0  0  0
   -0.4139   -0.1371   -0.2762 C   0  0  0  0  0  0  0  0  0  0  0  0
    0.4988   -0.1213    0.7318 C   0  0  0  0  0  0  0  0  0  0  0  0
   -2.6190   -1.1690    0.1283 C   0  0  0  0  0  0  0  0  0  0  0  0
   -2.4561    1.2331   -0.0720 C   0  0  0  0  0  0  0  0  0  0  0  0
    2.7175    0.9045    0.3895 C   0  0  0  0  0  0  0  0  0  0  0  0
    2.5443   -1.4958    0.6046 C   0  0  0  0  0  0  0  0  0  0  0  0
   -3.9955   -1.0592    0.3252 C   0  0  0  0  0  0  0  0  0  0  0  0
   -3.8326    1.3431    0.1252 C   0  0  0  0  0  0  0  0  0  0  0  0
    4.0996    0.7912    0.2383 C   0  0  0  0  0  0  0  0  0  0  0  0
    3.9262   -1.6090    0.4534 C   0  0  0  0  0  0  0  0  0  0  0  0
   -4.6024    0.1969    0.3238 C   0  0  0  0  0  0  0  0  0  0  0  0
    4.7038   -0.4657    0.2704 C   0  0  0  0  0  0  0  0  0  0  0  0
    0.0879   -0.2826   -1.6175 C   0  0  0  0  0  0  0  0  0  0  0  0
    0.1644   -0.0162    1.7621 H   0  0  0  0  0  0  0  0  0  0  0  0
   -2.1614   -2.1555    0.1324 H   0  0  0  0  0  0  0  0  0  0  0  0
   -1.8701    2.1364   -0.2254 H   0  0  0  0  0  0  0  0  0  0  0  0
    2.2449    1.8840    0.3658 H   0  0  0  0  0  0  0  0  0  0  0  0
    1.9498   -2.3943    0.7473 H   0  0  0  0  0  0  0  0  0  0  0  0
   -4.5828   -1.9609    0.4786 H   0  0  0  0  0  0  0  0  0  0  0  0
   -4.2918    2.3284    0.1214 H   0  0  0  0  0  0  0  0  0  0  0  0
    4.3968   -2.5876    0.4785 H   0  0  0  0  0  0  0  0  0  0  0  0
    5.7796   -0.5693    0.1543 H   0  0  0  0  0  0  0  0  0  0  0  0
  1 14  1  0  0  0  0
  2 16  1  0  0  0  0
  3 18  3  0  0  0  0
  4  6  1  0  0  0  0
  4  8  2  0  0  0  0
  4  9  1  0  0  0  0
  5  7  1  0  0  0  0
  5 10  2  0  0  0  0
  5 11  1  0  0  0  0
  6  7  2  0  0  0  0
  6 18  1  0  0  0  0
  7 19  1  0  0  0  0
  8 12  1  0  0  0  0
  8 20  1  0  0  0  0
  9 13  2  0  0  0  0
  9 21  1  0  0  0  0
 10 14  1  0  0  0  0
 10 22  1  0  0  0  0
 11 15  2  0  0  0  0
 11 23  1  0  0  0  0
 12 16  2  0  0  0  0
 12 24  1  0  0  0  0
 13 16  1  0  0  0  0
 13 25  1  0  0  0  0
 14 17  2  0  0  0  0
 15 17  1  0  0  0  0
 15 26  1  0  0  0  0
 17 27  1  0  0  0  0
M  END
> <PUBCHEM_COMPOUND_CID>
912043

> <PUBCHEM_CONFORMER_RMSD>
0.6

> <PUBCHEM_CONFORMER_DIVERSEORDER>
2
11
9
1
12
6
10
8
5
3
7
4

> <PUBCHEM_MMFF94_PARTIAL_CHARGES>
27
1 -0.18
10 -0.15
11 -0.15
12 -0.15
13 -0.15
14 0.18
15 -0.15
16 0.18
17 -0.15
18 0.49
19 0.15
2 -0.18
20 0.15
21 0.15
22 0.15
23 0.15
24 0.15
25 0.15
26 0.15
27 0.15
3 -0.56
4 0.03
5 0.03
6 0.04
7 -0.18
8 -0.15
9 -0.15

> <PUBCHEM_EFFECTIVE_ROTOR_COUNT>
2

> <PUBCHEM_PHARMACOPHORE_FEATURES>
3
1 3 acceptor
6 4 8 9 12 13 16 rings
6 5 10 11 14 15 17 rings

> <PUBCHEM_HEAVY_ATOM_COUNT>
18

> <PUBCHEM_ATOM_DEF_STEREO_COUNT>
0

> <PUBCHEM_ATOM_UDEF_STEREO_COUNT>
0

> <PUBCHEM_BOND_DEF_STEREO_COUNT>
1

> <PUBCHEM_BOND_UDEF_STEREO_COUNT>
0

> <PUBCHEM_ISOTOPIC_ATOM_COUNT>
0

> <PUBCHEM_COMPONENT_COUNT>
1

> <PUBCHEM_CACTVS_TAUTO_COUNT>
1

> <PUBCHEM_CONFORMER_ID>
000DEAAB00000002

> <PUBCHEM_MMFF94_ENERGY>
51.1235

> <PUBCHEM_FEATURE_SELFOVERLAP>
15.223

> <PUBCHEM_SHAPE_FINGERPRINT>
12107183 9 17689432685410715545
12236239 1 17989202660035556850
12507560 40 18187642475276746613
12592029 89 17561366145179659518
12670546 56 18335978705565865617
12895836 83 17130987741025942428
13167823 11 18409726248833617987
13533116 47 18260547775368011243
13675066 3 17749113270850464547
13760787 19 18272367607060470246
14252887 29 16732983098444685178
14289901 80 18409444808374589586
14341114 176 18408890633060556769
14341114 328 18411701001776288264
15048467 5 18334575771694528632
15239154 128 18408602552461152440
15342168 16 17969506094788391812
16752209 62 16200157556216902634
17834072 33 18410008844812285690
17844677 252 18336834095431797680
1813 80 16298389037075073198
18222031 100 15936413325105619374
20645477 70 18340768139841814338
21033648 29 17895739747790366325
21267235 1 18338521846218036954
22854114 59 17967247607235534832
23402539 116 18201147794371237229
23557571 272 18340493266266683005
23559900 14 18408319995041673330
300161 21 18333724736951854147
34797466 226 18271535259604605796
3545911 37 18408041814294445936
4072396 5 16916782929447464139
42 15 18261112950435939563
4214541 1 18336826399040047537
449060 50 18259982686578502000
465052 167 18060421321868811423
474 4 17895759620619680588
5104073 3 18334574633348620681
542803 24 17704073988768626785
621550 34 17676758821653001526
633830 44 18272650112855628182
77779 3 18409446972953658618
81539 233 17489591125645719174
8272917 22 18272374127016192846
960060 61 12319463242430170008
9971528 1 17385445405663525694

> <PUBCHEM_SHAPE_MULTIPOLES>
369.19
12.44
1.62
1.2
5.68
0.3
1.05
2.87
-3.25
-1.61
-0.19
-0.17
-0.17
-0.19

> <PUBCHEM_SHAPE_SELFOVERLAP>
777.456

> <PUBCHEM_SHAPE_VOLUME>
207.3

> <PUBCHEM_COORDINATE_TYPE>
2
5
10

$$$$
