143817
  -OEChem-11012401263D

 38 39  0     1  0  0  0  0  0999 V2000
   -1.2839   -2.2556   -0.2035 O   0  0  0  0  0  0  0  0  0  0  0  0
    0.3921   -0.8321   -1.9339 O   0  0  0  0  0  0  0  0  0  0  0  0
   -0.2373   -1.4890    2.8772 N   0  0  0  0  0  0  0  0  0  0  0  0
    2.2781   -3.0301   -0.2567 N   0  0  0  0  0  0  0  0  0  0  0  0
   -0.6313   -1.0740    0.2906 C   0  0  1  0  0  0  0  0  0  0  0  0
    0.7378   -0.8708   -0.5237 C   0  0  2  0  0  0  0  0  0  0  0  0
   -1.5817    0.1180    0.0839 C   0  0  0  0  0  0  0  0  0  0  0  0
    1.4787    0.3674   -0.1463 C   0  0  0  0  0  0  0  0  0  0  0  0
   -1.5809    1.1204    1.0209 C   0  0  0  0  0  0  0  0  0  0  0  0
    2.4879    0.3106    0.8150 C   0  0  0  0  0  0  0  0  0  0  0  0
   -2.3856    0.1240   -1.0278 C   0  0  0  0  0  0  0  0  0  0  0  0
    1.1629    1.5821   -0.7551 C   0  0  0  0  0  0  0  0  0  0  0  0
   -0.4112   -1.3041    1.7445 C   0  0  0  0  0  0  0  0  0  0  0  0
    1.5959   -2.0990   -0.3789 C   0  0  0  0  0  0  0  0  0  0  0  0
   -2.4423    2.2014    0.8336 C   0  0  0  0  0  0  0  0  0  0  0  0
    3.1811    1.4685    1.1677 C   0  0  0  0  0  0  0  0  0  0  0  0
   -3.2470    1.2052   -1.2150 C   0  0  0  0  0  0  0  0  0  0  0  0
    1.8562    2.7400   -0.4023 C   0  0  0  0  0  0  0  0  0  0  0  0
   -2.5176   -2.4657    0.4576 C   0  0  0  0  0  0  0  0  0  0  0  0
    1.5578   -0.7441   -2.7224 C   0  0  0  0  0  0  0  0  0  0  0  0
   -3.2752    2.2438   -0.2844 C   0  0  0  0  0  0  0  0  0  0  0  0
    2.8654    2.6831    0.5592 C   0  0  0  0  0  0  0  0  0  0  0  0
   -0.9311    1.1386    1.8887 H   0  0  0  0  0  0  0  0  0  0  0  0
    2.7504   -0.6084    1.3304 H   0  0  0  0  0  0  0  0  0  0  0  0
   -2.3698   -0.6619   -1.7758 H   0  0  0  0  0  0  0  0  0  0  0  0
    0.3833    1.6620   -1.5075 H   0  0  0  0  0  0  0  0  0  0  0  0
   -2.4597    3.0137    1.5543 H   0  0  0  0  0  0  0  0  0  0  0  0
    3.9632    1.4258    1.9202 H   0  0  0  0  0  0  0  0  0  0  0  0
   -3.8923    1.2408   -2.0879 H   0  0  0  0  0  0  0  0  0  0  0  0
    1.6100    3.6860   -0.8755 H   0  0  0  0  0  0  0  0  0  0  0  0
   -3.0351   -1.6010    0.8817 H   0  0  0  0  0  0  0  0  0  0  0  0
   -2.3642   -3.1941    1.2621 H   0  0  0  0  0  0  0  0  0  0  0  0
   -3.1981   -2.9388   -0.2582 H   0  0  0  0  0  0  0  0  0  0  0  0
    1.9527   -1.7452   -2.9281 H   0  0  0  0  0  0  0  0  0  0  0  0
    2.3683   -0.1102   -2.3542 H   0  0  0  0  0  0  0  0  0  0  0  0
    1.2581   -0.3364   -3.6941 H   0  0  0  0  0  0  0  0  0  0  0  0
   -3.9438    3.0869   -0.4317 H   0  0  0  0  0  0  0  0  0  0  0  0
    3.4041    3.5849    0.8348 H   0  0  0  0  0  0  0  0  0  0  0  0
  1  5  1  0  0  0  0
  1 19  1  0  0  0  0
  2  6  1  0  0  0  0
  2 20  1  0  0  0  0
  3 13  3  0  0  0  0
  4 14  3  0  0  0  0
  5  6  1  0  0  0  0
  5  7  1  0  0  0  0
  5 13  1  0  0  0  0
  6  8  1  0  0  0  0
  6 14  1  0  0  0  0
  7  9  2  0  0  0  0
  7 11  1  0  0  0  0
  8 10  2  0  0  0  0
  8 12  1  0  0  0  0
  9 15  1  0  0  0  0
  9 23  1  0  0  0  0
 10 16  1  0  0  0  0
 10 24  1  0  0  0  0
 11 17  2  0  0  0  0
 11 25  1  0  0  0  0
 12 18  2  0  0  0  0
 12 26  1  0  0  0  0
 15 21  2  0  0  0  0
 15 27  1  0  0  0  0
 16 22  2  0  0  0  0
 16 28  1  0  0  0  0
 17 21  1  0  0  0  0
 17 29  1  0  0  0  0
 18 22  1  0  0  0  0
 18 30  1  0  0  0  0
 19 31  1  0  0  0  0
 19 32  1  0  0  0  0
 19 33  1  0  0  0  0
 20 34  1  0  0  0  0
 20 35  1  0  0  0  0
 20 36  1  0  0  0  0
 21 37  1  0  0  0  0
 22 38  1  0  0  0  0
M  END
> <PUBCHEM_COMPOUND_CID>
143817

> <PUBCHEM_CONFORMER_RMSD>
0.8

> <PUBCHEM_CONFORMER_DIVERSEORDER>
1
7
5
9
2
6
4
8
3

> <PUBCHEM_MMFF94_PARTIAL_CHARGES>
32
1 -0.56
10 -0.15
11 -0.15
12 -0.15
13 0.36
14 0.36
15 -0.15
16 -0.15
17 -0.15
18 -0.15
19 0.28
2 -0.56
20 0.28
21 -0.15
22 -0.15
23 0.15
24 0.15
25 0.15
26 0.15
27 0.15
28 0.15
29 0.15
3 -0.56
30 0.15
37 0.15
38 0.15
4 -0.56
5 0.62
6 0.62
7 -0.14
8 -0.14
9 -0.15

> <PUBCHEM_EFFECTIVE_ROTOR_COUNT>
5

> <PUBCHEM_PHARMACOPHORE_FEATURES>
6
1 1 acceptor
1 2 acceptor
1 3 acceptor
1 4 acceptor
6 7 9 11 15 17 21 rings
6 8 10 12 16 18 22 rings

> <PUBCHEM_HEAVY_ATOM_COUNT>
22

> <PUBCHEM_ATOM_DEF_STEREO_COUNT>
0

> <PUBCHEM_ATOM_UDEF_STEREO_COUNT>
2

> <PUBCHEM_BOND_DEF_STEREO_COUNT>
0

> <PUBCHEM_BOND_UDEF_STEREO_COUNT>
0

> <PUBCHEM_ISOTOPIC_ATOM_COUNT>
0

> <PUBCHEM_COMPONENT_COUNT>
1

> <PUBCHEM_CACTVS_TAUTO_COUNT>
1

> <PUBCHEM_CONFORMER_ID>
000231C900000001

> <PUBCHEM_MMFF94_ENERGY>
93.7926

> <PUBCHEM_FEATURE_SELFOVERLAP>
30.452

> <PUBCHEM_SHAPE_FINGERPRINT>
10863032 1 18262782081885043816
10948715 1 18338498820439524385
12633257 1 17896859016288153912
12654903 92 17198269867890037621
13134695 92 17977663108886214294
13140716 1 18340487863081812752
13149001 5 18124904298629890959
13294875 104 17750788835833628179
13464514 151 18199197204429297172
14181834 199 17559951022427837518
14223421 5 18409172146718307739
14955137 171 17762352314182798259
16945 1 18411699885068947228
17980427 23 17200490954218255928
18981168 100 18197523837604284285
20510252 161 17981888854199975512
20600515 1 17906754517822441102
20691752 17 18042978579243348733
21296965 12 18127696143389135812
21947302 44 18271805683567238157
23419403 2 15810671900180957675
23558518 356 18187081810193036443
2748010 2 18268728232025056605
3060560 45 17907569238763677541
3286 77 18117855304315360477
350125 39 18338814393156251762
4340502 62 18334566942101643829
474 4 18339917122020896929
5845 1 10822392476219587702
68419 9 16155702256326971756
70251023 43 18053133806071582439
7832392 63 17479456742558257257
81228 2 17897469374059101955
9981440 41 18269257127483754664

> <PUBCHEM_SHAPE_MULTIPOLES>
431.05
4.76
3.44
1.92
0.73
0.21
-0.06
-2.88
-0.01
-0.44
0.3
-0.29
0.75
0.87

> <PUBCHEM_SHAPE_SELFOVERLAP>
930.031

> <PUBCHEM_SHAPE_VOLUME>
232.3

> <PUBCHEM_COORDINATE_TYPE>
2
5
10

$$$$
