404294
  -OEChem-11012400483D

 33 35  0     0  0  0  0  0  0999 V2000
    0.2302    2.0026    0.9949 O   0  0  0  0  0  0  0  0  0  0  0  0
    2.2591   -2.8117   -0.7467 O   0  5  0  0  0  0  0  0  0  0  0  0
   -1.6827   -0.3829    2.3482 O   0  0  0  0  0  0  0  0  0  0  0  0
    0.6923    0.8631    0.6375 N   0  3  0  0  0  0  0  0  0  0  0  0
    1.7547   -1.5744   -0.2310 N   0  0  0  0  0  0  0  0  0  0  0  0
   -0.1346   -0.3497    0.6718 C   0  0  0  0  0  0  0  0  0  0  0  0
    2.0780    0.8084    0.1845 C   0  0  0  0  0  0  0  0  0  0  0  0
    2.5895   -0.4216   -0.2533 C   0  0  0  0  0  0  0  0  0  0  0  0
    0.4325   -1.5074    0.2554 C   0  0  0  0  0  0  0  0  0  0  0  0
   -1.5257   -0.2204    1.1363 C   0  0  0  0  0  0  0  0  0  0  0  0
    2.8615    1.9716    0.1866 C   0  0  0  0  0  0  0  0  0  0  0  0
    3.9272   -0.4447   -0.6951 C   0  0  0  0  0  0  0  0  0  0  0  0
   -0.3385   -2.8210    0.3135 C   0  0  0  0  0  0  0  0  0  0  0  0
   -2.6296    0.0866    0.2221 C   0  0  0  0  0  0  0  0  0  0  0  0
    4.1803    1.9180   -0.2548 C   0  0  0  0  0  0  0  0  0  0  0  0
    4.7126    0.7120   -0.6956 C   0  0  0  0  0  0  0  0  0  0  0  0
   -2.3715    0.2551   -1.1324 C   0  0  0  0  0  0  0  0  0  0  0  0
   -3.9207    0.2049    0.7209 C   0  0  0  0  0  0  0  0  0  0  0  0
   -3.4219    0.5471   -2.0025 C   0  0  0  0  0  0  0  0  0  0  0  0
   -4.9711    0.4968   -0.1493 C   0  0  0  0  0  0  0  0  0  0  0  0
   -4.7216    0.6678   -1.5110 C   0  0  0  0  0  0  0  0  0  0  0  0
    2.4666    2.9251    0.5253 H   0  0  0  0  0  0  0  0  0  0  0  0
    4.3918   -1.3629   -1.0463 H   0  0  0  0  0  0  0  0  0  0  0  0
   -1.3329   -2.7171    0.7571 H   0  0  0  0  0  0  0  0  0  0  0  0
    0.1966   -3.5555    0.9255 H   0  0  0  0  0  0  0  0  0  0  0  0
   -0.4832   -3.2266   -0.6938 H   0  0  0  0  0  0  0  0  0  0  0  0
    4.7913    2.8157   -0.2553 H   0  0  0  0  0  0  0  0  0  0  0  0
    5.7417    0.6666   -1.0404 H   0  0  0  0  0  0  0  0  0  0  0  0
   -1.3748    0.1712   -1.5542 H   0  0  0  0  0  0  0  0  0  0  0  0
   -4.1362    0.0753    1.7779 H   0  0  0  0  0  0  0  0  0  0  0  0
   -3.2281    0.6809   -3.0628 H   0  0  0  0  0  0  0  0  0  0  0  0
   -5.9833    0.5908    0.2331 H   0  0  0  0  0  0  0  0  0  0  0  0
   -5.5394    0.8952   -2.1886 H   0  0  0  0  0  0  0  0  0  0  0  0
  1  4  2  0  0  0  0
  2  5  1  0  0  0  0
  3 10  2  0  0  0  0
  4  6  1  0  0  0  0
  4  7  1  0  0  0  0
  5  8  1  0  0  0  0
  5  9  1  0  0  0  0
  6  9  2  0  0  0  0
  6 10  1  0  0  0  0
  7  8  1  0  0  0  0
  7 11  2  0  0  0  0
  8 12  2  0  0  0  0
  9 13  1  0  0  0  0
 10 14  1  0  0  0  0
 11 15  1  0  0  0  0
 11 22  1  0  0  0  0
 12 16  1  0  0  0  0
 12 23  1  0  0  0  0
 13 24  1  0  0  0  0
 13 25  1  0  0  0  0
 13 26  1  0  0  0  0
 14 17  2  0  0  0  0
 14 18  1  0  0  0  0
 15 16  2  0  0  0  0
 15 27  1  0  0  0  0
 16 28  1  0  0  0  0
 17 19  1  0  0  0  0
 17 29  1  0  0  0  0
 18 20  2  0  0  0  0
 18 30  1  0  0  0  0
 19 21  2  0  0  0  0
 19 31  1  0  0  0  0
 20 21  1  0  0  0  0
 20 32  1  0  0  0  0
 21 33  1  0  0  0  0
M  CHG  2   2  -1   4   1
M  END
> <PUBCHEM_COMPOUND_CID>
404294

> <PUBCHEM_CONFORMER_RMSD>
0.6

> <PUBCHEM_CONFORMER_DIVERSEORDER>
1
2

> <PUBCHEM_MMFF94_PARTIAL_CHARGES>
30
1 -0.63
10 0.47
11 -0.15
12 -0.15
13 0.14
14 0.09
15 -0.15
16 -0.15
17 -0.15
18 -0.15
19 -0.15
2 -0.86
20 -0.15
21 -0.15
22 0.15
23 0.15
27 0.15
28 0.15
29 0.15
3 -0.57
30 0.15
31 0.15
32 0.15
33 0.15
4 0.7
5 -0.08
6 -0.02
7 -0.03
8 -0.03
9 -0.17

> <PUBCHEM_EFFECTIVE_ROTOR_COUNT>
2

> <PUBCHEM_PHARMACOPHORE_FEATURES>
5
1 2 anion
1 3 acceptor
6 14 17 18 19 20 21 rings
6 4 5 6 7 8 9 rings
6 7 8 11 12 15 16 rings

> <PUBCHEM_HEAVY_ATOM_COUNT>
21

> <PUBCHEM_ATOM_DEF_STEREO_COUNT>
0

> <PUBCHEM_ATOM_UDEF_STEREO_COUNT>
0

> <PUBCHEM_BOND_DEF_STEREO_COUNT>
0

> <PUBCHEM_BOND_UDEF_STEREO_COUNT>
0

> <PUBCHEM_ISOTOPIC_ATOM_COUNT>
0

> <PUBCHEM_COMPONENT_COUNT>
1

> <PUBCHEM_CACTVS_TAUTO_COUNT>
4

> <PUBCHEM_CONFORMER_ID>
00062B4600000001

> <PUBCHEM_MMFF94_ENERGY>
81.7168

> <PUBCHEM_FEATURE_SELFOVERLAP>
25.394

> <PUBCHEM_SHAPE_FINGERPRINT>
10646746 165 16660642925496818389
10693767 8 17917151581353034094
11471102 20 18412830183481236840
11543360 7 15338846399636266448
11725454 13 17894623772977522619
11796584 16 14117806799144915261
12236239 1 17418098698138577889
12403259 415 18263652912421914984
12670546 177 18412537734789375343
12730499 353 18261114054501029987
12788726 201 16845302579573061163
12969540 114 18335414694592005181
13103583 49 8502100724565289205
13140716 1 18270127945504735546
13583140 156 17531251716096391824
13911987 19 18339092591415989220
13965767 371 14131846317470543637
14739800 52 15214167312974804846
15209294 21 14273452604505594476
16945 1 18269854072498812714
17349148 13 18272927190213134562
1813 80 17556585339910545854
18186145 218 18411134753314389572
18219364 16 18265911304931070762
192875 21 18273211968014167736
19862831 5 17632294588183609477
200 152 17846502521401465352
20645477 70 18410862036155933506
21033648 29 18187079602643669192
221357 26 18340197514982451317
231179 274 17967812760475504480
23227448 37 18116437135651485094
23402539 116 17988649588259327728
23402655 69 18272370866956413765
23493267 7 17530685433111276528
23557571 272 17458641029060111763
23559900 14 17095527236567309386
23598291 2 17630619911736618979
238 59 18338217315455838023
25 1 18411417323497146218
2748010 2 18054805133018315482
3060560 45 18413388739804349622
341906 21 16081085957213560013
3472631 163 16298105397693308405
350125 39 17906463473077897624
4072396 5 18336533959607708506
465052 167 9583515447167509836
474 4 18342740753658688448
633830 44 18272665518824060781
7471813 234 18054216640572943114
77492 1 17418096477603627651

> <PUBCHEM_SHAPE_MULTIPOLES>
404.6
9.34
2.21
1.43
2.24
1.33
0.06
-4.36
-3.38
-1.92
-0.1
1.42
-0.12
0.96

> <PUBCHEM_SHAPE_SELFOVERLAP>
884.359

> <PUBCHEM_SHAPE_VOLUME>
217.6

> <PUBCHEM_COORDINATE_TYPE>
2
5
10

$$$$
