15046924
  -OEChem-11012401173D

 63 65  0     0  0  0  0  0  0999 V2000
   -1.2743    0.0807    0.0075 Si  0  0  0  0  0  0  0  0  0  0  0  0
    3.7313    0.1811    0.2678 O   0  0  0  0  0  0  0  0  0  0  0  0
    3.7168    1.2249   -0.7468 O   0  0  0  0  0  0  0  0  0  0  0  0
    4.7175   -0.7529   -0.1767 C   0  0  0  0  0  0  0  0  0  0  0  0
   -2.4039    0.8090    1.3281 C   0  0  0  0  0  0  0  0  0  0  0  0
   -2.3177    0.2038   -1.5569 C   0  0  0  0  0  0  0  0  0  0  0  0
   -1.0309   -1.7432    0.3969 C   0  0  0  0  0  0  0  0  0  0  0  0
    6.0700   -0.0314   -0.3383 C   0  0  0  0  0  0  0  0  0  0  0  0
    2.7376    2.1559   -0.3089 C   0  0  0  0  0  0  0  0  0  0  0  0
    0.3683    0.9305   -0.1223 C   0  0  0  0  0  0  0  0  0  0  0  0
    4.7786   -1.8797    0.8556 C   0  0  0  0  0  0  0  0  0  0  0  0
    4.2602   -1.3138   -1.5271 C   0  0  0  0  0  0  0  0  0  0  0  0
   -1.8428    1.3904    2.4526 C   0  0  0  0  0  0  0  0  0  0  0  0
   -2.6844    1.4528   -2.0288 C   0  0  0  0  0  0  0  0  0  0  0  0
    0.1117   -2.3878   -0.0518 C   0  0  0  0  0  0  0  0  0  0  0  0
   -3.7762    0.7505    1.1527 C   0  0  0  0  0  0  0  0  0  0  0  0
   -2.7007   -0.9565   -2.2081 C   0  0  0  0  0  0  0  0  0  0  0  0
   -1.9972   -2.4181    1.1269 C   0  0  0  0  0  0  0  0  0  0  0  0
    1.4318    1.4814   -0.2061 C   0  0  0  0  0  0  0  0  0  0  0  0
    6.5953    0.6205    0.9356 C   0  0  0  0  0  0  0  0  0  0  0  0
    3.1664    2.7092    1.0497 C   0  0  0  0  0  0  0  0  0  0  0  0
    2.6754    3.2746   -1.3473 C   0  0  0  0  0  0  0  0  0  0  0  0
   -2.6787    1.9289    3.4309 C   0  0  0  0  0  0  0  0  0  0  0  0
   -3.4573    1.5443   -3.1864 C   0  0  0  0  0  0  0  0  0  0  0  0
    0.2921   -3.7406    0.2363 C   0  0  0  0  0  0  0  0  0  0  0  0
   -4.6121    1.2892    2.1309 C   0  0  0  0  0  0  0  0  0  0  0  0
   -3.4736   -0.8648   -3.3658 C   0  0  0  0  0  0  0  0  0  0  0  0
   -1.8165   -3.7708    1.4150 C   0  0  0  0  0  0  0  0  0  0  0  0
   -4.0632    1.8783    3.2699 C   0  0  0  0  0  0  0  0  0  0  0  0
   -3.8518    0.3855   -3.8548 C   0  0  0  0  0  0  0  0  0  0  0  0
   -0.6718   -4.4320    0.9697 C   0  0  0  0  0  0  0  0  0  0  0  0
    6.8218   -0.7494   -0.6910 H   0  0  0  0  0  0  0  0  0  0  0  0
    6.0124    0.7453   -1.1106 H   0  0  0  0  0  0  0  0  0  0  0  0
    5.5600   -2.6072    0.6140 H   0  0  0  0  0  0  0  0  0  0  0  0
    4.9577   -1.4907    1.8636 H   0  0  0  0  0  0  0  0  0  0  0  0
    3.8195   -2.4088    0.9064 H   0  0  0  0  0  0  0  0  0  0  0  0
    4.9175   -2.1244   -1.8604 H   0  0  0  0  0  0  0  0  0  0  0  0
    3.2386   -1.7045   -1.4623 H   0  0  0  0  0  0  0  0  0  0  0  0
    4.2536   -0.5530   -2.3153 H   0  0  0  0  0  0  0  0  0  0  0  0
   -0.7680    1.4395    2.6055 H   0  0  0  0  0  0  0  0  0  0  0  0
   -2.3873    2.3705   -1.5275 H   0  0  0  0  0  0  0  0  0  0  0  0
    0.8760   -1.8776   -0.6309 H   0  0  0  0  0  0  0  0  0  0  0  0
   -4.2480    0.2808    0.2954 H   0  0  0  0  0  0  0  0  0  0  0  0
   -2.4282   -1.9498   -1.8677 H   0  0  0  0  0  0  0  0  0  0  0  0
   -2.9056   -1.9447    1.4845 H   0  0  0  0  0  0  0  0  0  0  0  0
    7.5206    1.1650    0.7202 H   0  0  0  0  0  0  0  0  0  0  0  0
    6.8264   -0.1257    1.7014 H   0  0  0  0  0  0  0  0  0  0  0  0
    5.8779    1.3326    1.3512 H   0  0  0  0  0  0  0  0  0  0  0  0
    4.1804    3.1220    1.0005 H   0  0  0  0  0  0  0  0  0  0  0  0
    2.4903    3.5043    1.3852 H   0  0  0  0  0  0  0  0  0  0  0  0
    3.1726    1.9443    1.8349 H   0  0  0  0  0  0  0  0  0  0  0  0
    2.4129    2.8784   -2.3358 H   0  0  0  0  0  0  0  0  0  0  0  0
    3.6519    3.7602   -1.4573 H   0  0  0  0  0  0  0  0  0  0  0  0
    1.9357    4.0378   -1.0813 H   0  0  0  0  0  0  0  0  0  0  0  0
   -2.2518    2.3865    4.3186 H   0  0  0  0  0  0  0  0  0  0  0  0
   -3.7515    2.5178   -3.5677 H   0  0  0  0  0  0  0  0  0  0  0  0
    1.1829   -4.2556   -0.1115 H   0  0  0  0  0  0  0  0  0  0  0  0
   -5.6904    1.2450    2.0088 H   0  0  0  0  0  0  0  0  0  0  0  0
   -3.7805   -1.7668   -3.8873 H   0  0  0  0  0  0  0  0  0  0  0  0
   -2.5679   -4.3104    1.9842 H   0  0  0  0  0  0  0  0  0  0  0  0
   -4.7142    2.2963    4.0323 H   0  0  0  0  0  0  0  0  0  0  0  0
   -4.4532    0.4568   -4.7563 H   0  0  0  0  0  0  0  0  0  0  0  0
   -0.5316   -5.4855    1.1933 H   0  0  0  0  0  0  0  0  0  0  0  0
  1  5  1  0  0  0  0
  1  6  1  0  0  0  0
  1  7  1  0  0  0  0
  1 10  1  0  0  0  0
  2  3  1  0  0  0  0
  2  4  1  0  0  0  0
  3  9  1  0  0  0  0
  4  8  1  0  0  0  0
  4 11  1  0  0  0  0
  4 12  1  0  0  0  0
  5 13  2  0  0  0  0
  5 16  1  0  0  0  0
  6 14  2  0  0  0  0
  6 17  1  0  0  0  0
  7 15  2  0  0  0  0
  7 18  1  0  0  0  0
  8 20  1  0  0  0  0
  8 32  1  0  0  0  0
  8 33  1  0  0  0  0
  9 19  1  0  0  0  0
  9 21  1  0  0  0  0
  9 22  1  0  0  0  0
 10 19  3  0  0  0  0
 11 34  1  0  0  0  0
 11 35  1  0  0  0  0
 11 36  1  0  0  0  0
 12 37  1  0  0  0  0
 12 38  1  0  0  0  0
 12 39  1  0  0  0  0
 13 23  1  0  0  0  0
 13 40  1  0  0  0  0
 14 24  1  0  0  0  0
 14 41  1  0  0  0  0
 15 25  1  0  0  0  0
 15 42  1  0  0  0  0
 16 26  2  0  0  0  0
 16 43  1  0  0  0  0
 17 27  2  0  0  0  0
 17 44  1  0  0  0  0
 18 28  2  0  0  0  0
 18 45  1  0  0  0  0
 20 46  1  0  0  0  0
 20 47  1  0  0  0  0
 20 48  1  0  0  0  0
 21 49  1  0  0  0  0
 21 50  1  0  0  0  0
 21 51  1  0  0  0  0
 22 52  1  0  0  0  0
 22 53  1  0  0  0  0
 22 54  1  0  0  0  0
 23 29  2  0  0  0  0
 23 55  1  0  0  0  0
 24 30  2  0  0  0  0
 24 56  1  0  0  0  0
 25 31  2  0  0  0  0
 25 57  1  0  0  0  0
 26 29  1  0  0  0  0
 26 58  1  0  0  0  0
 27 30  1  0  0  0  0
 27 59  1  0  0  0  0
 28 31  1  0  0  0  0
 28 60  1  0  0  0  0
 29 61  1  0  0  0  0
 30 62  1  0  0  0  0
 31 63  1  0  0  0  0
M  END
> <PUBCHEM_COMPOUND_CID>
15046924

> <PUBCHEM_CONFORMER_RMSD>
1

> <PUBCHEM_CONFORMER_DIVERSEORDER>
1
4
3
2
10
8
6
5
7
9

> <PUBCHEM_MMFF94_PARTIAL_CHARGES>
40
1 0.96
10 -0.29
13 -0.15
14 -0.15
15 -0.15
16 -0.15
17 -0.15
18 -0.15
19 -0.2
2 -0.28
23 -0.15
24 -0.15
25 -0.15
26 -0.15
27 -0.15
28 -0.15
29 -0.15
3 -0.28
30 -0.15
31 -0.15
4 0.28
40 0.15
41 0.15
42 0.15
43 0.15
44 0.15
45 0.15
5 -0.22
55 0.15
56 0.15
57 0.15
58 0.15
59 0.15
6 -0.22
60 0.15
61 0.15
62 0.15
63 0.15
7 -0.22
9 0.48

> <PUBCHEM_EFFECTIVE_ROTOR_COUNT>
7

> <PUBCHEM_PHARMACOPHORE_FEATURES>
6
1 20 hydrophobe
3 4 11 12 hydrophobe
3 9 21 22 hydrophobe
6 5 13 16 23 26 29 rings
6 6 14 17 24 27 30 rings
6 7 15 18 25 28 31 rings

> <PUBCHEM_HEAVY_ATOM_COUNT>
31

> <PUBCHEM_ATOM_DEF_STEREO_COUNT>
0

> <PUBCHEM_ATOM_UDEF_STEREO_COUNT>
0

> <PUBCHEM_BOND_DEF_STEREO_COUNT>
0

> <PUBCHEM_BOND_UDEF_STEREO_COUNT>
0

> <PUBCHEM_ISOTOPIC_ATOM_COUNT>
0

> <PUBCHEM_COMPONENT_COUNT>
1

> <PUBCHEM_CACTVS_TAUTO_COUNT>
1

> <PUBCHEM_CONFORMER_ID>
00E5990C00000001

> <PUBCHEM_MMFF94_ENERGY>
74.8302

> <PUBCHEM_FEATURE_SELFOVERLAP>
30.449

> <PUBCHEM_SHAPE_FINGERPRINT>
10258939 38 16236152573107612841
105312 117 17749656420635913022
10721379 63 17834633208023389245
11445158 3 17896908545228908765
12082328 90 15140967245447634946
12422481 6 17314536775907941203
12553582 1 18336552612698212388
12633257 1 18335997419139229492
12788726 201 17842014444033874595
15219462 58 17842284953827547344
15328829 1 17773302458137355613
15361156 5 17845673481956960468
15420108 30 17198550239023490049
18603816 31 17416978218860629070
20602899 9 18264473126779629143
21033648 144 18336822117427405380
21033648 29 18040984142560272956
2132832 1 17417796396618315056
23419403 2 16902417054817680255
23559900 14 18191007097307538196
469060 322 16952258857043902611
497634 4 17687206578039452772
563151 248 17560249007032077883
9981440 41 17532640248779179599

> <PUBCHEM_SHAPE_MULTIPOLES>
644.44
11.14
4.27
3.69
18.41
4.28
1.52
-3.77
0.12
0.19
-1.94
-7.83
-1.93
-1.26

> <PUBCHEM_SHAPE_SELFOVERLAP>
1343.559

> <PUBCHEM_SHAPE_VOLUME>
367.9

> <PUBCHEM_COORDINATE_TYPE>
2
5
10

$$$$
