90758
  -OEChem-11012400393D

 50 52  0     1  0  0  0  0  0999 V2000
    0.1272   -0.0679   -0.4332 C   0  0  2  0  0  0  0  0  0  0  0  0
   -0.8073    0.5468    0.6563 C   0  0  2  0  0  0  0  0  0  0  0  0
   -2.1212   -0.2590    0.5831 C   0  0  2  0  0  0  0  0  0  0  0  0
   -1.6394   -1.6974    0.2560 C   0  0  0  0  0  0  0  0  0  0  0  0
   -0.4787   -1.4685   -0.7368 C   0  0  0  0  0  0  0  0  0  0  0  0
    1.5560   -0.2110    0.1274 C   0  0  0  0  0  0  0  0  0  0  0  0
   -0.9982    2.0683    0.6831 C   0  0  0  0  0  0  0  0  0  0  0  0
   -3.1221    0.3344   -0.4194 C   0  0  0  0  0  0  0  0  0  0  0  0
    0.2345    0.7316   -1.7417 C   0  0  0  0  0  0  0  0  0  0  0  0
   -2.0682    2.6120   -0.2572 C   0  0  0  0  0  0  0  0  0  0  0  0
   -3.3623    1.8175   -0.1651 C   0  0  0  0  0  0  0  0  0  0  0  0
   -1.1244   -2.4048    1.5285 C   0  0  0  0  0  0  0  0  0  0  0  0
   -2.7211   -2.5968   -0.3598 C   0  0  0  0  0  0  0  0  0  0  0  0
    2.4658   -0.9233   -0.8827 C   0  0  0  0  0  0  0  0  0  0  0  0
    2.1294    1.1612    0.5062 C   0  0  0  0  0  0  0  0  0  0  0  0
    3.9008   -1.0297   -0.3716 C   0  0  0  0  0  0  0  0  0  0  0  0
    3.5650    1.0514    1.0148 C   0  0  0  0  0  0  0  0  0  0  0  0
    4.4643    0.3350    0.0121 C   0  0  0  0  0  0  0  0  0  0  0  0
   -0.3664    0.3072    1.6349 H   0  0  0  0  0  0  0  0  0  0  0  0
   -2.6052   -0.2431    1.5694 H   0  0  0  0  0  0  0  0  0  0  0  0
   -0.8641   -1.4925   -1.7645 H   0  0  0  0  0  0  0  0  0  0  0  0
    0.2257   -2.2996   -0.6604 H   0  0  0  0  0  0  0  0  0  0  0  0
    1.5325   -0.8281    1.0358 H   0  0  0  0  0  0  0  0  0  0  0  0
   -0.0717    2.6143    0.4948 H   0  0  0  0  0  0  0  0  0  0  0  0
   -1.2986    2.3416    1.7044 H   0  0  0  0  0  0  0  0  0  0  0  0
   -4.0810   -0.1907   -0.3345 H   0  0  0  0  0  0  0  0  0  0  0  0
   -2.7810    0.1943   -1.4505 H   0  0  0  0  0  0  0  0  0  0  0  0
    0.6360    1.7400   -1.6334 H   0  0  0  0  0  0  0  0  0  0  0  0
    0.7925    0.2160   -2.5274 H   0  0  0  0  0  0  0  0  0  0  0  0
   -0.7613    0.8565   -2.1802 H   0  0  0  0  0  0  0  0  0  0  0  0
   -1.7106    2.6164   -1.2907 H   0  0  0  0  0  0  0  0  0  0  0  0
   -2.2694    3.6602   -0.0050 H   0  0  0  0  0  0  0  0  0  0  0  0
   -3.8101    1.9539    0.8269 H   0  0  0  0  0  0  0  0  0  0  0  0
   -4.0824    2.2041   -0.8953 H   0  0  0  0  0  0  0  0  0  0  0  0
    2.5335   -0.3811   -1.8297 H   0  0  0  0  0  0  0  0  0  0  0  0
    2.1290   -1.9353   -1.1185 H   0  0  0  0  0  0  0  0  0  0  0  0
    1.5591    1.6118    1.3222 H   0  0  0  0  0  0  0  0  0  0  0  0
    2.1415    1.8642   -0.3299 H   0  0  0  0  0  0  0  0  0  0  0  0
   -1.9324   -2.5234    2.2595 H   0  0  0  0  0  0  0  0  0  0  0  0
   -0.7418   -3.4049    1.2935 H   0  0  0  0  0  0  0  0  0  0  0  0
   -0.3153   -1.8601    2.0215 H   0  0  0  0  0  0  0  0  0  0  0  0
   -3.5829   -2.6882    0.3104 H   0  0  0  0  0  0  0  0  0  0  0  0
   -3.0809   -2.2135   -1.3202 H   0  0  0  0  0  0  0  0  0  0  0  0
   -2.3329   -3.6048   -0.5463 H   0  0  0  0  0  0  0  0  0  0  0  0
    4.5351   -1.4855   -1.1406 H   0  0  0  0  0  0  0  0  0  0  0  0
    3.9291   -1.6952    0.5001 H   0  0  0  0  0  0  0  0  0  0  0  0
    3.5745    0.5053    1.9664 H   0  0  0  0  0  0  0  0  0  0  0  0
    3.9636    2.0519    1.2188 H   0  0  0  0  0  0  0  0  0  0  0  0
    5.4670    0.2138    0.4369 H   0  0  0  0  0  0  0  0  0  0  0  0
    4.5711    0.9524   -0.8883 H   0  0  0  0  0  0  0  0  0  0  0  0
  1  2  1  0  0  0  0
  1  5  1  0  0  0  0
  1  6  1  0  0  0  0
  1  9  1  0  0  0  0
  2  3  1  0  0  0  0
  2  7  1  0  0  0  0
  2 19  1  0  0  0  0
  3  4  1  0  0  0  0
  3  8  1  0  0  0  0
  3 20  1  0  0  0  0
  4  5  1  0  0  0  0
  4 12  1  0  0  0  0
  4 13  1  0  0  0  0
  5 21  1  0  0  0  0
  5 22  1  0  0  0  0
  6 14  1  0  0  0  0
  6 15  1  0  0  0  0
  6 23  1  0  0  0  0
  7 10  1  0  0  0  0
  7 24  1  0  0  0  0
  7 25  1  0  0  0  0
  8 11  1  0  0  0  0
  8 26  1  0  0  0  0
  8 27  1  0  0  0  0
  9 28  1  0  0  0  0
  9 29  1  0  0  0  0
  9 30  1  0  0  0  0
 10 11  1  0  0  0  0
 10 31  1  0  0  0  0
 10 32  1  0  0  0  0
 11 33  1  0  0  0  0
 11 34  1  0  0  0  0
 12 39  1  0  0  0  0
 12 40  1  0  0  0  0
 12 41  1  0  0  0  0
 13 42  1  0  0  0  0
 13 43  1  0  0  0  0
 13 44  1  0  0  0  0
 14 16  1  0  0  0  0
 14 35  1  0  0  0  0
 14 36  1  0  0  0  0
 15 17  1  0  0  0  0
 15 37  1  0  0  0  0
 15 38  1  0  0  0  0
 16 18  1  0  0  0  0
 16 45  1  0  0  0  0
 16 46  1  0  0  0  0
 17 18  1  0  0  0  0
 17 47  1  0  0  0  0
 17 48  1  0  0  0  0
 18 49  1  0  0  0  0
 18 50  1  0  0  0  0
M  END
> <PUBCHEM_COMPOUND_CID>
90758

> <PUBCHEM_CONFORMER_RMSD>
0.6

> <PUBCHEM_CONFORMER_DIVERSEORDER>
11
18
10
3
5
21
4
16
12
13
15
14
2
8
19
1
9
6
7
17
20

> <PUBCHEM_MMFF94_PARTIAL_CHARGES>
0

> <PUBCHEM_EFFECTIVE_ROTOR_COUNT>
3.6

> <PUBCHEM_PHARMACOPHORE_FEATURES>
4
3 4 12 13 hydrophobe
5 1 2 3 4 5 rings
6 2 3 7 8 10 11 rings
6 6 14 15 16 17 18 rings

> <PUBCHEM_HEAVY_ATOM_COUNT>
18

> <PUBCHEM_ATOM_DEF_STEREO_COUNT>
0

> <PUBCHEM_ATOM_UDEF_STEREO_COUNT>
3

> <PUBCHEM_BOND_DEF_STEREO_COUNT>
0

> <PUBCHEM_BOND_UDEF_STEREO_COUNT>
0

> <PUBCHEM_ISOTOPIC_ATOM_COUNT>
0

> <PUBCHEM_COMPONENT_COUNT>
1

> <PUBCHEM_CACTVS_TAUTO_COUNT>
1

> <PUBCHEM_CONFORMER_ID>
000162860000000B

> <PUBCHEM_MMFF94_ENERGY>
64.546

> <PUBCHEM_FEATURE_SELFOVERLAP>
20.426

> <PUBCHEM_SHAPE_FINGERPRINT>
10366900 7 18272651285745488672
10608611 8 18343579655519386216
10863032 1 18272366455919265362
10948715 1 18195807362841387677
12011746 2 18340769243437263700
12077114 3 18343299262805537452
12173636 292 18337386020167247076
12500047 106 18409446947357869524
12553582 1 17833566955989999559
12633257 1 18341613690063479688
12730499 353 17831863448203205805
13004483 165 17914032450994881806
13024252 1 12396294855282688951
13140716 1 18266470977956333473
13214271 11 18200303437802035084
13296909 8 18410572924352616477
13380535 76 18270117903158936694
13464514 151 17550110260083965229
14178342 30 18114177566738242730
14223421 5 18270116945729577736
14289901 80 18335986458419606976
15219456 202 18202002140095522080
15375462 6 18197497539777863780
15653759 3 18342179994396810754
16945 1 18341611452190436427
17357779 13 18055615447112441647
18186145 218 18127410055507039081
19049666 15 18270973323495665574
200 152 16630519614004847044
20510252 161 18411984680176664899
20524608 308 18411700967564372527
20528008 55 18342173349845124316
20600515 1 17100556604288879684
20645477 56 18409732837371413585
20645477 70 17346604024300641014
20681677 76 18201430437183647408
21452121 199 17321833400983438331
21524375 3 18120660128091279537
2306618 200 18060426827953406451
23402539 116 18341604928609627533
23419403 2 16987419001448980411
23493267 7 18409445882258760480
23557571 272 18271536389033194550
23559900 14 18343300328305690378
25 1 18055072055991939781
2748010 2 18200604699186676407
305870 269 17900823747632922761
3071541 236 18260267443063201347
5104073 3 18343862234466184058
5845 1 15596957428413411043
6049 1 17988098750308548286
633830 44 17984415239847231893
69090 78 18343016662431376751
6992083 37 17749119875935361197
7364860 26 17474670547135880085
81228 2 18335707195034640249
84936 182 17547004126782173897
8809292 202 18411422808354941202
9709674 26 18272653420217874790

> <PUBCHEM_SHAPE_MULTIPOLES>
370.43
6.4
2.7
1.17
5.98
0.3
0.06
-0.7
-0.06
-2.62
-0.34
0.1
0.15
0.64

> <PUBCHEM_SHAPE_SELFOVERLAP>
765.624

> <PUBCHEM_SHAPE_VOLUME>
210.7

> <PUBCHEM_COORDINATE_TYPE>
2
5
10

$$$$
