69181
  -OEChem-11012401053D

 24 24  0     0  0  0  0  0  0999 V2000
    1.7210   -0.9310    1.0927 O   0  0  0  0  0  0  0  0  0  0  0  0
   -1.3900   -1.0243   -0.1026 O   0  0  0  0  0  0  0  0  0  0  0  0
   -0.5171    1.1895   -0.3061 O   0  0  0  0  0  0  0  0  0  0  0  0
   -3.1101    0.3263    0.6426 O   0  0  0  0  0  0  0  0  0  0  0  0
    1.3284    2.0419    0.7954 O   0  0  0  0  0  0  0  0  0  0  0  0
   -0.4070   -0.0804    0.3703 C   0  0  0  0  0  0  0  0  0  0  0  0
    0.9416   -0.6678    0.0330 C   0  0  0  0  0  0  0  0  0  0  0  0
    1.5182   -0.9814   -1.1450 C   0  0  0  0  0  0  0  0  0  0  0  0
    2.7914   -1.4954   -0.8014 C   0  0  0  0  0  0  0  0  0  0  0  0
    2.8662   -1.4439    0.5710 C   0  0  0  0  0  0  0  0  0  0  0  0
   -2.6960   -0.6898    0.1013 C   0  0  0  0  0  0  0  0  0  0  0  0
    0.4055    2.1461   -0.0007 C   0  0  0  0  0  0  0  0  0  0  0  0
   -3.5795   -1.7695   -0.4455 C   0  0  0  0  0  0  0  0  0  0  0  0
    0.1274    3.3797   -0.8049 C   0  0  0  0  0  0  0  0  0  0  0  0
   -0.5288    0.0586    1.4520 H   0  0  0  0  0  0  0  0  0  0  0  0
    1.1007   -0.8654   -2.1346 H   0  0  0  0  0  0  0  0  0  0  0  0
    3.5585   -1.8578   -1.4704 H   0  0  0  0  0  0  0  0  0  0  0  0
    3.6247   -1.7188    1.2892 H   0  0  0  0  0  0  0  0  0  0  0  0
   -3.4126   -1.8764   -1.5203 H   0  0  0  0  0  0  0  0  0  0  0  0
   -4.6265   -1.4993   -0.2809 H   0  0  0  0  0  0  0  0  0  0  0  0
   -3.3778   -2.7111    0.0714 H   0  0  0  0  0  0  0  0  0  0  0  0
   -0.8714    3.7572   -0.5719 H   0  0  0  0  0  0  0  0  0  0  0  0
    0.2158    3.1549   -1.8707 H   0  0  0  0  0  0  0  0  0  0  0  0
    0.8589    4.1517   -0.5493 H   0  0  0  0  0  0  0  0  0  0  0  0
  1  7  1  0  0  0  0
  1 10  1  0  0  0  0
  2  6  1  0  0  0  0
  2 11  1  0  0  0  0
  3  6  1  0  0  0  0
  3 12  1  0  0  0  0
  4 11  2  0  0  0  0
  5 12  2  0  0  0  0
  6  7  1  0  0  0  0
  6 15  1  0  0  0  0
  7  8  2  0  0  0  0
  8  9  1  0  0  0  0
  8 16  1  0  0  0  0
  9 10  2  0  0  0  0
  9 17  1  0  0  0  0
 10 18  1  0  0  0  0
 11 13  1  0  0  0  0
 12 14  1  0  0  0  0
 13 19  1  0  0  0  0
 13 20  1  0  0  0  0
 13 21  1  0  0  0  0
 14 22  1  0  0  0  0
 14 23  1  0  0  0  0
 14 24  1  0  0  0  0
M  END
> <PUBCHEM_COMPOUND_CID>
69181

> <PUBCHEM_CONFORMER_RMSD>
0.6

> <PUBCHEM_CONFORMER_DIVERSEORDER>
1
59
47
29
12
43
17
3
30
57
32
46
22
40
24
49
27
38
54
33
48
28
53
63
19
64
16
25
34
60
8
18
26
61
50
6
23
45
35
52
56
21
31
62
7
14
15
39
42
36
5
44
55
58
41
37
11
20
51
13
9
4
2
10

> <PUBCHEM_MMFF94_PARTIAL_CHARGES>
17
1 -0.28
10 -0.01
11 0.66
12 0.66
13 0.06
14 0.06
16 0.15
17 0.15
18 0.15
2 -0.43
3 -0.43
4 -0.57
5 -0.57
6 0.74
7 -0.04
8 -0.15
9 -0.15

> <PUBCHEM_EFFECTIVE_ROTOR_COUNT>
5

> <PUBCHEM_PHARMACOPHORE_FEATURES>
4
1 1 acceptor
1 4 acceptor
1 5 acceptor
5 1 7 8 9 10 rings

> <PUBCHEM_HEAVY_ATOM_COUNT>
14

> <PUBCHEM_ATOM_DEF_STEREO_COUNT>
0

> <PUBCHEM_ATOM_UDEF_STEREO_COUNT>
0

> <PUBCHEM_BOND_DEF_STEREO_COUNT>
0

> <PUBCHEM_BOND_UDEF_STEREO_COUNT>
0

> <PUBCHEM_ISOTOPIC_ATOM_COUNT>
0

> <PUBCHEM_COMPONENT_COUNT>
1

> <PUBCHEM_CACTVS_TAUTO_COUNT>
1

> <PUBCHEM_CONFORMER_ID>
00010E3D00000001

> <PUBCHEM_MMFF94_ENERGY>
13.5627

> <PUBCHEM_FEATURE_SELFOVERLAP>
20.298

> <PUBCHEM_SHAPE_FINGERPRINT>
1 1 17906731758247277261
12138202 97 17618787951288396934
14817 1 15327263319235900640
15490181 8 17687749749741561961
15501101 241 17703787015980887858
161256 15 18410007762480780380
16945 1 17774727463239322539
17990270 104 18341051925267999219
18186145 218 11891337517065704894
18380122 1 18058998481261666898
20097449 115 18408886222012995137
20361792 2 18410573976836226079
20388701 513 18266451002010627026
20645477 70 18195519518882358127
20671657 53 18410003352003080519
20711985 327 18411980269166357579
20711985 344 18120657928825469954
20871998 22 18413670192821180114
21524375 3 17473541829340549405
22112679 90 18123217664988666676
2255824 54 18265058109794108807
22802520 49 17339283312373541862
228727 97 17897471435527450278
23402539 116 18338232670418088822
23419403 2 17628033933223439665
23552423 10 18194970866531413471
23557571 272 18056767533698690294
23559900 14 17478599119895582450
23598291 2 18271537467692490815
23598294 1 17976260132038674738
2748010 2 18337939134729891341
528862 383 18196646521846066255
6992083 37 18128554690593568025
7364860 26 18127976514638236121
81228 2 18122635950264977137
81539 233 17830729116715437189

> <PUBCHEM_SHAPE_MULTIPOLES>
258.77
4.67
3.03
0.97
3.07
3.52
0.06
-4.04
-0.01
-0.43
0.63
-0.4
-0.05
-0.06

> <PUBCHEM_SHAPE_SELFOVERLAP>
531.211

> <PUBCHEM_SHAPE_VOLUME>
149.1

> <PUBCHEM_COORDINATE_TYPE>
2
5
10

$$$$
