21649
  -OEChem-11012401023D

 35 38  0     0  0  0  0  0  0999 V2000
    0.0002    0.6888    0.0426 O   0  0  0  0  0  0  0  0  0  0  0  0
    0.7114   -1.4263   -0.0894 C   0  0  0  0  0  0  0  0  0  0  0  0
   -0.7117   -1.4261   -0.0889 C   0  0  0  0  0  0  0  0  0  0  0  0
    1.1064   -0.1183   -0.0079 C   0  0  0  0  0  0  0  0  0  0  0  0
   -1.1063   -0.1181   -0.0070 C   0  0  0  0  0  0  0  0  0  0  0  0
    2.3654    0.5716    0.0349 C   0  0  0  0  0  0  0  0  0  0  0  0
   -2.3650    0.5722    0.0362 C   0  0  0  0  0  0  0  0  0  0  0  0
    1.5218   -2.5495   -0.1601 C   0  0  0  0  0  0  0  0  0  0  0  0
   -1.5223   -2.5493   -0.1590 C   0  0  0  0  0  0  0  0  0  0  0  0
    0.7217   -3.7142   -0.2329 C   0  0  0  0  0  0  0  0  0  0  0  0
   -0.7223   -3.7141   -0.2325 C   0  0  0  0  0  0  0  0  0  0  0  0
    3.4855   -0.0438    0.6019 C   0  0  0  0  0  0  0  0  0  0  0  0
   -3.4853   -0.0431    0.6031 C   0  0  0  0  0  0  0  0  0  0  0  0
    2.4795    1.8628   -0.4890 C   0  0  0  0  0  0  0  0  0  0  0  0
   -2.4791    1.8630   -0.4886 C   0  0  0  0  0  0  0  0  0  0  0  0
    4.7083    0.6259    0.6449 C   0  0  0  0  0  0  0  0  0  0  0  0
   -4.7084    0.6262    0.6445 C   0  0  0  0  0  0  0  0  0  0  0  0
    3.7024    2.5324   -0.4461 C   0  0  0  0  0  0  0  0  0  0  0  0
   -3.7022    2.5322   -0.4471 C   0  0  0  0  0  0  0  0  0  0  0  0
    4.8168    1.9140    0.1208 C   0  0  0  0  0  0  0  0  0  0  0  0
   -4.8169    1.9138    0.1195 C   0  0  0  0  0  0  0  0  0  0  0  0
    2.5994   -2.5942   -0.1911 H   0  0  0  0  0  0  0  0  0  0  0  0
   -2.5998   -2.5938   -0.1891 H   0  0  0  0  0  0  0  0  0  0  0  0
    1.2247   -4.6790   -0.3020 H   0  0  0  0  0  0  0  0  0  0  0  0
   -1.2254   -4.6789   -0.3011 H   0  0  0  0  0  0  0  0  0  0  0  0
    3.4352   -1.0241    1.0643 H   0  0  0  0  0  0  0  0  0  0  0  0
   -3.4350   -1.0232    1.0661 H   0  0  0  0  0  0  0  0  0  0  0  0
    1.6298    2.3669   -0.9436 H   0  0  0  0  0  0  0  0  0  0  0  0
   -1.6293    2.3669   -0.9433 H   0  0  0  0  0  0  0  0  0  0  0  0
    5.5736    0.1493    1.0961 H   0  0  0  0  0  0  0  0  0  0  0  0
   -5.5739    0.1496    1.0955 H   0  0  0  0  0  0  0  0  0  0  0  0
    3.7875    3.5349   -0.8551 H   0  0  0  0  0  0  0  0  0  0  0  0
   -3.7874    3.5344   -0.8570 H   0  0  0  0  0  0  0  0  0  0  0  0
    5.7683    2.4363    0.1563 H   0  0  0  0  0  0  0  0  0  0  0  0
   -5.7686    2.4359    0.1538 H   0  0  0  0  0  0  0  0  0  0  0  0
  1  4  1  0  0  0  0
  1  5  1  0  0  0  0
  2  3  1  0  0  0  0
  2  4  2  0  0  0  0
  2  8  1  0  0  0  0
  3  5  2  0  0  0  0
  3  9  1  0  0  0  0
  4  6  1  0  0  0  0
  5  7  1  0  0  0  0
  6 12  2  0  0  0  0
  6 14  1  0  0  0  0
  7 13  2  0  0  0  0
  7 15  1  0  0  0  0
  8 10  2  0  0  0  0
  8 22  1  0  0  0  0
  9 11  2  0  0  0  0
  9 23  1  0  0  0  0
 10 11  1  0  0  0  0
 10 24  1  0  0  0  0
 11 25  1  0  0  0  0
 12 16  1  0  0  0  0
 12 26  1  0  0  0  0
 13 17  1  0  0  0  0
 13 27  1  0  0  0  0
 14 18  2  0  0  0  0
 14 28  1  0  0  0  0
 15 19  2  0  0  0  0
 15 29  1  0  0  0  0
 16 20  2  0  0  0  0
 16 30  1  0  0  0  0
 17 21  2  0  0  0  0
 17 31  1  0  0  0  0
 18 20  1  0  0  0  0
 18 32  1  0  0  0  0
 19 21  1  0  0  0  0
 19 33  1  0  0  0  0
 20 34  1  0  0  0  0
 21 35  1  0  0  0  0
M  END
> <PUBCHEM_COMPOUND_CID>
21649

> <PUBCHEM_CONFORMER_RMSD>
0.6

> <PUBCHEM_CONFORMER_DIVERSEORDER>
1
2

> <PUBCHEM_MMFF94_PARTIAL_CHARGES>
33
1 -0.28
10 -0.15
11 -0.15
12 -0.15
13 -0.15
14 -0.15
15 -0.15
16 -0.15
17 -0.15
18 -0.15
19 -0.15
20 -0.15
21 -0.15
22 0.15
23 0.15
24 0.15
25 0.15
26 0.15
27 0.15
28 0.15
29 0.15
30 0.15
31 0.15
32 0.15
33 0.15
34 0.15
35 0.15
4 0.09
5 0.09
6 0.05
7 0.05
8 -0.15
9 -0.15

> <PUBCHEM_EFFECTIVE_ROTOR_COUNT>
2

> <PUBCHEM_PHARMACOPHORE_FEATURES>
5
1 1 acceptor
5 1 2 3 4 5 rings
6 2 3 8 9 10 11 rings
6 6 12 14 16 18 20 rings
6 7 13 15 17 19 21 rings

> <PUBCHEM_HEAVY_ATOM_COUNT>
21

> <PUBCHEM_ATOM_DEF_STEREO_COUNT>
0

> <PUBCHEM_ATOM_UDEF_STEREO_COUNT>
0

> <PUBCHEM_BOND_DEF_STEREO_COUNT>
0

> <PUBCHEM_BOND_UDEF_STEREO_COUNT>
0

> <PUBCHEM_ISOTOPIC_ATOM_COUNT>
0

> <PUBCHEM_COMPONENT_COUNT>
1

> <PUBCHEM_CACTVS_TAUTO_COUNT>
1

> <PUBCHEM_CONFORMER_ID>
0000549100000001

> <PUBCHEM_MMFF94_ENERGY>
67.656

> <PUBCHEM_FEATURE_SELFOVERLAP>
25.504

> <PUBCHEM_SHAPE_FINGERPRINT>
10165383 225 18341902913071937025
10493431 412 18411419548253405736
10871710 139 17469338383534477772
10967382 1 18194964045675201399
1100329 8 18338794495074546610
11370993 70 18410571773322655353
12107183 9 18335971009870786064
12173636 292 18267297819216554548
12390115 104 18270699664974324928
12553582 1 17402047198489312154
12592029 89 18409170974134233554
12730499 353 18338528430582210745
12788726 201 17686915212053213238
13004483 165 17620465144301983782
13140716 1 18409162242782127770
13583140 156 16950827159491324897
138480 1 17762338007140488695
14123255 52 18411418410081609092
14178342 30 17977365451206215280
14508225 48 17478882148779548895
1454969 45 18338240496280745795
14767858 380 18198605792270541575
14787075 74 18201998876305576945
14790565 3 18411426119638511745
15042514 8 18048321333886573947
15230672 131 18408329878996272246
15475509 35 16589719941675792843
15927050 60 18412261744813767446
16087824 20 18123469638996389167
16110190 28 18263059082545322738
16752209 62 18126555954405998906
17134986 127 18410859832710993398
18222031 100 11458429054513825617
18785283 64 18264208011085636730
19591789 44 18411420652302522459
20157964 124 18265889152213029037
204376 136 18411983563601212201
20510252 161 18126853926235750378
21033648 29 18342165691987807024
212916 134 18271506668339671488
21524375 3 18334012808671446224
22149856 69 18192742006998276977
22182313 1 18268172957337124271
2255824 54 18125722284000032231
23227448 37 18339924934265416421
23419403 2 17245249817817279910
23558518 356 18117276072225829282
23559900 14 18049438137384427795
283562 15 18050840314862434179
3091708 16 9337086278231654506
335352 9 18411136905952945686
350125 39 18267587003775625385
352729 6 18339084903065644527
394222 165 18261388906152828882
474 4 18339922610888400257
474229 33 18409730707637119683
5104073 3 18118132377341347497
532947 4 18197219148735748278
5385378 56 18269280066682269888
6138700 20 18123193403541818718
6327066 14 18335697273376012621
633830 44 18059017168432302493
7226269 152 17988637502538050432
7364860 26 18123470484059583919
77188 2 17330556445144106879
7808743 9 18265897054615366704
81228 2 17692232454448223443
8272917 22 18197499524121235437
84936 182 18057600975690831337
9709674 26 18191592943863151875
9862522 239 18334562555937552173
9981440 41 18409448085656085443

> <PUBCHEM_SHAPE_MULTIPOLES>
426.3
9.06
4.16
0.74
0
3.81
-0.03
-9.58
-1.45
0
0.8
0
-0.09
0

> <PUBCHEM_SHAPE_SELFOVERLAP>
966.919

> <PUBCHEM_SHAPE_VOLUME>
224.3

> <PUBCHEM_COORDINATE_TYPE>
2
5
10

$$$$
