135473712
  -OEChem-11012401053D

 38 39  0     0  0  0  0  0  0999 V2000
    0.3712    0.3042   -1.6605 O   0  5  0  0  0  0  0  0  0  0  0  0
   -0.3728    0.3026    1.6600 O   0  5  0  0  0  0  0  0  0  0  0  0
    0.5138    0.3035   -0.3961 N   0  3  0  0  0  0  0  0  0  0  0  0
   -0.5135    0.3032    0.3965 N   0  3  0  0  0  0  0  0  0  0  0  0
    1.8479    0.3032    0.2040 C   0  0  0  0  0  0  0  0  0  0  0  0
   -1.8477    0.3034   -0.2036 C   0  0  0  0  0  0  0  0  0  0  0  0
    2.2574   -1.1508    0.3983 C   0  0  0  0  0  0  0  0  0  0  0  0
    2.7737    1.0466   -0.7496 C   0  0  0  0  0  0  0  0  0  0  0  0
   -2.2571   -1.1506   -0.3991 C   0  0  0  0  0  0  0  0  0  0  0  0
   -2.7736    1.0460    0.7505 C   0  0  0  0  0  0  0  0  0  0  0  0
    3.7088   -1.2485    0.8629 C   0  0  0  0  0  0  0  0  0  0  0  0
    4.2250    0.9475   -0.2845 C   0  0  0  0  0  0  0  0  0  0  0  0
   -3.7086   -1.2478   -0.8638 C   0  0  0  0  0  0  0  0  0  0  0  0
   -4.2247    0.9472    0.2853 C   0  0  0  0  0  0  0  0  0  0  0  0
    4.6527   -0.5047   -0.0804 C   0  0  0  0  0  0  0  0  0  0  0  0
   -4.6525   -0.5049    0.0801 C   0  0  0  0  0  0  0  0  0  0  0  0
    1.8386    0.8395    1.1597 H   0  0  0  0  0  0  0  0  0  0  0  0
   -1.8386    0.8405   -1.1588 H   0  0  0  0  0  0  0  0  0  0  0  0
    1.6065   -1.6416    1.1317 H   0  0  0  0  0  0  0  0  0  0  0  0
    2.1430   -1.7105   -0.5396 H   0  0  0  0  0  0  0  0  0  0  0  0
    2.7280    0.6335   -1.7656 H   0  0  0  0  0  0  0  0  0  0  0  0
    2.4806    2.1009   -0.8243 H   0  0  0  0  0  0  0  0  0  0  0  0
   -1.6061   -1.6408   -1.1328 H   0  0  0  0  0  0  0  0  0  0  0  0
   -2.1428   -1.7110    0.5384 H   0  0  0  0  0  0  0  0  0  0  0  0
   -2.4804    2.1003    0.8260 H   0  0  0  0  0  0  0  0  0  0  0  0
   -2.7280    0.6323    1.7663 H   0  0  0  0  0  0  0  0  0  0  0  0
    4.0059   -2.3013    0.9271 H   0  0  0  0  0  0  0  0  0  0  0  0
    3.7975   -0.8288    1.8725 H   0  0  0  0  0  0  0  0  0  0  0  0
    4.3445    1.4979    0.6569 H   0  0  0  0  0  0  0  0  0  0  0  0
    4.8824    1.4260   -1.0192 H   0  0  0  0  0  0  0  0  0  0  0  0
   -4.0056   -2.3006   -0.9290 H   0  0  0  0  0  0  0  0  0  0  0  0
   -3.7972   -0.8273   -1.8731 H   0  0  0  0  0  0  0  0  0  0  0  0
   -4.3443    1.4984   -0.6556 H   0  0  0  0  0  0  0  0  0  0  0  0
   -4.8821    1.4251    1.0205 H   0  0  0  0  0  0  0  0  0  0  0  0
    5.6724   -0.5354    0.3197 H   0  0  0  0  0  0  0  0  0  0  0  0
    4.6746   -1.0168   -1.0503 H   0  0  0  0  0  0  0  0  0  0  0  0
   -5.6722   -0.5352   -0.3202 H   0  0  0  0  0  0  0  0  0  0  0  0
   -4.6745   -1.0177    1.0496 H   0  0  0  0  0  0  0  0  0  0  0  0
  1  3  1  0  0  0  0
  2  4  1  0  0  0  0
  3  4  2  0  0  0  0
  3  5  1  0  0  0  0
  4  6  1  0  0  0  0
  5  7  1  0  0  0  0
  5  8  1  0  0  0  0
  5 17  1  0  0  0  0
  6  9  1  0  0  0  0
  6 10  1  0  0  0  0
  6 18  1  0  0  0  0
  7 11  1  0  0  0  0
  7 19  1  0  0  0  0
  7 20  1  0  0  0  0
  8 12  1  0  0  0  0
  8 21  1  0  0  0  0
  8 22  1  0  0  0  0
  9 13  1  0  0  0  0
  9 23  1  0  0  0  0
  9 24  1  0  0  0  0
 10 14  1  0  0  0  0
 10 25  1  0  0  0  0
 10 26  1  0  0  0  0
 11 15  1  0  0  0  0
 11 27  1  0  0  0  0
 11 28  1  0  0  0  0
 12 15  1  0  0  0  0
 12 29  1  0  0  0  0
 12 30  1  0  0  0  0
 13 16  1  0  0  0  0
 13 31  1  0  0  0  0
 13 32  1  0  0  0  0
 14 16  1  0  0  0  0
 14 33  1  0  0  0  0
 14 34  1  0  0  0  0
 15 35  1  0  0  0  0
 15 36  1  0  0  0  0
 16 37  1  0  0  0  0
 16 38  1  0  0  0  0
M  CHG  4   1  -1   2  -1   3   1   4   1
M  END
> <PUBCHEM_COMPOUND_CID>
135473712

> <PUBCHEM_CONFORMER_RMSD>
0.6

> <PUBCHEM_CONFORMER_DIVERSEORDER>
1
13
16
11
23
3
17
8
19
10
15
9
6
2
7
20
24
18
22
14
4
12
5
21

> <PUBCHEM_MMFF94_PARTIAL_CHARGES>
6
1 -0.63
2 -0.63
3 0.53
4 0.53
5 0.1
6 0.1

> <PUBCHEM_EFFECTIVE_ROTOR_COUNT>
4.4

> <PUBCHEM_PHARMACOPHORE_FEATURES>
4
1 1 anion
1 2 anion
6 5 7 8 11 12 15 rings
6 6 9 10 13 14 16 rings

> <PUBCHEM_HEAVY_ATOM_COUNT>
16

> <PUBCHEM_ATOM_DEF_STEREO_COUNT>
0

> <PUBCHEM_ATOM_UDEF_STEREO_COUNT>
0

> <PUBCHEM_BOND_DEF_STEREO_COUNT>
1

> <PUBCHEM_BOND_UDEF_STEREO_COUNT>
0

> <PUBCHEM_ISOTOPIC_ATOM_COUNT>
0

> <PUBCHEM_COMPONENT_COUNT>
1

> <PUBCHEM_CACTVS_TAUTO_COUNT>
-1

> <PUBCHEM_CONFORMER_ID>
08132A3000000001

> <PUBCHEM_MMFF94_ENERGY>
23.7293

> <PUBCHEM_FEATURE_SELFOVERLAP>
20.298

> <PUBCHEM_SHAPE_FINGERPRINT>
10465860 250 17632854218074466409
11132069 177 15482665801482245325
11471102 20 17748829622673160036
12107183 9 17690561888115773104
12236239 1 18410576184174706690
124424 183 17704066296613983715
12670546 56 18411412916871464413
13167823 11 18410855460128408647
13675066 3 17603873290753388405
13760787 19 18343021094558194295
14123238 8 18186802482605014971
14251717 144 18113615690521168930
14386348 63 16128661855248661455
15375358 24 16370725945900483488
15848702 151 17894911802174475639
17834072 33 18411419531458457076
18186145 218 16732982033155671561
19026448 5 18410856563934899776
19050596 39 18412544305714557584
19422 9 18410854360616735398
200 152 18335138699993537992
20279233 1 15791731905694915512
20281475 54 18410846664046098342
20645477 70 17603580794890739538
22485316 2 18410571786128202081
22646028 1 18410853261104964706
23402539 116 18260264135891046997
23402655 69 18187363194849047620
23557571 272 17202778007145119033
23559900 14 17488475091526441454
300161 21 18411130342372446516
42 15 18410293588211544775
4214541 1 18412262813811419041
474 4 17970070165327616972
4990 188 16370442250219998074
5104073 3 18411699897964302097
573450 72 18343579620943142699
633830 44 17022902328725299597
69090 78 17894349994566382250
77779 3 18410856559639802564
9981440 41 17179690766965082361

> <PUBCHEM_SHAPE_MULTIPOLES>
307.57
9.93
1.31
1.09
0
0.18
0
0.87
0
0
0
0
-0.04
-1.1

> <PUBCHEM_SHAPE_SELFOVERLAP>
619.422

> <PUBCHEM_SHAPE_VOLUME>
177.7

> <PUBCHEM_COORDINATE_TYPE>
2
5
10

$$$$
