12522353
  -OEChem-10312420422D

 25 29  0     1  0  0  0  0  0999 V2000
    2.3504    0.1751    0.0000 C   0  0  3  0  0  0  0  0  0  0  0  0
    2.7758   -0.4506    0.0000 C   0  0  3  0  0  0  0  0  0  0  0  0
    2.0000   -0.8261    0.0000 C   0  0  3  0  0  0  0  0  0  0  0  0
    2.4253   -1.3517    0.0000 C   0  0  3  0  0  0  0  0  0  0  0  0
    3.2514    0.6007    0.0000 C   0  0  3  0  0  0  0  0  0  0  0  0
    3.4766   -0.0251    0.0000 C   0  0  3  0  0  0  0  0  0  0  0  0
    4.0524    0.1252    0.0000 C   0  0  3  0  0  0  0  0  0  0  0  0
    4.2276   -0.6508    0.0000 C   0  0  3  0  0  0  0  0  0  0  0  0
    3.4516    1.4518    0.0000 C   0  0  0  0  0  0  0  0  0  0  0  0
    3.2264   -0.8511    0.0000 C   0  0  0  0  0  0  0  0  0  0  0  0
    3.5017   -1.4518    0.0000 C   0  0  0  0  0  0  0  0  0  0  0  0
    1.8897    0.5900    0.0000 H   0  0  0  0  0  0  0  0  0  0  0  0
    3.2508   -0.8491    0.0000 H   0  0  0  0  0  0  0  0  0  0  0  0
    1.3891   -0.9322    0.0000 H   0  0  0  0  0  0  0  0  0  0  0  0
    2.1327   -1.8983    0.0000 H   0  0  0  0  0  0  0  0  0  0  0  0
    2.7694    0.9907    0.0000 H   0  0  0  0  0  0  0  0  0  0  0  0
    2.9338    0.2744    0.0000 H   0  0  0  0  0  0  0  0  0  0  0  0
    4.5539    0.4897    0.0000 H   0  0  0  0  0  0  0  0  0  0  0  0
    4.8272   -0.8084    0.0000 H   0  0  0  0  0  0  0  0  0  0  0  0
    4.0078    1.7258    0.0000 H   0  0  0  0  0  0  0  0  0  0  0  0
    2.9664    1.8378    0.0000 H   0  0  0  0  0  0  0  0  0  0  0  0
    3.0744   -1.4521    0.0000 H   0  0  0  0  0  0  0  0  0  0  0  0
    3.7778   -1.1346    0.0000 H   0  0  0  0  0  0  0  0  0  0  0  0
    3.3142   -2.0428    0.0000 H   0  0  0  0  0  0  0  0  0  0  0  0
    4.0392   -1.7608    0.0000 H   0  0  0  0  0  0  0  0  0  0  0  0
  1  2  1  0  0  0  0
  1  3  1  0  0  0  0
  1  5  1  0  0  0  0
  1 12  1  0  0  0  0
  2  4  1  0  0  0  0
  2  6  1  0  0  0  0
  2 13  1  0  0  0  0
  3  4  1  0  0  0  0
  3 10  1  0  0  0  0
  3 14  1  0  0  0  0
  4 11  1  0  0  0  0
  4 15  1  0  0  0  0
  5  7  1  0  0  0  0
  5  9  1  0  0  0  0
  5 16  1  0  0  0  0
  6  8  1  0  0  0  0
  6  9  1  0  0  0  0
  6 17  1  0  0  0  0
  7  8  1  0  0  0  0
  7 10  1  0  0  0  0
  7 18  1  0  0  0  0
  8 11  1  0  0  0  0
  8 19  1  0  0  0  0
  9 20  1  0  0  0  0
  9 21  1  0  0  0  0
 10 22  1  0  0  0  0
 10 23  1  0  0  0  0
 11 24  1  0  0  0  0
 11 25  1  0  0  0  0
M  END
> <PUBCHEM_COMPOUND_CID>
12522353

> <PUBCHEM_COMPOUND_CANONICALIZED>
1

> <PUBCHEM_CACTVS_COMPLEXITY>
231

> <PUBCHEM_CACTVS_HBOND_ACCEPTOR>
0

> <PUBCHEM_CACTVS_HBOND_DONOR>
0

> <PUBCHEM_CACTVS_ROTATABLE_BOND>
0

> <PUBCHEM_CACTVS_SUBSKEYS>
AAADccBwAAAAAAAAAAAAAAAAAABgAYMGDAAwAAAAAAAAAAAAAAAAGAAAAAAADQCAAAAAAAAAAAAAAAAAAAAAAAAAAAAAAAAAAAAAAAIAAAAAAAAAAAAAAAEAgMAOgAAAAAAAAACAAAQAACAAAQAACAAAAA==

> <PUBCHEM_IUPAC_OPENEYE_NAME>
pentacyclo[5.4.0.02,6.03,10.05,9]undecane

> <PUBCHEM_IUPAC_CAS_NAME>
pentacyclo[5.4.0.02,6.03,10.05,9]undecane

> <PUBCHEM_IUPAC_NAME_MARKUP>
pentacyclo[5.4.0.0<SUP>2,6</SUP>.0<SUP>3,10</SUP>.0<SUP>5,9</SUP>]undecane

> <PUBCHEM_IUPAC_NAME>
pentacyclo[5.4.0.02,6.03,10.05,9]undecane

> <PUBCHEM_IUPAC_SYSTEMATIC_NAME>
pentacyclo[5.4.0.02,6.03,10.05,9]undecane

> <PUBCHEM_IUPAC_TRADITIONAL_NAME>
pentacyclo[5.4.0.02,6.03,10.05,9]undecane

> <PUBCHEM_IUPAC_INCHI>
InChI=1S/C11H14/c1-4-5-2-9-8(1)10-6(4)3-7(5)11(9)10/h4-11H,1-3H2

> <PUBCHEM_IUPAC_INCHIKEY>
SXGVYASPCBBKMF-UHFFFAOYSA-N

> <PUBCHEM_XLOGP3_AA>
2.8

> <PUBCHEM_EXACT_MASS>
146.109550447

> <PUBCHEM_MOLECULAR_FORMULA>
C11H14

> <PUBCHEM_MOLECULAR_WEIGHT>
146.23

> <PUBCHEM_OPENEYE_CAN_SMILES>
C1C2C3CC4C1C5C2CC3C45

> <PUBCHEM_OPENEYE_ISO_SMILES>
C1C2C3CC4C1C5C2CC3C45

> <PUBCHEM_CACTVS_TPSA>
0

> <PUBCHEM_MONOISOTOPIC_WEIGHT>
146.109550447

> <PUBCHEM_TOTAL_CHARGE>
0

> <PUBCHEM_HEAVY_ATOM_COUNT>
11

> <PUBCHEM_ATOM_DEF_STEREO_COUNT>
0

> <PUBCHEM_ATOM_UDEF_STEREO_COUNT>
8

> <PUBCHEM_BOND_DEF_STEREO_COUNT>
0

> <PUBCHEM_BOND_UDEF_STEREO_COUNT>
0

> <PUBCHEM_ISOTOPIC_ATOM_COUNT>
0

> <PUBCHEM_COMPONENT_COUNT>
1

> <PUBCHEM_CACTVS_TAUTO_COUNT>
-1

> <PUBCHEM_COORDINATE_TYPE>
1
5
255

> <PUBCHEM_BONDANNOTATIONS>
1  3  3
2  4  3
3  10  3
4  11  3
5  9  3
6  9  3
7  10  3
8  11  3

$$$$
