137694
  -OEChem-11012401043D

 15 16  0     1  0  0  0  0  0999 V2000
   -1.1736    0.6339    0.5413 N   0  0  0  0  0  0  0  0  0  0  0  0
   -1.1744   -0.6331    0.5409 N   0  0  0  0  0  0  0  0  0  0  0  0
   -0.0416    1.0732   -0.3152 C   0  0  2  0  0  0  0  0  0  0  0  0
   -0.0424   -1.0732   -0.3155 C   0  0  1  0  0  0  0  0  0  0  0  0
   -0.0572    0.0002   -1.3870 C   0  0  0  0  0  0  0  0  0  0  0  0
    1.2451    0.7692    0.4677 C   0  0  0  0  0  0  0  0  0  0  0  0
    1.2442   -0.7702    0.4680 C   0  0  0  0  0  0  0  0  0  0  0  0
   -0.1438    2.1025   -0.6625 H   0  0  0  0  0  0  0  0  0  0  0  0
   -0.1453   -2.1024   -0.6629 H   0  0  0  0  0  0  0  0  0  0  0  0
   -0.9799    0.0006   -1.9765 H   0  0  0  0  0  0  0  0  0  0  0  0
    0.8195   -0.0001   -2.0409 H   0  0  0  0  0  0  0  0  0  0  0  0
    1.2231    1.1746    1.4842 H   0  0  0  0  0  0  0  0  0  0  0  0
    2.1298    1.1533   -0.0511 H   0  0  0  0  0  0  0  0  0  0  0  0
    2.1287   -1.1555   -0.0501 H   0  0  0  0  0  0  0  0  0  0  0  0
    1.2211   -1.1752    1.4847 H   0  0  0  0  0  0  0  0  0  0  0  0
  1  2  2  0  0  0  0
  1  3  1  0  0  0  0
  2  4  1  0  0  0  0
  3  5  1  0  0  0  0
  3  6  1  0  0  0  0
  3  8  1  0  0  0  0
  4  5  1  0  0  0  0
  4  7  1  0  0  0  0
  4  9  1  0  0  0  0
  5 10  1  0  0  0  0
  5 11  1  0  0  0  0
  6  7  1  0  0  0  0
  6 12  1  0  0  0  0
  6 13  1  0  0  0  0
  7 14  1  0  0  0  0
  7 15  1  0  0  0  0
M  END
> <PUBCHEM_COMPOUND_CID>
137694

> <PUBCHEM_CONFORMER_RMSD>
0.4

> <PUBCHEM_CONFORMER_DIVERSEORDER>
1

> <PUBCHEM_MMFF94_PARTIAL_CHARGES>
4
1 -0.25
2 -0.25
3 0.25
4 0.25

> <PUBCHEM_EFFECTIVE_ROTOR_COUNT>
0.6

> <PUBCHEM_PHARMACOPHORE_FEATURES>
1
7 1 2 3 4 5 6 7 rings

> <PUBCHEM_HEAVY_ATOM_COUNT>
7

> <PUBCHEM_ATOM_DEF_STEREO_COUNT>
0

> <PUBCHEM_ATOM_UDEF_STEREO_COUNT>
2

> <PUBCHEM_BOND_DEF_STEREO_COUNT>
0

> <PUBCHEM_BOND_UDEF_STEREO_COUNT>
0

> <PUBCHEM_ISOTOPIC_ATOM_COUNT>
0

> <PUBCHEM_COMPONENT_COUNT>
1

> <PUBCHEM_CACTVS_TAUTO_COUNT>
1

> <PUBCHEM_CONFORMER_ID>
000219DE00000001

> <PUBCHEM_MMFF94_ENERGY>
19.1771

> <PUBCHEM_FEATURE_SELFOVERLAP>
5.074

> <PUBCHEM_SHAPE_FINGERPRINT>
137420 1 15430037660112192940
21040471 1 18269570475291176113
29004967 10 15792287240639756880
5943 1 16596801848651219556

> <PUBCHEM_SHAPE_MULTIPOLES>
134.09
1.39
1.22
1.04
0.27
0
0.29
0
-0.35
0.08
-0.02
-0.18
0
0

> <PUBCHEM_SHAPE_SELFOVERLAP>
286.051

> <PUBCHEM_SHAPE_VOLUME>
78.2

> <PUBCHEM_COORDINATE_TYPE>
2
5
10

$$$$
