5372855
  -OEChem-11012400433D

 22 22  0     0  0  0  0  0  0999 V2000
   -1.6938   -2.7502   -0.1708 O   0  5  0  0  0  0  0  0  0  0  0  0
    0.3242   -1.9950    0.2493 O   0  0  0  0  0  0  0  0  0  0  0  0
    3.6411    0.1228    1.0873 O   0  0  0  0  0  0  0  0  0  0  0  0
   -0.8955   -1.8063    0.0332 N   0  3  0  0  0  0  0  0  0  0  0  0
    4.1068    0.3140   -1.1575 N   0  0  0  0  0  0  0  0  0  0  0  0
   -0.5515    0.6192    0.2390 C   0  0  0  0  0  0  0  0  0  0  0  0
   -1.3919   -0.4720    0.0185 C   0  0  0  0  0  0  0  0  0  0  0  0
   -1.0697    1.9141    0.2180 C   0  0  0  0  0  0  0  0  0  0  0  0
   -2.7504   -0.2683   -0.2230 C   0  0  0  0  0  0  0  0  0  0  0  0
    0.8748    0.4514    0.4944 C   0  0  0  0  0  0  0  0  0  0  0  0
   -2.4284    2.1177   -0.0235 C   0  0  0  0  0  0  0  0  0  0  0  0
   -3.2687    1.0265   -0.2442 C   0  0  0  0  0  0  0  0  0  0  0  0
    1.8376    0.4480   -0.4512 C   0  0  0  0  0  0  0  0  0  0  0  0
    3.2653    0.2782   -0.0695 C   0  0  0  0  0  0  0  0  0  0  0  0
   -0.4298    2.7769    0.3885 H   0  0  0  0  0  0  0  0  0  0  0  0
   -3.4395   -1.0903   -0.3995 H   0  0  0  0  0  0  0  0  0  0  0  0
    1.1330    0.3422    1.5457 H   0  0  0  0  0  0  0  0  0  0  0  0
   -2.8321    3.1258   -0.0398 H   0  0  0  0  0  0  0  0  0  0  0  0
   -4.3266    1.1857   -0.4322 H   0  0  0  0  0  0  0  0  0  0  0  0
    1.5894    0.5667   -1.5013 H   0  0  0  0  0  0  0  0  0  0  0  0
    3.7752    0.4433   -2.1083 H   0  0  0  0  0  0  0  0  0  0  0  0
    5.1094    0.2099   -1.0406 H   0  0  0  0  0  0  0  0  0  0  0  0
  1  4  1  0  0  0  0
  2  4  2  0  0  0  0
  3 14  2  0  0  0  0
  4  7  1  0  0  0  0
  5 14  1  0  0  0  0
  5 21  1  0  0  0  0
  5 22  1  0  0  0  0
  6  7  1  0  0  0  0
  6  8  2  0  0  0  0
  6 10  1  0  0  0  0
  7  9  2  0  0  0  0
  8 11  1  0  0  0  0
  8 15  1  0  0  0  0
  9 12  1  0  0  0  0
  9 16  1  0  0  0  0
 10 13  2  0  0  0  0
 10 17  1  0  0  0  0
 11 12  2  0  0  0  0
 11 18  1  0  0  0  0
 12 19  1  0  0  0  0
 13 14  1  0  0  0  0
 13 20  1  0  0  0  0
M  CHG  2   1  -1   4   1
M  END
> <PUBCHEM_COMPOUND_CID>
5372855

> <PUBCHEM_CONFORMER_RMSD>
0.6

> <PUBCHEM_CONFORMER_DIVERSEORDER>
1
4
2
3

> <PUBCHEM_MMFF94_PARTIAL_CHARGES>
22
1 -0.52
10 -0.18
11 -0.15
12 -0.15
13 -0.14
14 0.62
15 0.15
16 0.15
17 0.15
18 0.15
19 0.15
2 -0.52
20 0.15
21 0.37
22 0.37
3 -0.57
4 0.91
5 -0.8
6 0.03
7 0.13
8 -0.15
9 -0.15

> <PUBCHEM_EFFECTIVE_ROTOR_COUNT>
3

> <PUBCHEM_PHARMACOPHORE_FEATURES>
6
1 1 acceptor
1 1 anion
1 2 acceptor
1 3 acceptor
1 5 donor
6 6 7 8 9 11 12 rings

> <PUBCHEM_HEAVY_ATOM_COUNT>
14

> <PUBCHEM_ATOM_DEF_STEREO_COUNT>
0

> <PUBCHEM_ATOM_UDEF_STEREO_COUNT>
0

> <PUBCHEM_BOND_DEF_STEREO_COUNT>
1

> <PUBCHEM_BOND_UDEF_STEREO_COUNT>
0

> <PUBCHEM_ISOTOPIC_ATOM_COUNT>
0

> <PUBCHEM_COMPONENT_COUNT>
1

> <PUBCHEM_CACTVS_TAUTO_COUNT>
2

> <PUBCHEM_CONFORMER_ID>
0051FBB700000001

> <PUBCHEM_MMFF94_ENERGY>
48.3136

> <PUBCHEM_FEATURE_SELFOVERLAP>
30.527

> <PUBCHEM_SHAPE_FINGERPRINT>
12500047 106 18412542090086510692
12716758 59 18341893004339330608
13024252 1 14129059222987558877
13380535 76 18340482270707092127
13862211 1 18339072800602438159
14325111 11 18338234860429156584
14614273 12 18117271467867965893
14993402 34 18259984868353628757
15279307 12 18187642475414026802
15669948 3 18336264634618750110
15775835 57 18040438767639049444
16945 1 18411698798605764705
17870717 6 18057349252659046342
18186145 218 18060139791215866080
193761 8 17834392702597594849
20279233 1 17917992785183533460
20510252 161 18272652333274845841
20524608 308 18343303686242336694
20645476 183 17895203224395748558
20645477 56 18410858767728233624
20871998 184 18200879603000632815
21524375 3 18188486857141200025
2334 1 17906731762689684193
23402539 116 18342162367571745669
23463225 33 18116707422533827514
23552423 10 17834671600699130577
23557571 272 18198626738462436312
23559900 14 18272652342814014416
2748010 2 18194128412848813199
305870 269 18118965793457571301
3071541 236 18334852831323513827
4175511 318 17894906326122880581
43471831 8 18336261228631024523
53812653 8 18408884001683682225
5706482 22 18339072705606268451
6333449 129 18413106160572910465
7364860 26 17838332973960864207
77492 1 17748819726836479576
81228 2 18194398012088008835
9709674 26 18272936024897610926

> <PUBCHEM_SHAPE_MULTIPOLES>
260.54
5.89
2.23
0.79
5.49
1.31
0.02
-1.73
0.82
-1.88
-0.02
0.56
-0.09
-0.13

> <PUBCHEM_SHAPE_SELFOVERLAP>
548.138

> <PUBCHEM_SHAPE_VOLUME>
146.2

> <PUBCHEM_COORDINATE_TYPE>
2
5
10

$$$$
