137727
  -OEChem-11012400563D

 12 11  0     0  0  0  0  0  0999 V2000
   -3.3489    0.0001   -0.0001 C   0  0  0  0  0  0  0  0  0  0  0  0
    3.3489    0.0001   -0.0001 C   0  0  0  0  0  0  0  0  0  0  0  0
   -1.8866    0.0000    0.0000 C   0  0  0  0  0  0  0  0  0  0  0  0
    1.8866   -0.0001    0.0001 C   0  0  0  0  0  0  0  0  0  0  0  0
   -0.6860   -0.0001    0.0001 C   0  0  0  0  0  0  0  0  0  0  0  0
    0.6861    0.0000    0.0001 C   0  0  0  0  0  0  0  0  0  0  0  0
   -3.7381   -0.8857   -0.5110 H   0  0  0  0  0  0  0  0  0  0  0  0
   -3.7382    0.0006    1.0224 H   0  0  0  0  0  0  0  0  0  0  0  0
   -3.7381    0.8854   -0.5119 H   0  0  0  0  0  0  0  0  0  0  0  0
    3.7379    0.3377   -0.9654 H   0  0  0  0  0  0  0  0  0  0  0  0
    3.7382   -1.0047    0.1900 H   0  0  0  0  0  0  0  0  0  0  0  0
    3.7382    0.6671    0.7749 H   0  0  0  0  0  0  0  0  0  0  0  0
  1  3  1  0  0  0  0
  1  7  1  0  0  0  0
  1  8  1  0  0  0  0
  1  9  1  0  0  0  0
  2  4  1  0  0  0  0
  2 10  1  0  0  0  0
  2 11  1  0  0  0  0
  2 12  1  0  0  0  0
  3  5  3  0  0  0  0
  4  6  3  0  0  0  0
  5  6  1  0  0  0  0
M  END
> <PUBCHEM_COMPOUND_CID>
137727

> <PUBCHEM_CONFORMER_RMSD>
0.4

> <PUBCHEM_CONFORMER_DIVERSEORDER>
1

> <PUBCHEM_MMFF94_PARTIAL_CHARGES>
4
1 0.2
2 0.2
3 -0.2
4 -0.2

> <PUBCHEM_EFFECTIVE_ROTOR_COUNT>
0

> <PUBCHEM_PHARMACOPHORE_FEATURES>
2
1 1 hydrophobe
1 2 hydrophobe

> <PUBCHEM_HEAVY_ATOM_COUNT>
6

> <PUBCHEM_ATOM_DEF_STEREO_COUNT>
0

> <PUBCHEM_ATOM_UDEF_STEREO_COUNT>
0

> <PUBCHEM_BOND_DEF_STEREO_COUNT>
0

> <PUBCHEM_BOND_UDEF_STEREO_COUNT>
0

> <PUBCHEM_ISOTOPIC_ATOM_COUNT>
0

> <PUBCHEM_COMPONENT_COUNT>
1

> <PUBCHEM_CACTVS_TAUTO_COUNT>
1

> <PUBCHEM_CONFORMER_ID>
000219FF00000001

> <PUBCHEM_MMFF94_ENERGY>
-0.0515

> <PUBCHEM_FEATURE_SELFOVERLAP>
10.149

> <PUBCHEM_SHAPE_FINGERPRINT>
11062470 55 9295288339385306695
14325111 11 9295289438870619173
14390081 3 9223231831990130375
5460574 1 18410855460128161798

> <PUBCHEM_SHAPE_MULTIPOLES>
123.48
5.7
0.62
0.62
0
0
0
0
0
0
0
0
0
0

> <PUBCHEM_SHAPE_SELFOVERLAP>
223.004

> <PUBCHEM_SHAPE_VOLUME>
76.4

> <PUBCHEM_COORDINATE_TYPE>
2
5
10

$$$$
