69823
  -OEChem-11012400473D

 40 39  0     0  0  0  0  0  0999 V2000
   -0.4623    0.6099    0.1574 C   0  0  0  0  0  0  0  0  0  0  0  0
   -1.6909   -0.1473   -0.3592 C   0  0  0  0  0  0  0  0  0  0  0  0
    0.8977    0.0931   -0.3222 C   0  0  0  0  0  0  0  0  0  0  0  0
   -3.0125    0.3814    0.2034 C   0  0  0  0  0  0  0  0  0  0  0  0
    2.0850    0.8492    0.2792 C   0  0  0  0  0  0  0  0  0  0  0  0
   -4.2399   -0.3779   -0.3113 C   0  0  0  0  0  0  0  0  0  0  0  0
    3.4093    0.3507   -0.3051 C   0  0  0  0  0  0  0  0  0  0  0  0
   -5.5610    0.1300    0.2705 C   0  0  0  0  0  0  0  0  0  0  0  0
    4.6372    1.0891    0.2433 C   0  0  0  0  0  0  0  0  0  0  0  0
   -6.7471   -0.6700   -0.2704 C   0  0  0  0  0  0  0  0  0  0  0  0
    5.9869    0.6100   -0.2956 C   0  0  0  0  0  0  0  0  0  0  0  0
   -8.0609   -0.1924    0.3279 C   0  0  0  0  0  0  0  0  0  0  0  0
    6.2637   -0.7909    0.0501 C   0  0  0  0  0  0  0  0  0  0  0  0
    6.4945   -1.9349    0.3321 C   0  0  0  0  0  0  0  0  0  0  0  0
   -0.5565    1.6662   -0.1250 H   0  0  0  0  0  0  0  0  0  0  0  0
   -0.4750    0.5826    1.2546 H   0  0  0  0  0  0  0  0  0  0  0  0
   -1.5896   -1.2087   -0.1014 H   0  0  0  0  0  0  0  0  0  0  0  0
   -1.7121   -0.0882   -1.4542 H   0  0  0  0  0  0  0  0  0  0  0  0
    0.9844   -0.9715   -0.0724 H   0  0  0  0  0  0  0  0  0  0  0  0
    0.9338    0.1649   -1.4163 H   0  0  0  0  0  0  0  0  0  0  0  0
   -3.1141    1.4433   -0.0519 H   0  0  0  0  0  0  0  0  0  0  0  0
   -2.9866    0.3202    1.2984 H   0  0  0  0  0  0  0  0  0  0  0  0
    2.0891    0.7237    1.3684 H   0  0  0  0  0  0  0  0  0  0  0  0
    1.9781    1.9214    0.0764 H   0  0  0  0  0  0  0  0  0  0  0  0
   -4.2732   -0.3025   -1.4053 H   0  0  0  0  0  0  0  0  0  0  0  0
   -4.1261   -1.4424   -0.0713 H   0  0  0  0  0  0  0  0  0  0  0  0
    3.3899    0.4608   -1.3966 H   0  0  0  0  0  0  0  0  0  0  0  0
    3.5005   -0.7221   -0.0974 H   0  0  0  0  0  0  0  0  0  0  0  0
   -5.6869    1.1911    0.0240 H   0  0  0  0  0  0  0  0  0  0  0  0
   -5.5315    0.0530    1.3641 H   0  0  0  0  0  0  0  0  0  0  0  0
    4.6383    1.0049    1.3380 H   0  0  0  0  0  0  0  0  0  0  0  0
    4.5349    2.1573    0.0142 H   0  0  0  0  0  0  0  0  0  0  0  0
   -6.6150   -1.7338   -0.0408 H   0  0  0  0  0  0  0  0  0  0  0  0
   -6.7925   -0.5765   -1.3616 H   0  0  0  0  0  0  0  0  0  0  0  0
    6.7798    1.2477    0.1121 H   0  0  0  0  0  0  0  0  0  0  0  0
    6.0095    0.7320   -1.3847 H   0  0  0  0  0  0  0  0  0  0  0  0
   -8.2393    0.8614    0.0910 H   0  0  0  0  0  0  0  0  0  0  0  0
   -8.0599   -0.3046    1.4168 H   0  0  0  0  0  0  0  0  0  0  0  0
   -8.8948   -0.7769   -0.0732 H   0  0  0  0  0  0  0  0  0  0  0  0
    6.6987   -2.9497    0.5823 H   0  0  0  0  0  0  0  0  0  0  0  0
  1  2  1  0  0  0  0
  1  3  1  0  0  0  0
  1 15  1  0  0  0  0
  1 16  1  0  0  0  0
  2  4  1  0  0  0  0
  2 17  1  0  0  0  0
  2 18  1  0  0  0  0
  3  5  1  0  0  0  0
  3 19  1  0  0  0  0
  3 20  1  0  0  0  0
  4  6  1  0  0  0  0
  4 21  1  0  0  0  0
  4 22  1  0  0  0  0
  5  7  1  0  0  0  0
  5 23  1  0  0  0  0
  5 24  1  0  0  0  0
  6  8  1  0  0  0  0
  6 25  1  0  0  0  0
  6 26  1  0  0  0  0
  7  9  1  0  0  0  0
  7 27  1  0  0  0  0
  7 28  1  0  0  0  0
  8 10  1  0  0  0  0
  8 29  1  0  0  0  0
  8 30  1  0  0  0  0
  9 11  1  0  0  0  0
  9 31  1  0  0  0  0
  9 32  1  0  0  0  0
 10 12  1  0  0  0  0
 10 33  1  0  0  0  0
 10 34  1  0  0  0  0
 11 13  1  0  0  0  0
 11 35  1  0  0  0  0
 11 36  1  0  0  0  0
 12 37  1  0  0  0  0
 12 38  1  0  0  0  0
 12 39  1  0  0  0  0
 13 14  3  0  0  0  0
 14 40  1  0  0  0  0
M  END
> <PUBCHEM_COMPOUND_CID>
69823

> <PUBCHEM_CONFORMER_RMSD>
1

> <PUBCHEM_CONFORMER_DIVERSEORDER>
1
863
678
28
635
263
741
5
526
84
3
700
328
869
231
19
311
40
41
693
600
44
9
739
345
79
775
37
904
431
287
714
125
326
489
638
180
23
257
354
412
164
829
171
145
126
51
39
472
822
198
223
36
189
662
883
598
25
729
453
225
627
529
209
155
165
330
799
152
726
845
528
172
846
4
62
682
710
27
157
722
284
91
170
864
621
222
675
220
48
368
809
12
451
853
383
719
513
677
432
38
7
861
490
898
252
24
533
281
880
723
428
435
483
556
10
746
419
391
50
195
181
179
211
26
58
786
290
86
236
452
521
11
613
691
698
217
519
709
53
430
421
93
685
615
323
454
862
230
55
525
389
303
696
536
193
404
374
385
666
522
643
148
531
582
32
218
70
607
346
634
142
808
738
67
885
267
338
503
679
750
49
540
599
496
105
411
471
514
120
659
176
771
247
390
625
903
401
80
460
66
742
553
639
291
235
575

> <PUBCHEM_MMFF94_PARTIAL_CHARGES>
4
11 0.2
13 -0.2
14 -0.18
40 0.18

> <PUBCHEM_EFFECTIVE_ROTOR_COUNT>
10

> <PUBCHEM_PHARMACOPHORE_FEATURES>
2
1 12 hydrophobe
1 14 hydrophobe

> <PUBCHEM_HEAVY_ATOM_COUNT>
14

> <PUBCHEM_ATOM_DEF_STEREO_COUNT>
0

> <PUBCHEM_ATOM_UDEF_STEREO_COUNT>
0

> <PUBCHEM_BOND_DEF_STEREO_COUNT>
0

> <PUBCHEM_BOND_UDEF_STEREO_COUNT>
0

> <PUBCHEM_ISOTOPIC_ATOM_COUNT>
0

> <PUBCHEM_COMPONENT_COUNT>
1

> <PUBCHEM_CACTVS_TAUTO_COUNT>
1

> <PUBCHEM_CONFORMER_ID>
000110BF00000001

> <PUBCHEM_MMFF94_ENERGY>
-2.1735

> <PUBCHEM_FEATURE_SELFOVERLAP>
10.149

> <PUBCHEM_SHAPE_FINGERPRINT>
10968037 39 11314307252995032825
12091667 2 17967531290664036717
125118 31 12535633781779994498
13533116 47 18412823573990798762
14123256 10 13334735734797763806
1420 363 17530685411346113880
14251764 18 18202847651784235777
14251764 46 18410292523059661881
14729087 3 13901915484298583107
15716309 27 18342175579323398255
17834076 25 18343865532884866037
20281389 69 18060419127156516609
20397935 70 17418098672886103134
20621476 38 18410011005661208194
20621476 8 17967811627131652637
20735858 18 16917349229496235326
21150785 3 12468359050659003043
21315763 28 18412544332333973081
22224240 67 13326853331749090501
23035841 295 18273495684942824471
23402539 116 17275381023532877021
23521765 1 18341896307607024461
246663 6 18113340799270361146
28498 318 18335699421233446687
328311 84 18040719168937096811
33532 11 18334574633359728003
33684 2 18409729568832482700
42788 4 18273215317756621677
59755656 215 17168141217632196898
59755656 520 18410005572765235343
6438161 24 17458616780265901674
8209 1 18408323302045301573

> <PUBCHEM_SHAPE_MULTIPOLES>
288.11
23.98
1.19
0.69
16.28
0.4
0
7.29
1.47
-2.37
0.11
0.03
0.01
-0.42

> <PUBCHEM_SHAPE_SELFOVERLAP>
515.419

> <PUBCHEM_SHAPE_VOLUME>
185.9

> <PUBCHEM_COORDINATE_TYPE>
2
5
10

$$$$
