15046937
  -OEChem-11012401173D

 67 66  0     0  0  0  0  0  0999 V2000
    0.0062    0.5525   -1.4857 Si  0  0  0  0  0  0  0  0  0  0  0  0
   -4.5038    0.0764    0.7284 O   0  0  0  0  0  0  0  0  0  0  0  0
    4.4643   -0.4957    0.5540 O   0  0  0  0  0  0  0  0  0  0  0  0
   -4.5701   -1.2819    0.2086 O   0  0  0  0  0  0  0  0  0  0  0  0
    4.6168    0.9242    0.8364 O   0  0  0  0  0  0  0  0  0  0  0  0
   -5.7625    0.6559    0.4176 C   0  0  0  0  0  0  0  0  0  0  0  0
    5.7033   -0.8899   -0.0392 C   0  0  0  0  0  0  0  0  0  0  0  0
   -5.9450    0.6934   -1.1126 C   0  0  0  0  0  0  0  0  0  0  0  0
    5.9099   -0.1151   -1.3558 C   0  0  0  0  0  0  0  0  0  0  0  0
   -6.8364   -0.1833    1.1115 C   0  0  0  0  0  0  0  0  0  0  0  0
   -5.7769    2.0809    0.9803 C   0  0  0  0  0  0  0  0  0  0  0  0
    6.8083   -0.6102    0.9804 C   0  0  0  0  0  0  0  0  0  0  0  0
    5.6318   -2.3936   -0.3240 C   0  0  0  0  0  0  0  0  0  0  0  0
   -3.3031   -1.8615    0.5227 C   0  0  0  0  0  0  0  0  0  0  0  0
    3.3872    1.3205    1.4264 C   0  0  0  0  0  0  0  0  0  0  0  0
   -4.8991    1.5180   -1.8543 C   0  0  0  0  0  0  0  0  0  0  0  0
    4.8345   -0.3586   -2.4084 C   0  0  0  0  0  0  0  0  0  0  0  0
   -3.1288   -1.8549    2.0411 C   0  0  0  0  0  0  0  0  0  0  0  0
   -3.3120   -3.2935   -0.0089 C   0  0  0  0  0  0  0  0  0  0  0  0
    3.1840    0.5183    2.7114 C   0  0  0  0  0  0  0  0  0  0  0  0
    3.4905    2.8126    1.7373 C   0  0  0  0  0  0  0  0  0  0  0  0
   -2.2339   -1.0826   -0.1258 C   0  0  0  0  0  0  0  0  0  0  0  0
    2.2866    1.0713    0.4792 C   0  0  0  0  0  0  0  0  0  0  0  0
    0.6370   -0.4080   -2.9799 C   0  0  0  0  0  0  0  0  0  0  0  0
   -0.7161    2.1842   -2.0927 C   0  0  0  0  0  0  0  0  0  0  0  0
   -1.3634   -0.4468   -0.6547 C   0  0  0  0  0  0  0  0  0  0  0  0
    1.3905    0.8672   -0.2934 C   0  0  0  0  0  0  0  0  0  0  0  0
   -6.9369    1.0980   -1.3512 H   0  0  0  0  0  0  0  0  0  0  0  0
   -5.9252   -0.3214   -1.5281 H   0  0  0  0  0  0  0  0  0  0  0  0
    6.8831   -0.3827   -1.7872 H   0  0  0  0  0  0  0  0  0  0  0  0
    5.9508    0.9641   -1.1648 H   0  0  0  0  0  0  0  0  0  0  0  0
   -6.6008   -0.3255    2.1726 H   0  0  0  0  0  0  0  0  0  0  0  0
   -6.9329   -1.1824    0.6723 H   0  0  0  0  0  0  0  0  0  0  0  0
   -7.8184    0.2968    1.0377 H   0  0  0  0  0  0  0  0  0  0  0  0
   -4.9029    2.6550    0.6548 H   0  0  0  0  0  0  0  0  0  0  0  0
   -5.7213    2.0600    2.0754 H   0  0  0  0  0  0  0  0  0  0  0  0
   -6.6857    2.6212    0.6963 H   0  0  0  0  0  0  0  0  0  0  0  0
    6.5623   -1.0440    1.9565 H   0  0  0  0  0  0  0  0  0  0  0  0
    6.9646    0.4622    1.1413 H   0  0  0  0  0  0  0  0  0  0  0  0
    7.7648   -1.0287    0.6481 H   0  0  0  0  0  0  0  0  0  0  0  0
    4.7341   -2.6567   -0.8934 H   0  0  0  0  0  0  0  0  0  0  0  0
    5.5583   -2.9570    0.6140 H   0  0  0  0  0  0  0  0  0  0  0  0
    6.5152   -2.7476   -0.8651 H   0  0  0  0  0  0  0  0  0  0  0  0
   -4.9861    2.5838   -1.6243 H   0  0  0  0  0  0  0  0  0  0  0  0
   -3.8844    1.1909   -1.6145 H   0  0  0  0  0  0  0  0  0  0  0  0
   -5.0385    1.4080   -2.9349 H   0  0  0  0  0  0  0  0  0  0  0  0
    4.8614   -1.3853   -2.7844 H   0  0  0  0  0  0  0  0  0  0  0  0
    3.8345   -0.1564   -2.0167 H   0  0  0  0  0  0  0  0  0  0  0  0
    4.9976    0.3039   -3.2649 H   0  0  0  0  0  0  0  0  0  0  0  0
   -3.9882   -2.3236    2.5344 H   0  0  0  0  0  0  0  0  0  0  0  0
   -2.2232   -2.3954    2.3401 H   0  0  0  0  0  0  0  0  0  0  0  0
   -3.0448   -0.8412    2.4504 H   0  0  0  0  0  0  0  0  0  0  0  0
   -3.4840   -3.3088   -1.0921 H   0  0  0  0  0  0  0  0  0  0  0  0
   -4.1262   -3.8724    0.4423 H   0  0  0  0  0  0  0  0  0  0  0  0
   -2.3663   -3.8094    0.1911 H   0  0  0  0  0  0  0  0  0  0  0  0
    4.0601    0.6001    3.3651 H   0  0  0  0  0  0  0  0  0  0  0  0
    2.3066    0.8711    3.2660 H   0  0  0  0  0  0  0  0  0  0  0  0
    3.0316   -0.5505    2.5207 H   0  0  0  0  0  0  0  0  0  0  0  0
    3.6836    3.3910    0.8256 H   0  0  0  0  0  0  0  0  0  0  0  0
    4.3283    3.0132    2.4150 H   0  0  0  0  0  0  0  0  0  0  0  0
    2.5732    3.1988    2.1953 H   0  0  0  0  0  0  0  0  0  0  0  0
    1.4152    0.1592   -3.4994 H   0  0  0  0  0  0  0  0  0  0  0  0
    1.0598   -1.3683   -2.6699 H   0  0  0  0  0  0  0  0  0  0  0  0
   -0.1773   -0.6004   -3.6847 H   0  0  0  0  0  0  0  0  0  0  0  0
    0.0545    2.7857   -2.5839 H   0  0  0  0  0  0  0  0  0  0  0  0
   -1.5214    2.0040   -2.8109 H   0  0  0  0  0  0  0  0  0  0  0  0
   -1.1228    2.7603   -1.2563 H   0  0  0  0  0  0  0  0  0  0  0  0
  1 24  1  0  0  0  0
  1 25  1  0  0  0  0
  1 26  1  0  0  0  0
  1 27  1  0  0  0  0
  2  4  1  0  0  0  0
  2  6  1  0  0  0  0
  3  5  1  0  0  0  0
  3  7  1  0  0  0  0
  4 14  1  0  0  0  0
  5 15  1  0  0  0  0
  6  8  1  0  0  0  0
  6 10  1  0  0  0  0
  6 11  1  0  0  0  0
  7  9  1  0  0  0  0
  7 12  1  0  0  0  0
  7 13  1  0  0  0  0
  8 16  1  0  0  0  0
  8 28  1  0  0  0  0
  8 29  1  0  0  0  0
  9 17  1  0  0  0  0
  9 30  1  0  0  0  0
  9 31  1  0  0  0  0
 10 32  1  0  0  0  0
 10 33  1  0  0  0  0
 10 34  1  0  0  0  0
 11 35  1  0  0  0  0
 11 36  1  0  0  0  0
 11 37  1  0  0  0  0
 12 38  1  0  0  0  0
 12 39  1  0  0  0  0
 12 40  1  0  0  0  0
 13 41  1  0  0  0  0
 13 42  1  0  0  0  0
 13 43  1  0  0  0  0
 14 18  1  0  0  0  0
 14 19  1  0  0  0  0
 14 22  1  0  0  0  0
 15 20  1  0  0  0  0
 15 21  1  0  0  0  0
 15 23  1  0  0  0  0
 16 44  1  0  0  0  0
 16 45  1  0  0  0  0
 16 46  1  0  0  0  0
 17 47  1  0  0  0  0
 17 48  1  0  0  0  0
 17 49  1  0  0  0  0
 18 50  1  0  0  0  0
 18 51  1  0  0  0  0
 18 52  1  0  0  0  0
 19 53  1  0  0  0  0
 19 54  1  0  0  0  0
 19 55  1  0  0  0  0
 20 56  1  0  0  0  0
 20 57  1  0  0  0  0
 20 58  1  0  0  0  0
 21 59  1  0  0  0  0
 21 60  1  0  0  0  0
 21 61  1  0  0  0  0
 22 26  3  0  0  0  0
 23 27  3  0  0  0  0
 24 62  1  0  0  0  0
 24 63  1  0  0  0  0
 24 64  1  0  0  0  0
 25 65  1  0  0  0  0
 25 66  1  0  0  0  0
 25 67  1  0  0  0  0
M  END
> <PUBCHEM_COMPOUND_CID>
15046937

> <PUBCHEM_CONFORMER_RMSD>
0.8

> <PUBCHEM_CONFORMER_DIVERSEORDER>
22
81
24
38
74
1
53
29
9
4
27
36
76
16
52
58
60
31
5
46
48
40
69
47
61
20
54
78
10
75
44
6
45
50
80
21
49
23
71
55
64
17
35
66
67
26
2
73
33
79
7
70
12
77
62
18
57
56
43
11
59
14
34
28
63
65
41
68
39
37
51
30
72
25
3
19
8
32
42
13
15

> <PUBCHEM_MMFF94_PARTIAL_CHARGES>
15
1 0.75
14 0.48
15 0.48
2 -0.28
22 -0.2
23 -0.2
24 -0.08
25 -0.08
26 -0.29
27 -0.29
3 -0.28
4 -0.28
5 -0.28
6 0.28
7 0.28

> <PUBCHEM_EFFECTIVE_ROTOR_COUNT>
8

> <PUBCHEM_PHARMACOPHORE_FEATURES>
6
1 16 hydrophobe
1 17 hydrophobe
3 14 18 19 hydrophobe
3 15 20 21 hydrophobe
3 6 10 11 hydrophobe
3 7 12 13 hydrophobe

> <PUBCHEM_HEAVY_ATOM_COUNT>
27

> <PUBCHEM_ATOM_DEF_STEREO_COUNT>
0

> <PUBCHEM_ATOM_UDEF_STEREO_COUNT>
0

> <PUBCHEM_BOND_DEF_STEREO_COUNT>
0

> <PUBCHEM_BOND_UDEF_STEREO_COUNT>
0

> <PUBCHEM_ISOTOPIC_ATOM_COUNT>
0

> <PUBCHEM_COMPONENT_COUNT>
1

> <PUBCHEM_CACTVS_TAUTO_COUNT>
1

> <PUBCHEM_CONFORMER_ID>
00E5991900000016

> <PUBCHEM_MMFF94_ENERGY>
44.4317

> <PUBCHEM_FEATURE_SELFOVERLAP>
30.454

> <PUBCHEM_SHAPE_FINGERPRINT>
10319926 262 18341336677563291195
10674148 151 18113338592537983786
10692045 39 18272097067524208531
10764073 3 18271810051448732437
11089746 13 17846493733982520249
11370993 144 18342731961702280688
11545043 162 18341899644406490035
12128747 34 18341896225443379199
12553582 1 16515953860965238650
12788726 201 17313658252789737373
13914758 101 17203613644993558891
14251758 9 18342738524401610093
14840074 17 16732986431228783835
14856354 85 15936700311158529995
14932701 244 8070035488379316063
15001296 14 16806178790033260052
15142383 8 18202280291384925768
15183329 4 18343302543791475307
15328829 1 16515976881974453133
15537594 2 16370719344277391267
173720 79 13758071896257481356
1813 80 16153420640966427479
20429585 67 13334737942184224454
21223535 225 17844814677318468433
21591331 117 17168144542042073516
22849341 161 17240771696152031261
23559900 14 18342176699740488232
2838139 119 17132109139796399409
3117164 225 18271524290115550781
4325135 7 7925910378638336315
59755656 215 18411698742729102214
6371009 1 14549020987276719587
6394761 36 18343303626107292413
7226269 152 18334859386108505589
77296 10 16343415185231296821
8509985 295 15769777970541003898

> <PUBCHEM_SHAPE_MULTIPOLES>
550.38
18.61
2.62
2.55
0.76
0.75
0.55
3.08
2.74
2.44
-0.55
-2.73
-0.79
0.48

> <PUBCHEM_SHAPE_SELFOVERLAP>
1039.941

> <PUBCHEM_SHAPE_VOLUME>
347.7

> <PUBCHEM_COORDINATE_TYPE>
2
5
10

$$$$
