139922
  -OEChem-11012400403D

 34 34  0     0  0  0  0  0  0999 V2000
    0.0000    3.2901    0.0001 O   0  0  0  0  0  0  0  0  0  0  0  0
   -1.2080   -0.1633   -0.0006 C   0  0  0  0  0  0  0  0  0  0  0  0
    1.2080   -0.1633   -0.0001 C   0  0  0  0  0  0  0  0  0  0  0  0
   -2.5151   -0.8862    0.0000 C   0  0  0  0  0  0  0  0  0  0  0  0
    2.5151   -0.8863   -0.0001 C   0  0  0  0  0  0  0  0  0  0  0  0
   -0.0001   -0.8607   -0.0006 C   0  0  0  0  0  0  0  0  0  0  0  0
   -1.2079    1.2315   -0.0003 C   0  0  0  0  0  0  0  0  0  0  0  0
    1.2082    1.2316    0.0004 C   0  0  0  0  0  0  0  0  0  0  0  0
   -3.3492   -0.5909   -1.2600 C   0  0  0  0  0  0  0  0  0  0  0  0
   -3.3478   -0.5918    1.2609 C   0  0  0  0  0  0  0  0  0  0  0  0
    3.3482   -0.5917    1.2605 C   0  0  0  0  0  0  0  0  0  0  0  0
    3.3487   -0.5913   -1.2604 C   0  0  0  0  0  0  0  0  0  0  0  0
   -0.0002   -2.3565   -0.0002 C   0  0  0  0  0  0  0  0  0  0  0  0
    0.0001    1.9291    0.0003 C   0  0  0  0  0  0  0  0  0  0  0  0
   -2.4043   -1.9693   -0.0260 H   0  0  0  0  0  0  0  0  0  0  0  0
    2.4044   -1.9694   -0.0258 H   0  0  0  0  0  0  0  0  0  0  0  0
   -2.1428    1.7861   -0.0003 H   0  0  0  0  0  0  0  0  0  0  0  0
    2.1392    1.7926    0.0007 H   0  0  0  0  0  0  0  0  0  0  0  0
   -2.7801   -0.8239   -2.1670 H   0  0  0  0  0  0  0  0  0  0  0  0
   -4.2605   -1.1991   -1.2704 H   0  0  0  0  0  0  0  0  0  0  0  0
   -3.6535    0.4598   -1.3153 H   0  0  0  0  0  0  0  0  0  0  0  0
   -3.6481    0.4597    1.3206 H   0  0  0  0  0  0  0  0  0  0  0  0
   -4.2612   -1.1968    1.2685 H   0  0  0  0  0  0  0  0  0  0  0  0
   -2.7793   -0.8321    2.1663 H   0  0  0  0  0  0  0  0  0  0  0  0
    3.6482    0.4599    1.3200 H   0  0  0  0  0  0  0  0  0  0  0  0
    4.2618   -1.1966    1.2678 H   0  0  0  0  0  0  0  0  0  0  0  0
    2.7802   -0.8321    2.1661 H   0  0  0  0  0  0  0  0  0  0  0  0
    2.7793   -0.8247   -2.1671 H   0  0  0  0  0  0  0  0  0  0  0  0
    4.2603   -1.1991   -1.2708 H   0  0  0  0  0  0  0  0  0  0  0  0
    3.6526    0.4596   -1.3160 H   0  0  0  0  0  0  0  0  0  0  0  0
    0.8361   -2.7922    0.5505 H   0  0  0  0  0  0  0  0  0  0  0  0
   -0.8358   -2.7917    0.5521 H   0  0  0  0  0  0  0  0  0  0  0  0
   -0.0012   -2.7419   -1.0241 H   0  0  0  0  0  0  0  0  0  0  0  0
   -0.9198    3.6060   -0.0001 H   0  0  0  0  0  0  0  0  0  0  0  0
  1 14  1  0  0  0  0
  1 34  1  0  0  0  0
  2  4  1  0  0  0  0
  2  6  2  0  0  0  0
  2  7  1  0  0  0  0
  3  5  1  0  0  0  0
  3  6  1  0  0  0  0
  3  8  2  0  0  0  0
  4  9  1  0  0  0  0
  4 10  1  0  0  0  0
  4 15  1  0  0  0  0
  5 11  1  0  0  0  0
  5 12  1  0  0  0  0
  5 16  1  0  0  0  0
  6 13  1  0  0  0  0
  7 14  2  0  0  0  0
  7 17  1  0  0  0  0
  8 14  1  0  0  0  0
  8 18  1  0  0  0  0
  9 19  1  0  0  0  0
  9 20  1  0  0  0  0
  9 21  1  0  0  0  0
 10 22  1  0  0  0  0
 10 23  1  0  0  0  0
 10 24  1  0  0  0  0
 11 25  1  0  0  0  0
 11 26  1  0  0  0  0
 11 27  1  0  0  0  0
 12 28  1  0  0  0  0
 12 29  1  0  0  0  0
 12 30  1  0  0  0  0
 13 31  1  0  0  0  0
 13 32  1  0  0  0  0
 13 33  1  0  0  0  0
M  END
> <PUBCHEM_COMPOUND_CID>
139922

> <PUBCHEM_CONFORMER_RMSD>
0.6

> <PUBCHEM_CONFORMER_DIVERSEORDER>
1

> <PUBCHEM_MMFF94_PARTIAL_CHARGES>
13
1 -0.53
13 0.14
14 0.08
17 0.15
18 0.15
2 -0.14
3 -0.14
34 0.45
4 0.14
5 0.14
6 -0.14
7 -0.15
8 -0.15

> <PUBCHEM_EFFECTIVE_ROTOR_COUNT>
2

> <PUBCHEM_PHARMACOPHORE_FEATURES>
4
1 1 donor
3 4 9 10 hydrophobe
3 5 11 12 hydrophobe
6 2 3 6 7 8 14 rings

> <PUBCHEM_HEAVY_ATOM_COUNT>
14

> <PUBCHEM_ATOM_DEF_STEREO_COUNT>
0

> <PUBCHEM_ATOM_UDEF_STEREO_COUNT>
0

> <PUBCHEM_BOND_DEF_STEREO_COUNT>
0

> <PUBCHEM_BOND_UDEF_STEREO_COUNT>
0

> <PUBCHEM_ISOTOPIC_ATOM_COUNT>
0

> <PUBCHEM_COMPONENT_COUNT>
1

> <PUBCHEM_CACTVS_TAUTO_COUNT>
10

> <PUBCHEM_CONFORMER_ID>
0002229200000001

> <PUBCHEM_MMFF94_ENERGY>
43.9463

> <PUBCHEM_FEATURE_SELFOVERLAP>
20.297

> <PUBCHEM_SHAPE_FINGERPRINT>
10130415 120 18260828211046616243
10353120 184 18337401469190718022
11132069 177 18201996603692935994
11206711 2 18336264539802552349
12032990 46 18410582785539849891
12524768 44 18270679899830110734
12553582 1 18410860961981703206
13140716 1 18410573942202447728
13172582 1 18413390959769951283
13380535 21 17837507253497066898
14181834 199 18120920969813225940
14289901 80 15697708306959697767
14614273 12 17972029245528221365
14993402 34 18412545443902321454
15848700 24 18343294877264230831
16945 1 18410855464423453895
19010151 120 18271511070559836535
193761 8 17690280834104086894
19765921 60 17315935531039804764
20339313 130 18340781432385274129
20361792 2 18413388752261970453
20510252 161 18270399391484838128
20645476 183 17458635557108837374
20645477 70 18195519531677335983
20871998 184 18198905820683186892
21061003 4 18408895044266146379
21130352 189 18337101371325378585
21524375 3 17185312041467585849
22802520 49 17842003178382071478
228727 97 18041863747841189628
2334 1 18410575119039187217
23402539 116 18270946995367298774
23419403 2 17833783409694258020
23559900 14 18270115683557831958
2748010 2 18410564093842268756
449060 23 17988650670216397351
53812654 25 18339350959452679862
589210 1 17690279730213284175
63268167 104 18268145547103085345
7364860 26 17983019139268349208
81228 2 18193840340449414744

> <PUBCHEM_SHAPE_MULTIPOLES>
282.24
5.23
2.34
1.07
0
1.78
0
-2.23
0
0
0
0
-0.26
0

> <PUBCHEM_SHAPE_SELFOVERLAP>
575.073

> <PUBCHEM_SHAPE_VOLUME>
166.8

> <PUBCHEM_COORDINATE_TYPE>
2
5
10

$$$$
