32205
  -OEChem-11012400533D

 19 19  0     1  0  0  0  0  0999 V2000
    1.1188    1.7707   -0.1706 O   0  0  0  0  0  0  0  0  0  0  0  0
    0.5404   -0.5820   -0.3303 C   0  0  2  0  0  0  0  0  0  0  0  0
    0.2780    0.7590    0.3500 C   0  0  2  0  0  0  0  0  0  0  0  0
   -0.7185   -1.3736    0.0133 C   0  0  0  0  0  0  0  0  0  0  0  0
   -1.1871    1.0287    0.0279 C   0  0  0  0  0  0  0  0  0  0  0  0
   -1.8509   -0.3469   -0.0314 C   0  0  0  0  0  0  0  0  0  0  0  0
    1.8194   -1.2560    0.1410 C   0  0  0  0  0  0  0  0  0  0  0  0
    0.6079   -0.4397   -1.4174 H   0  0  0  0  0  0  0  0  0  0  0  0
    0.4307    0.6913    1.4340 H   0  0  0  0  0  0  0  0  0  0  0  0
   -0.6500   -1.7988    1.0223 H   0  0  0  0  0  0  0  0  0  0  0  0
   -0.8894   -2.2003   -0.6834 H   0  0  0  0  0  0  0  0  0  0  0  0
   -1.2886    1.5436   -0.9353 H   0  0  0  0  0  0  0  0  0  0  0  0
   -1.6511    1.6748    0.7805 H   0  0  0  0  0  0  0  0  0  0  0  0
   -2.4315   -0.4456   -0.9552 H   0  0  0  0  0  0  0  0  0  0  0  0
   -2.5405   -0.4953    0.8063 H   0  0  0  0  0  0  0  0  0  0  0  0
    1.9393   -2.2326   -0.3392 H   0  0  0  0  0  0  0  0  0  0  0  0
    2.6940   -0.6462   -0.1078 H   0  0  0  0  0  0  0  0  0  0  0  0
    1.8149   -1.4117    1.2251 H   0  0  0  0  0  0  0  0  0  0  0  0
    0.8431    2.6129    0.2297 H   0  0  0  0  0  0  0  0  0  0  0  0
  1  3  1  0  0  0  0
  1 19  1  0  0  0  0
  2  3  1  0  0  0  0
  2  4  1  0  0  0  0
  2  7  1  0  0  0  0
  2  8  1  0  0  0  0
  3  5  1  0  0  0  0
  3  9  1  0  0  0  0
  4  6  1  0  0  0  0
  4 10  1  0  0  0  0
  4 11  1  0  0  0  0
  5  6  1  0  0  0  0
  5 12  1  0  0  0  0
  5 13  1  0  0  0  0
  6 14  1  0  0  0  0
  6 15  1  0  0  0  0
  7 16  1  0  0  0  0
  7 17  1  0  0  0  0
  7 18  1  0  0  0  0
M  END
> <PUBCHEM_COMPOUND_CID>
32205

> <PUBCHEM_CONFORMER_RMSD>
0.4

> <PUBCHEM_CONFORMER_DIVERSEORDER>
1
3
5
8
4
2
6
7

> <PUBCHEM_MMFF94_PARTIAL_CHARGES>
3
1 -0.68
19 0.4
3 0.28

> <PUBCHEM_EFFECTIVE_ROTOR_COUNT>
1

> <PUBCHEM_PHARMACOPHORE_FEATURES>
3
1 1 acceptor
1 1 donor
5 2 3 4 5 6 rings

> <PUBCHEM_HEAVY_ATOM_COUNT>
7

> <PUBCHEM_ATOM_DEF_STEREO_COUNT>
0

> <PUBCHEM_ATOM_UDEF_STEREO_COUNT>
2

> <PUBCHEM_BOND_DEF_STEREO_COUNT>
0

> <PUBCHEM_BOND_UDEF_STEREO_COUNT>
0

> <PUBCHEM_ISOTOPIC_ATOM_COUNT>
0

> <PUBCHEM_COMPONENT_COUNT>
1

> <PUBCHEM_CACTVS_TAUTO_COUNT>
1

> <PUBCHEM_CONFORMER_ID>
00007DCD00000001

> <PUBCHEM_MMFF94_ENERGY>
11.8229

> <PUBCHEM_FEATURE_SELFOVERLAP>
15.223

> <PUBCHEM_SHAPE_FINGERPRINT>
16714656 1 17979921510085907566
18185500 45 18192714449148116450
20096714 4 18267870660305480917
21040471 1 17835800081369680161
23552423 10 18263083386778462078
29004967 10 18265059032921790883

> <PUBCHEM_SHAPE_MULTIPOLES>
138.19
2.1
1.74
0.64
0.34
0.51
0.01
-0.5
0.05
0.12
-0.04
0.01
-0.01
-0.05

> <PUBCHEM_SHAPE_SELFOVERLAP>
266.62

> <PUBCHEM_SHAPE_VOLUME>
86.9

> <PUBCHEM_COORDINATE_TYPE>
2
5
10

$$$$
