140422
  -OEChem-11012400383D

 28 28  0     0  0  0  0  0  0999 V2000
    1.0117   -2.2350   -1.1407 S   0  0  0  0  0  0  0  0  0  0  0  0
    1.6285    0.2144   -0.0150 N   0  0  0  0  0  0  0  0  0  0  0  0
    1.3217    1.4928    0.6307 C   0  0  0  0  0  0  0  0  0  0  0  0
    3.0607   -0.0109   -0.2273 C   0  0  0  0  0  0  0  0  0  0  0  0
    0.6455   -0.7370   -0.4082 C   0  0  0  0  0  0  0  0  0  0  0  0
   -0.7491   -0.4159   -0.1510 C   0  0  0  0  0  0  0  0  0  0  0  0
    1.1529    2.6020   -0.3869 C   0  0  0  0  0  0  0  0  0  0  0  0
    3.7015   -0.6772    0.9728 C   0  0  0  0  0  0  0  0  0  0  0  0
   -1.4962    0.2667   -1.1110 C   0  0  0  0  0  0  0  0  0  0  0  0
   -1.3399   -0.7906    1.0558 C   0  0  0  0  0  0  0  0  0  0  0  0
   -2.8342    0.5744   -0.8642 C   0  0  0  0  0  0  0  0  0  0  0  0
   -2.6779   -0.4831    1.3025 C   0  0  0  0  0  0  0  0  0  0  0  0
   -3.4251    0.1994    0.3424 C   0  0  0  0  0  0  0  0  0  0  0  0
    0.4058    1.4060    1.2212 H   0  0  0  0  0  0  0  0  0  0  0  0
    2.1207    1.7442    1.3371 H   0  0  0  0  0  0  0  0  0  0  0  0
    3.2301   -0.6176   -1.1209 H   0  0  0  0  0  0  0  0  0  0  0  0
    3.5488    0.9510   -0.4228 H   0  0  0  0  0  0  0  0  0  0  0  0
    2.0730    2.7589   -0.9592 H   0  0  0  0  0  0  0  0  0  0  0  0
    0.3566    2.3868   -1.1030 H   0  0  0  0  0  0  0  0  0  0  0  0
    0.9079    3.5423    0.1170 H   0  0  0  0  0  0  0  0  0  0  0  0
    3.6045   -0.0595    1.8714 H   0  0  0  0  0  0  0  0  0  0  0  0
    3.2425   -1.6468    1.1895 H   0  0  0  0  0  0  0  0  0  0  0  0
    4.7683   -0.8406    0.7907 H   0  0  0  0  0  0  0  0  0  0  0  0
   -1.0503    0.5610   -2.0577 H   0  0  0  0  0  0  0  0  0  0  0  0
   -0.7681   -1.3201    1.8138 H   0  0  0  0  0  0  0  0  0  0  0  0
   -3.4162    1.1051   -1.6120 H   0  0  0  0  0  0  0  0  0  0  0  0
   -3.1378   -0.7742    2.2423 H   0  0  0  0  0  0  0  0  0  0  0  0
   -4.4668    0.4389    0.5344 H   0  0  0  0  0  0  0  0  0  0  0  0
  1  5  2  0  0  0  0
  2  3  1  0  0  0  0
  2  4  1  0  0  0  0
  2  5  1  0  0  0  0
  3  7  1  0  0  0  0
  3 14  1  0  0  0  0
  3 15  1  0  0  0  0
  4  8  1  0  0  0  0
  4 16  1  0  0  0  0
  4 17  1  0  0  0  0
  5  6  1  0  0  0  0
  6  9  2  0  0  0  0
  6 10  1  0  0  0  0
  7 18  1  0  0  0  0
  7 19  1  0  0  0  0
  7 20  1  0  0  0  0
  8 21  1  0  0  0  0
  8 22  1  0  0  0  0
  8 23  1  0  0  0  0
  9 11  1  0  0  0  0
  9 24  1  0  0  0  0
 10 12  2  0  0  0  0
 10 25  1  0  0  0  0
 11 13  2  0  0  0  0
 11 26  1  0  0  0  0
 12 13  1  0  0  0  0
 12 27  1  0  0  0  0
 13 28  1  0  0  0  0
M  END
> <PUBCHEM_COMPOUND_CID>
140422

> <PUBCHEM_CONFORMER_RMSD>
0.6

> <PUBCHEM_CONFORMER_DIVERSEORDER>
1
16
13
3
11
6
5
4
10
17
2
9
15
8
7
12
14

> <PUBCHEM_MMFF94_PARTIAL_CHARGES>
16
1 -0.38
10 -0.15
11 -0.15
12 -0.15
13 -0.15
2 -0.66
24 0.15
25 0.15
26 0.15
27 0.15
28 0.15
3 0.3
4 0.3
5 0.35
6 0.09
9 -0.15

> <PUBCHEM_EFFECTIVE_ROTOR_COUNT>
4

> <PUBCHEM_PHARMACOPHORE_FEATURES>
2
1 1 acceptor
6 6 9 10 11 12 13 rings

> <PUBCHEM_HEAVY_ATOM_COUNT>
13

> <PUBCHEM_ATOM_DEF_STEREO_COUNT>
0

> <PUBCHEM_ATOM_UDEF_STEREO_COUNT>
0

> <PUBCHEM_BOND_DEF_STEREO_COUNT>
0

> <PUBCHEM_BOND_UDEF_STEREO_COUNT>
0

> <PUBCHEM_ISOTOPIC_ATOM_COUNT>
0

> <PUBCHEM_COMPONENT_COUNT>
1

> <PUBCHEM_CACTVS_TAUTO_COUNT>
1

> <PUBCHEM_CONFORMER_ID>
0002248600000001

> <PUBCHEM_MMFF94_ENERGY>
39.2011

> <PUBCHEM_FEATURE_SELFOVERLAP>
10.148

> <PUBCHEM_SHAPE_FINGERPRINT>
10130415 120 18187640280733048728
10219947 1 18343299249910228974
10465860 250 18040986311813565224
10857977 72 17241052114719357957
124424 183 18113609058643102090
12932764 1 18187651361310861338
13172582 1 18272083916181107318
13581323 91 16732987517855379715
15219456 202 18114744948623055505
15309172 13 18343582962438449742
15653759 3 17821728355368908857
15775835 57 16630532803975955387
16945 1 18272377459636040239
18175812 5 18187086208466394151
19422 9 14779272990161946690
20201158 50 18408605829478786811
20511035 2 18189619530221920612
20645464 45 18186805751476151331
20671657 1 18122908891500866828
21061003 4 18412269402206666688
21130352 189 18335976532323346572
21501502 16 18192998342365364615
21524375 3 17618796098736277812
23175994 123 18334576794112834460
23402539 116 18113888356720350871
2748010 2 18195810892972072228
31174 14 18044667622503338889
3286 77 18335136539983651709
5084963 1 18059003020509076063
77492 1 16845290501650400511
81228 2 17977674108572252912

> <PUBCHEM_SHAPE_MULTIPOLES>
266.4
5.35
1.96
1.25
0.18
0.56
0.1
-0.08
1.3
1.29
-0.58
-0.36
-0.25
0.35

> <PUBCHEM_SHAPE_SELFOVERLAP>
523.956

> <PUBCHEM_SHAPE_VOLUME>
161.2

> <PUBCHEM_COORDINATE_TYPE>
2
5
10

$$$$
