13058
  -OEChem-11012400503D

 26 28  0     0  0  0  0  0  0999 V2000
    0.6573    2.0987    0.3901 C   0  0  0  0  0  0  0  0  0  0  0  0
   -0.6574    2.0987   -0.3900 C   0  0  0  0  0  0  0  0  0  0  0  0
    1.4353    0.8254    0.1590 C   0  0  0  0  0  0  0  0  0  0  0  0
   -1.4354    0.8254   -0.1592 C   0  0  0  0  0  0  0  0  0  0  0  0
    0.7419   -0.3967   -0.0099 C   0  0  0  0  0  0  0  0  0  0  0  0
   -0.7419   -0.3967    0.0097 C   0  0  0  0  0  0  0  0  0  0  0  0
    2.8378    0.8587    0.1711 C   0  0  0  0  0  0  0  0  0  0  0  0
   -2.8377    0.8586   -0.1711 C   0  0  0  0  0  0  0  0  0  0  0  0
    1.5080   -1.5597   -0.2044 C   0  0  0  0  0  0  0  0  0  0  0  0
   -1.5080   -1.5597    0.2042 C   0  0  0  0  0  0  0  0  0  0  0  0
    3.5694   -0.3100   -0.0149 C   0  0  0  0  0  0  0  0  0  0  0  0
   -3.5694   -0.3100    0.0152 C   0  0  0  0  0  0  0  0  0  0  0  0
    2.9055   -1.5163   -0.2069 C   0  0  0  0  0  0  0  0  0  0  0  0
   -2.9054   -1.5164    0.2071 C   0  0  0  0  0  0  0  0  0  0  0  0
    0.4603    2.1884    1.4661 H   0  0  0  0  0  0  0  0  0  0  0  0
    1.2474    2.9718    0.0879 H   0  0  0  0  0  0  0  0  0  0  0  0
   -0.4604    2.1885   -1.4660 H   0  0  0  0  0  0  0  0  0  0  0  0
   -1.2476    2.9719   -0.0877 H   0  0  0  0  0  0  0  0  0  0  0  0
    3.3646    1.7971    0.3234 H   0  0  0  0  0  0  0  0  0  0  0  0
   -3.3647    1.7971   -0.3233 H   0  0  0  0  0  0  0  0  0  0  0  0
    1.0368   -2.5254   -0.3677 H   0  0  0  0  0  0  0  0  0  0  0  0
   -1.0367   -2.5254    0.3675 H   0  0  0  0  0  0  0  0  0  0  0  0
    4.6548   -0.2797   -0.0114 H   0  0  0  0  0  0  0  0  0  0  0  0
   -4.6547   -0.2797    0.0120 H   0  0  0  0  0  0  0  0  0  0  0  0
    3.4738   -2.4297   -0.3584 H   0  0  0  0  0  0  0  0  0  0  0  0
   -3.4737   -2.4297    0.3587 H   0  0  0  0  0  0  0  0  0  0  0  0
  1  2  1  0  0  0  0
  1  3  1  0  0  0  0
  1 15  1  0  0  0  0
  1 16  1  0  0  0  0
  2  4  1  0  0  0  0
  2 17  1  0  0  0  0
  2 18  1  0  0  0  0
  3  5  1  0  0  0  0
  3  7  2  0  0  0  0
  4  6  1  0  0  0  0
  4  8  2  0  0  0  0
  5  6  1  0  0  0  0
  5  9  2  0  0  0  0
  6 10  2  0  0  0  0
  7 11  1  0  0  0  0
  7 19  1  0  0  0  0
  8 12  1  0  0  0  0
  8 20  1  0  0  0  0
  9 13  1  0  0  0  0
  9 21  1  0  0  0  0
 10 14  1  0  0  0  0
 10 22  1  0  0  0  0
 11 13  2  0  0  0  0
 11 23  1  0  0  0  0
 12 14  2  0  0  0  0
 12 24  1  0  0  0  0
 13 25  1  0  0  0  0
 14 26  1  0  0  0  0
M  END
> <PUBCHEM_COMPOUND_CID>
13058

> <PUBCHEM_CONFORMER_RMSD>
0.4

> <PUBCHEM_CONFORMER_DIVERSEORDER>
1
2

> <PUBCHEM_MMFF94_PARTIAL_CHARGES>
20
1 0.14
10 -0.15
11 -0.15
12 -0.15
13 -0.15
14 -0.15
19 0.15
2 0.14
20 0.15
21 0.15
22 0.15
23 0.15
24 0.15
25 0.15
26 0.15
3 -0.14
4 -0.14
7 -0.15
8 -0.15
9 -0.15

> <PUBCHEM_EFFECTIVE_ROTOR_COUNT>
0.4

> <PUBCHEM_PHARMACOPHORE_FEATURES>
3
6 1 2 3 4 5 6 rings
6 3 5 7 9 11 13 rings
6 4 6 8 10 12 14 rings

> <PUBCHEM_HEAVY_ATOM_COUNT>
14

> <PUBCHEM_ATOM_DEF_STEREO_COUNT>
0

> <PUBCHEM_ATOM_UDEF_STEREO_COUNT>
0

> <PUBCHEM_BOND_DEF_STEREO_COUNT>
0

> <PUBCHEM_BOND_UDEF_STEREO_COUNT>
0

> <PUBCHEM_ISOTOPIC_ATOM_COUNT>
0

> <PUBCHEM_COMPONENT_COUNT>
1

> <PUBCHEM_CACTVS_TAUTO_COUNT>
1

> <PUBCHEM_CONFORMER_ID>
0000330200000001

> <PUBCHEM_MMFF94_ENERGY>
41.0283

> <PUBCHEM_FEATURE_SELFOVERLAP>
15.268

> <PUBCHEM_SHAPE_FINGERPRINT>
10608611 8 18410851066376962276
10618630 7 18410013225779069924
10967382 1 18266741461800496898
11132069 177 18411411821686218752
11471102 20 18411976979395222453
12032990 46 18410860957686515043
12382932 28 18412544301435421138
13140716 1 18339079285264103082
13296908 3 18410576184180267267
14115302 16 18113910346319845295
14144814 61 18411982455325661027
15196674 1 18410573985151451142
15219456 202 18411697703220188680
15536298 74 18271807955821104952
16945 1 18410572885640070212
17844478 74 18259992552260877177
17990270 104 18337107994064722361
200 152 17917419961089827415
20201158 50 18410854356348161363
20510252 161 18270961219898199560
20588541 1 18410856555344841781
21267235 1 18410583880756542850
21501502 16 18410858754373417536
22721475 48 18410859862469705156
2334 1 18410574019516652642
23402539 116 18340193112012666710
23463225 33 18409167727144069660
23559900 14 18267297630802716442
2748010 2 18410852191668599166
3312278 4 18410295783156104448
335352 9 18122343475876859165
5104073 3 18410573985183139626
528886 8 18412257350407127994
53812653 166 18343016743988464696
69090 78 18342451548120737735
7364860 26 18196935693330695040
81228 2 18264783051292725808
8809292 202 18334018284834136330
9709674 26 18411703166566873526

> <PUBCHEM_SHAPE_MULTIPOLES>
288.11
5.55
2.16
0.66
0
0.44
0
-1.57
0
0
0
0
0.03
0.37

> <PUBCHEM_SHAPE_SELFOVERLAP>
639.879

> <PUBCHEM_SHAPE_VOLUME>
143.7

> <PUBCHEM_COORDINATE_TYPE>
2
5
10

$$$$
