10987325
  -OEChem-11012400553D

 31 30  0     0  0  0  0  0  0999 V2000
    0.9367   -2.3025    0.5100 S   0  0  0  0  0  0  0  0  0  0  0  0
   -2.0918   -1.6453    0.3475 O   0  0  0  0  0  0  0  0  0  0  0  0
    1.9175    0.2205    0.0387 N   0  0  0  0  0  0  0  0  0  0  0  0
   -0.4457    0.0119    0.0511 N   0  0  0  0  0  0  0  0  0  0  0  0
   -2.7954    0.6210   -0.1284 C   0  0  0  0  0  0  0  0  0  0  0  0
    1.7781    1.6522   -0.2354 C   0  0  0  0  0  0  0  0  0  0  0  0
    3.3022   -0.2343    0.1777 C   0  0  0  0  0  0  0  0  0  0  0  0
    0.8037   -0.6484    0.1911 C   0  0  0  0  0  0  0  0  0  0  0  0
   -1.7661   -0.4815    0.1299 C   0  0  0  0  0  0  0  0  0  0  0  0
   -3.0758    0.7368   -1.6253 C   0  0  0  0  0  0  0  0  0  0  0  0
   -4.0894    0.3536    0.6372 C   0  0  0  0  0  0  0  0  0  0  0  0
    1.6701    2.4542    1.0451 C   0  0  0  0  0  0  0  0  0  0  0  0
    3.8558   -0.7382   -1.1392 C   0  0  0  0  0  0  0  0  0  0  0  0
   -2.3925    1.5764    0.2301 H   0  0  0  0  0  0  0  0  0  0  0  0
    2.6669    1.9831   -0.7878 H   0  0  0  0  0  0  0  0  0  0  0  0
    0.9464    1.8594   -0.9137 H   0  0  0  0  0  0  0  0  0  0  0  0
    3.9187    0.5911    0.5527 H   0  0  0  0  0  0  0  0  0  0  0  0
    3.3686   -1.0242    0.9318 H   0  0  0  0  0  0  0  0  0  0  0  0
   -0.4144    1.0127   -0.0825 H   0  0  0  0  0  0  0  0  0  0  0  0
   -3.7980    1.5342   -1.8283 H   0  0  0  0  0  0  0  0  0  0  0  0
   -2.1572    0.9636   -2.1772 H   0  0  0  0  0  0  0  0  0  0  0  0
   -3.4766   -0.2003   -2.0272 H   0  0  0  0  0  0  0  0  0  0  0  0
   -3.8899    0.2474    1.7090 H   0  0  0  0  0  0  0  0  0  0  0  0
   -4.7983    1.1774    0.5040 H   0  0  0  0  0  0  0  0  0  0  0  0
   -4.5738   -0.5688    0.2982 H   0  0  0  0  0  0  0  0  0  0  0  0
    0.7886    2.1643    1.6257 H   0  0  0  0  0  0  0  0  0  0  0  0
    2.5483    2.3081    1.6824 H   0  0  0  0  0  0  0  0  0  0  0  0
    1.5909    3.5220    0.8185 H   0  0  0  0  0  0  0  0  0  0  0  0
    3.2757   -1.5781   -1.5329 H   0  0  0  0  0  0  0  0  0  0  0  0
    3.8464    0.0514   -1.8979 H   0  0  0  0  0  0  0  0  0  0  0  0
    4.8904   -1.0718   -1.0124 H   0  0  0  0  0  0  0  0  0  0  0  0
  1  8  2  0  0  0  0
  2  9  2  0  0  0  0
  3  6  1  0  0  0  0
  3  7  1  0  0  0  0
  3  8  1  0  0  0  0
  4  8  1  0  0  0  0
  4  9  1  0  0  0  0
  4 19  1  0  0  0  0
  5  9  1  0  0  0  0
  5 10  1  0  0  0  0
  5 11  1  0  0  0  0
  5 14  1  0  0  0  0
  6 12  1  0  0  0  0
  6 15  1  0  0  0  0
  6 16  1  0  0  0  0
  7 13  1  0  0  0  0
  7 17  1  0  0  0  0
  7 18  1  0  0  0  0
 10 20  1  0  0  0  0
 10 21  1  0  0  0  0
 10 22  1  0  0  0  0
 11 23  1  0  0  0  0
 11 24  1  0  0  0  0
 11 25  1  0  0  0  0
 12 26  1  0  0  0  0
 12 27  1  0  0  0  0
 12 28  1  0  0  0  0
 13 29  1  0  0  0  0
 13 30  1  0  0  0  0
 13 31  1  0  0  0  0
M  END
> <PUBCHEM_COMPOUND_CID>
10987325

> <PUBCHEM_CONFORMER_RMSD>
0.6

> <PUBCHEM_CONFORMER_DIVERSEORDER>
1
111
70
65
84
63
76
85
5
99
40
67
79
74
44
62
32
39
91
103
72
31
113
22
114
121
73
75
10
51
117
95
106
112
45
43
119
81
33
87
16
92
105
54
68
118
102
109
7
3
21
20
46
86
93
88
89
78
25
83
2
71
77
98
82
100
9
55
17
27
66
80
56
36
61
41
96
18
35
23
101
13
97
64
15
24
110
42
30
48
52
50
69
6
12
108
8
11
38
37
60
26
57
58
47
49
29
19
120
14
53
59
94
116
90
115
34
104
107
28
4

> <PUBCHEM_MMFF94_PARTIAL_CHARGES>
10
1 -0.38
19 0.37
2 -0.57
3 -0.66
4 -0.49
5 0.06
6 0.3
7 0.3
8 0.5
9 0.57

> <PUBCHEM_EFFECTIVE_ROTOR_COUNT>
6

> <PUBCHEM_PHARMACOPHORE_FEATURES>
4
1 1 acceptor
1 2 acceptor
1 4 donor
3 5 10 11 hydrophobe

> <PUBCHEM_HEAVY_ATOM_COUNT>
13

> <PUBCHEM_ATOM_DEF_STEREO_COUNT>
0

> <PUBCHEM_ATOM_UDEF_STEREO_COUNT>
0

> <PUBCHEM_BOND_DEF_STEREO_COUNT>
0

> <PUBCHEM_BOND_UDEF_STEREO_COUNT>
0

> <PUBCHEM_ISOTOPIC_ATOM_COUNT>
0

> <PUBCHEM_COMPONENT_COUNT>
1

> <PUBCHEM_CACTVS_TAUTO_COUNT>
3

> <PUBCHEM_CONFORMER_ID>
00A7A73D00000001

> <PUBCHEM_MMFF94_ENERGY>
29.9015

> <PUBCHEM_FEATURE_SELFOVERLAP>
20.298

> <PUBCHEM_SHAPE_FINGERPRINT>
10366900 7 17967541181351299123
11031198 65 18186807932850240718
12932764 1 18040989661566282987
13922767 16 18412536630977485744
14325111 11 18337111284104623058
15775835 57 18259708903846130882
16945 1 18337945705955656939
17041 50 18411983555138034084
18186145 218 18411134757567015896
20233049 118 18187078421780428812
21524375 3 18334292106279508147
21639500 275 18339060641132772293
22959321 8 18189039946028856693
23402539 116 17917427571655818286
23598291 2 17917986204993339365
25 1 18335140851804035618
2748010 2 18263924517294572104
3060560 45 18272080565837903462
53812653 166 18335419071369459970
58051976 100 18342176708715791687
74978 22 18271805756523510287

> <PUBCHEM_SHAPE_MULTIPOLES>
255.55
6.77
2.16
1.09
2.33
0.2
0.33
0.5
1.33
-1.25
-0.69
0.21
0.23
0.7

> <PUBCHEM_SHAPE_SELFOVERLAP>
465.317

> <PUBCHEM_SHAPE_VOLUME>
165.6

> <PUBCHEM_COORDINATE_TYPE>
2
5
10

$$$$
