10964465
  -OEChem-10312420242D

 20 18  0     0  0  0  0  0  0999 V2000
    1.4030    1.4030    0.0000 N   0  3  0  0  0  0  0  0  0  0  0  0
    1.4030    5.3059    0.0000 N   0  3  0  0  0  0  0  0  0  0  0  0
    2.2690    5.8059    0.0000 N   0  5  0  0  0  0  0  0  0  0  0  0
    0.5369    4.8059    0.0000 N   0  5  0  0  0  0  0  0  0  0  0  0
    2.2690    1.9030    0.0000 C   0  0  0  0  0  0  0  0  0  0  0  0
    0.5369    0.9030    0.0000 C   0  0  0  0  0  0  0  0  0  0  0  0
    0.9030    2.2690    0.0000 C   0  0  0  0  0  0  0  0  0  0  0  0
    1.9030    0.5369    0.0000 C   0  0  0  0  0  0  0  0  0  0  0  0
    2.5790    1.3660    0.0000 H   0  0  0  0  0  0  0  0  0  0  0  0
    2.8059    2.2130    0.0000 H   0  0  0  0  0  0  0  0  0  0  0  0
    1.9590    2.4399    0.0000 H   0  0  0  0  0  0  0  0  0  0  0  0
    0.2269    1.4399    0.0000 H   0  0  0  0  0  0  0  0  0  0  0  0
    0.0000    0.5930    0.0000 H   0  0  0  0  0  0  0  0  0  0  0  0
    0.8469    0.3660    0.0000 H   0  0  0  0  0  0  0  0  0  0  0  0
    1.4399    2.5790    0.0000 H   0  0  0  0  0  0  0  0  0  0  0  0
    0.5930    2.8059    0.0000 H   0  0  0  0  0  0  0  0  0  0  0  0
    0.3660    1.9590    0.0000 H   0  0  0  0  0  0  0  0  0  0  0  0
    1.3660    0.2269    0.0000 H   0  0  0  0  0  0  0  0  0  0  0  0
    2.2130    0.0000    0.0000 H   0  0  0  0  0  0  0  0  0  0  0  0
    2.4399    0.8469    0.0000 H   0  0  0  0  0  0  0  0  0  0  0  0
  1  5  1  0  0  0  0
  1  6  1  0  0  0  0
  1  7  1  0  0  0  0
  1  8  1  0  0  0  0
  2  3  2  0  0  0  0
  2  4  2  0  0  0  0
  5  9  1  0  0  0  0
  5 10  1  0  0  0  0
  5 11  1  0  0  0  0
  6 12  1  0  0  0  0
  6 13  1  0  0  0  0
  6 14  1  0  0  0  0
  7 15  1  0  0  0  0
  7 16  1  0  0  0  0
  7 17  1  0  0  0  0
  8 18  1  0  0  0  0
  8 19  1  0  0  0  0
  8 20  1  0  0  0  0
M  CHG  4   1   1   2   1   3  -1   4  -1
M  END
> <PUBCHEM_COMPOUND_CID>
10964465

> <PUBCHEM_COMPOUND_CANONICALIZED>
1

> <PUBCHEM_CACTVS_COMPLEXITY>
34.6

> <PUBCHEM_CACTVS_HBOND_ACCEPTOR>
2

> <PUBCHEM_CACTVS_HBOND_DONOR>
0

> <PUBCHEM_CACTVS_ROTATABLE_BOND>
0

> <PUBCHEM_CACTVS_SUBSKEYS>
AAADccBjgAAAAAAAAAAAAAAAAAAAAAAAAAAAAAAAAAAAAAAAAAAAFAAIAAAAAAAAAAQCAAMAAAACAAAAAAAAAAAAAAAAAAAIAAAAAAAAAAAAAAAAAAAAAAAAAAAAAAAAAAAAAAAAAAAAAAAAAAAAAAAAAA==

> <PUBCHEM_IUPAC_OPENEYE_NAME>
tetramethylammonium;azide

> <PUBCHEM_IUPAC_CAS_NAME>
tetramethylammonium;azide

> <PUBCHEM_IUPAC_NAME_MARKUP>
tetramethylazanium;azide

> <PUBCHEM_IUPAC_NAME>
tetramethylazanium;azide

> <PUBCHEM_IUPAC_SYSTEMATIC_NAME>
tetramethylazanium;azide

> <PUBCHEM_IUPAC_TRADITIONAL_NAME>
tetramethylammonium;azide

> <PUBCHEM_IUPAC_INCHI>
InChI=1S/C4H12N.N3/c1-5(2,3)4;1-3-2/h1-4H3;/q+1;-1

> <PUBCHEM_IUPAC_INCHIKEY>
SUBUUGVBEKEFGW-UHFFFAOYSA-N

> <PUBCHEM_EXACT_MASS>
116.106196400

> <PUBCHEM_MOLECULAR_FORMULA>
C4H12N4

> <PUBCHEM_MOLECULAR_WEIGHT>
116.17

> <PUBCHEM_OPENEYE_CAN_SMILES>
C[N+](C)(C)C.[N-]=[N+]=[N-]

> <PUBCHEM_OPENEYE_ISO_SMILES>
C[N+](C)(C)C.[N-]=[N+]=[N-]

> <PUBCHEM_CACTVS_TPSA>
3

> <PUBCHEM_MONOISOTOPIC_WEIGHT>
116.106196400

> <PUBCHEM_TOTAL_CHARGE>
0

> <PUBCHEM_HEAVY_ATOM_COUNT>
8

> <PUBCHEM_ATOM_DEF_STEREO_COUNT>
0

> <PUBCHEM_ATOM_UDEF_STEREO_COUNT>
0

> <PUBCHEM_BOND_DEF_STEREO_COUNT>
0

> <PUBCHEM_BOND_UDEF_STEREO_COUNT>
0

> <PUBCHEM_ISOTOPIC_ATOM_COUNT>
0

> <PUBCHEM_COMPONENT_COUNT>
2

> <PUBCHEM_CACTVS_TAUTO_COUNT>
-1

> <PUBCHEM_COORDINATE_TYPE>
1
5
255

$$$$
