141932
  -OEChem-11012401023D

 25 24  0     0  0  0  0  0  0999 V2000
   -1.2589   -1.5025   -0.0802 F   0  0  0  0  0  0  0  0  0  0  0  0
    2.8312    1.2369   -0.1938 F   0  0  0  0  0  0  0  0  0  0  0  0
   -4.0034   -0.0154   -1.3303 O   0  5  0  0  0  0  0  0  0  0  0  0
   -2.7950    1.1976    1.3550 O   0  5  0  0  0  0  0  0  0  0  0  0
    2.8794   -1.9559   -1.2473 O   0  5  0  0  0  0  0  0  0  0  0  0
    1.3179   -1.3479    1.4609 O   0  5  0  0  0  0  0  0  0  0  0  0
   -3.7065   -1.9453   -0.3220 O   0  0  0  0  0  0  0  0  0  0  0  0
   -1.5474   -0.4478    2.1086 O   0  0  0  0  0  0  0  0  0  0  0  0
    4.4336   -0.6727   -0.3714 O   0  0  0  0  0  0  0  0  0  0  0  0
    2.1403    0.5989    2.0651 O   0  0  0  0  0  0  0  0  0  0  0  0
   -0.1042    3.0599   -0.1440 O   0  0  0  0  0  0  0  0  0  0  0  0
   -0.0081    1.0244   -0.6940 N   0  0  0  0  0  0  0  0  0  0  0  0
   -3.3398   -0.8084   -0.6490 N   0  3  0  0  0  0  0  0  0  0  0  0
   -2.1197    0.1712    1.2012 N   0  3  0  0  0  0  0  0  0  0  0  0
    3.2556   -0.9438   -0.6412 N   0  3  0  0  0  0  0  0  0  0  0  0
    1.8609   -0.2618    1.2193 N   0  3  0  0  0  0  0  0  0  0  0  0
    0.2675    2.2709   -1.0210 N   0  0  0  0  0  0  0  0  0  0  0  0
   -1.3285    0.6100   -1.1643 C   0  0  0  0  0  0  0  0  0  0  0  0
    1.0027    0.0542   -1.1425 C   0  0  0  0  0  0  0  0  0  0  0  0
   -1.9781   -0.3603   -0.1963 C   0  0  0  0  0  0  0  0  0  0  0  0
    2.2008    0.0380   -0.2126 C   0  0  0  0  0  0  0  0  0  0  0  0
   -1.9874    1.4871   -1.2640 H   0  0  0  0  0  0  0  0  0  0  0  0
   -1.2710    0.1759   -2.1734 H   0  0  0  0  0  0  0  0  0  0  0  0
    0.5793   -0.9562   -1.1855 H   0  0  0  0  0  0  0  0  0  0  0  0
    1.3216    0.2822   -2.1706 H   0  0  0  0  0  0  0  0  0  0  0  0
  1 20  1  0  0  0  0
  2 21  1  0  0  0  0
  3 13  1  0  0  0  0
  4 14  1  0  0  0  0
  5 15  1  0  0  0  0
  6 16  1  0  0  0  0
  7 13  2  0  0  0  0
  8 14  2  0  0  0  0
  9 15  2  0  0  0  0
 10 16  2  0  0  0  0
 11 17  2  0  0  0  0
 12 17  1  0  0  0  0
 12 18  1  0  0  0  0
 12 19  1  0  0  0  0
 13 20  1  0  0  0  0
 14 20  1  0  0  0  0
 15 21  1  0  0  0  0
 16 21  1  0  0  0  0
 18 20  1  0  0  0  0
 18 22  1  0  0  0  0
 18 23  1  0  0  0  0
 19 21  1  0  0  0  0
 19 24  1  0  0  0  0
 19 25  1  0  0  0  0
M  CHG  8   3  -1   4  -1   5  -1   6  -1  13   1  14   1  15   1  16   1
M  END
> <PUBCHEM_COMPOUND_CID>
141932

> <PUBCHEM_CONFORMER_RMSD>
0.8

> <PUBCHEM_CONFORMER_DIVERSEORDER>
1
28
41
13
18
65
37
56
30
9
47
26
38
21
29
34
32
49
22
20
36
39
23
46
60
50
10
57
33
59
48
54
62
58
45
35
64
55
25
31
43
19
8
16
24
5
15
27
40
51
42
66
52
44
11
12
61
6
63
2
3
7
17
14
53
4

> <PUBCHEM_MMFF94_PARTIAL_CHARGES>
21
1 -0.34
10 -0.52
11 -0.16
12 -0.36
13 0.8
14 0.8
15 0.8
16 0.8
17 -0.01
18 0.27
19 0.27
2 -0.34
20 0.82
21 0.82
3 -0.52
4 -0.52
5 -0.52
6 -0.52
7 -0.52
8 -0.52
9 -0.52

> <PUBCHEM_EFFECTIVE_ROTOR_COUNT>
9

> <PUBCHEM_PHARMACOPHORE_FEATURES>
12
1 10 acceptor
1 3 acceptor
1 3 anion
1 4 acceptor
1 4 anion
1 5 acceptor
1 5 anion
1 6 acceptor
1 6 anion
1 7 acceptor
1 8 acceptor
1 9 acceptor

> <PUBCHEM_HEAVY_ATOM_COUNT>
21

> <PUBCHEM_ATOM_DEF_STEREO_COUNT>
0

> <PUBCHEM_ATOM_UDEF_STEREO_COUNT>
0

> <PUBCHEM_BOND_DEF_STEREO_COUNT>
0

> <PUBCHEM_BOND_UDEF_STEREO_COUNT>
0

> <PUBCHEM_ISOTOPIC_ATOM_COUNT>
0

> <PUBCHEM_COMPONENT_COUNT>
1

> <PUBCHEM_CACTVS_TAUTO_COUNT>
1

> <PUBCHEM_CONFORMER_ID>
00022A6C00000001

> <PUBCHEM_MMFF94_ENERGY>
53.0601

> <PUBCHEM_FEATURE_SELFOVERLAP>
61.229

> <PUBCHEM_SHAPE_FINGERPRINT>
12077114 3 15769496404800365057
12596599 1 18409453600056807595
14817 1 14496666916497272824
15375462 478 15626220204146871009
15653759 3 16773799177485916939
16752209 62 17896027746452712429
16945 1 16877948247426192540
19862831 5 17168143403854848886
20523700 14 16153708725813566198
20645477 70 18046337802552535823
20711985 344 17897162425162191700
23402539 116 18187365403116229134
23419403 2 15896643083301619815
23503958 8 18131638871869759399
23526113 38 17895756330147068365
23559900 14 18060129985546669969
2748010 2 16880774129864548817
3286 77 17418366991655052166
449060 23 18262246521228063694
45790113 50 16845567647189060057
7364860 26 18123188171464134525
81228 2 18115306648783568756

> <PUBCHEM_SHAPE_MULTIPOLES>
334.91
6.26
2.01
1.65
0.06
1.06
0.84
-2.69
-1.15
-0.06
-0.34
-0.12
-0.09
0.07

> <PUBCHEM_SHAPE_SELFOVERLAP>
678.282

> <PUBCHEM_SHAPE_VOLUME>
195.7

> <PUBCHEM_COORDINATE_TYPE>
2
5
10

$$$$
