67864
  -OEChem-11012400503D

 18 17  0     0  0  0  0  0  0999 V2000
    2.8440    0.1376    1.1138 F   0  0  0  0  0  0  0  0  0  0  0  0
    2.0853   -1.5777    0.0008 F   0  0  0  0  0  0  0  0  0  0  0  0
    2.8856    0.1468   -1.0649 F   0  0  0  0  0  0  0  0  0  0  0  0
   -1.9637    1.2563    0.0388 O   0  0  0  0  0  0  0  0  0  0  0  0
    0.6319    1.6148   -0.0437 O   0  0  0  0  0  0  0  0  0  0  0  0
   -0.3934   -0.5714   -0.0331 C   0  0  0  0  0  0  0  0  0  0  0  0
   -2.9342   -0.9489   -0.0215 C   0  0  0  0  0  0  0  0  0  0  0  0
   -1.7807    0.0414   -0.0154 C   0  0  0  0  0  0  0  0  0  0  0  0
    0.7729    0.3937   -0.0092 C   0  0  0  0  0  0  0  0  0  0  0  0
   -4.2911   -0.2701    0.0253 C   0  0  0  0  0  0  0  0  0  0  0  0
    2.1434   -0.2224    0.0092 C   0  0  0  0  0  0  0  0  0  0  0  0
   -0.3086   -1.1747   -0.9432 H   0  0  0  0  0  0  0  0  0  0  0  0
   -0.3083   -1.2174    0.8472 H   0  0  0  0  0  0  0  0  0  0  0  0
   -2.8588   -1.5543   -0.9307 H   0  0  0  0  0  0  0  0  0  0  0  0
   -2.8252   -1.6060    0.8477 H   0  0  0  0  0  0  0  0  0  0  0  0
   -4.3969    0.3356    0.9314 H   0  0  0  0  0  0  0  0  0  0  0  0
   -5.0913   -1.0166    0.0177 H   0  0  0  0  0  0  0  0  0  0  0  0
   -4.4306    0.3899   -0.8373 H   0  0  0  0  0  0  0  0  0  0  0  0
  1 11  1  0  0  0  0
  2 11  1  0  0  0  0
  3 11  1  0  0  0  0
  4  8  2  0  0  0  0
  5  9  2  0  0  0  0
  6  8  1  0  0  0  0
  6  9  1  0  0  0  0
  6 12  1  0  0  0  0
  6 13  1  0  0  0  0
  7  8  1  0  0  0  0
  7 10  1  0  0  0  0
  7 14  1  0  0  0  0
  7 15  1  0  0  0  0
  9 11  1  0  0  0  0
 10 16  1  0  0  0  0
 10 17  1  0  0  0  0
 10 18  1  0  0  0  0
M  END
> <PUBCHEM_COMPOUND_CID>
67864

> <PUBCHEM_CONFORMER_RMSD>
0.6

> <PUBCHEM_CONFORMER_DIVERSEORDER>
1
30
10
29
5
15
2
25
11
28
32
17
24
7
16
19
27
26
4
12
33
23
31
22
8
20
3
13
9
18
14
6
21

> <PUBCHEM_MMFF94_PARTIAL_CHARGES>
10
1 -0.34
11 1.08
2 -0.34
3 -0.34
4 -0.57
5 -0.57
6 0.12
7 0.06
8 0.45
9 0.45

> <PUBCHEM_EFFECTIVE_ROTOR_COUNT>
4

> <PUBCHEM_PHARMACOPHORE_FEATURES>
4
1 10 hydrophobe
1 4 acceptor
1 5 acceptor
1 6 anion

> <PUBCHEM_HEAVY_ATOM_COUNT>
11

> <PUBCHEM_ATOM_DEF_STEREO_COUNT>
0

> <PUBCHEM_ATOM_UDEF_STEREO_COUNT>
0

> <PUBCHEM_BOND_DEF_STEREO_COUNT>
0

> <PUBCHEM_BOND_UDEF_STEREO_COUNT>
0

> <PUBCHEM_ISOTOPIC_ATOM_COUNT>
0

> <PUBCHEM_COMPONENT_COUNT>
1

> <PUBCHEM_CACTVS_TAUTO_COUNT>
5

> <PUBCHEM_CONFORMER_ID>
0001091800000001

> <PUBCHEM_MMFF94_ENERGY>
6.4424

> <PUBCHEM_FEATURE_SELFOVERLAP>
20.308

> <PUBCHEM_SHAPE_FINGERPRINT>
10219947 1 14979960284896121961
10857977 72 18340758299628166441
11062470 55 15769776870792025011
12932764 1 17703783713071558599
14144814 61 18412263926371310307
14325111 11 18410856542818616513
20201158 50 18408323302346098923
20281407 28 18412547630488866515
20645477 70 18337950091545209807
23552423 10 18042971969251483914
29004967 10 18411134732076767624
3248919 1 17821452347938164051

> <PUBCHEM_SHAPE_MULTIPOLES>
192.81
6.05
1.22
0.73
3.46
0.12
-0.01
-1.02
-0.06
-0.1
0.01
-0.43
0
-0.02

> <PUBCHEM_SHAPE_SELFOVERLAP>
373.695

> <PUBCHEM_SHAPE_VOLUME>
117.2

> <PUBCHEM_COORDINATE_TYPE>
2
5
10

$$$$
