139497
  -OEChem-11012401143D

 28 29  0     1  0  0  0  0  0999 V2000
   -1.2313    0.5083   -0.5223 C   0  0  2  0  0  0  0  0  0  0  0  0
   -1.8902   -0.8514   -0.8073 C   0  0  0  0  0  0  0  0  0  0  0  0
   -1.4600   -1.9067    0.2043 C   0  0  0  0  0  0  0  0  0  0  0  0
    0.2589    0.3807   -0.2645 C   0  0  0  0  0  0  0  0  0  0  0  0
    0.0479   -2.1291    0.1356 C   0  0  0  0  0  0  0  0  0  0  0  0
    0.8469   -0.8511    0.0823 C   0  0  0  0  0  0  0  0  0  0  0  0
   -1.9191    1.2233    0.6479 C   0  0  0  0  0  0  0  0  0  0  0  0
    1.0703    1.5250   -0.3523 C   0  0  0  0  0  0  0  0  0  0  0  0
    2.2291   -0.9126    0.3223 C   0  0  0  0  0  0  0  0  0  0  0  0
   -3.4123    1.3297    0.4212 C   0  0  0  0  0  0  0  0  0  0  0  0
    2.4403    1.4512   -0.1026 C   0  0  0  0  0  0  0  0  0  0  0  0
    3.0195    0.2326    0.2355 C   0  0  0  0  0  0  0  0  0  0  0  0
   -1.3632    1.1192   -1.4266 H   0  0  0  0  0  0  0  0  0  0  0  0
   -1.5681   -1.1875   -1.8037 H   0  0  0  0  0  0  0  0  0  0  0  0
   -2.9800   -0.8000   -0.8691 H   0  0  0  0  0  0  0  0  0  0  0  0
   -1.9757   -2.8527    0.0022 H   0  0  0  0  0  0  0  0  0  0  0  0
   -1.7499   -1.6004    1.2161 H   0  0  0  0  0  0  0  0  0  0  0  0
    0.2843   -2.7115   -0.7641 H   0  0  0  0  0  0  0  0  0  0  0  0
    0.3549   -2.7253    1.0033 H   0  0  0  0  0  0  0  0  0  0  0  0
   -1.5103    2.2363    0.7513 H   0  0  0  0  0  0  0  0  0  0  0  0
   -1.7253    0.7175    1.6013 H   0  0  0  0  0  0  0  0  0  0  0  0
    0.6349    2.4857   -0.6173 H   0  0  0  0  0  0  0  0  0  0  0  0
    2.6983   -1.8605    0.5752 H   0  0  0  0  0  0  0  0  0  0  0  0
   -3.6493    1.6748   -0.5902 H   0  0  0  0  0  0  0  0  0  0  0  0
   -3.9271    0.3829    0.6086 H   0  0  0  0  0  0  0  0  0  0  0  0
   -3.8379    2.0549    1.1238 H   0  0  0  0  0  0  0  0  0  0  0  0
    3.0541    2.3443   -0.1738 H   0  0  0  0  0  0  0  0  0  0  0  0
    4.0869    0.1717    0.4260 H   0  0  0  0  0  0  0  0  0  0  0  0
  1  2  1  0  0  0  0
  1  4  1  0  0  0  0
  1  7  1  0  0  0  0
  1 13  1  0  0  0  0
  2  3  1  0  0  0  0
  2 14  1  0  0  0  0
  2 15  1  0  0  0  0
  3  5  1  0  0  0  0
  3 16  1  0  0  0  0
  3 17  1  0  0  0  0
  4  6  1  0  0  0  0
  4  8  2  0  0  0  0
  5  6  1  0  0  0  0
  5 18  1  0  0  0  0
  5 19  1  0  0  0  0
  6  9  2  0  0  0  0
  7 10  1  0  0  0  0
  7 20  1  0  0  0  0
  7 21  1  0  0  0  0
  8 11  1  0  0  0  0
  8 22  1  0  0  0  0
  9 12  1  0  0  0  0
  9 23  1  0  0  0  0
 10 24  1  0  0  0  0
 10 25  1  0  0  0  0
 10 26  1  0  0  0  0
 11 12  2  0  0  0  0
 11 27  1  0  0  0  0
 12 28  1  0  0  0  0
M  END
> <PUBCHEM_COMPOUND_CID>
139497

> <PUBCHEM_CONFORMER_RMSD>
0.4

> <PUBCHEM_CONFORMER_DIVERSEORDER>
3
4
1
2

> <PUBCHEM_MMFF94_PARTIAL_CHARGES>
12
1 0.14
11 -0.15
12 -0.15
22 0.15
23 0.15
27 0.15
28 0.15
4 -0.14
5 0.14
6 -0.14
8 -0.15
9 -0.15

> <PUBCHEM_EFFECTIVE_ROTOR_COUNT>
1.8

> <PUBCHEM_PHARMACOPHORE_FEATURES>
3
1 10 hydrophobe
6 1 2 3 4 5 6 rings
6 4 6 8 9 11 12 rings

> <PUBCHEM_HEAVY_ATOM_COUNT>
12

> <PUBCHEM_ATOM_DEF_STEREO_COUNT>
0

> <PUBCHEM_ATOM_UDEF_STEREO_COUNT>
1

> <PUBCHEM_BOND_DEF_STEREO_COUNT>
0

> <PUBCHEM_BOND_UDEF_STEREO_COUNT>
0

> <PUBCHEM_ISOTOPIC_ATOM_COUNT>
0

> <PUBCHEM_COMPONENT_COUNT>
1

> <PUBCHEM_CACTVS_TAUTO_COUNT>
1

> <PUBCHEM_CONFORMER_ID>
000220E900000003

> <PUBCHEM_MMFF94_ENERGY>
25.5066

> <PUBCHEM_FEATURE_SELFOVERLAP>
15.244

> <PUBCHEM_SHAPE_FINGERPRINT>
10219947 1 18262803938952643913
10465860 228 17840319813290256465
10980938 120 18265054630717462385
12202030 40 14418401140722250728
12382932 28 18411132541612019168
12423570 1 13515957898254283279
12491281 212 18336270127750176464
12932764 1 17458334239408969284
13380535 21 18336559277875591054
13380535 76 18412261718573646663
15775835 57 18409453578592507460
15906896 17 18201999975696139207
16945 1 18263073336565454422
19973954 147 18265895937617200054
20510252 161 18126570251982414241
21040471 1 18410012165117378572
21501502 16 18337107972901141598
21524375 3 18271807878612011325
2334 1 18337388352429024812
23552423 10 17970623211043618846
23559900 14 18342184358927596164
2748010 2 18409166631948657758
276578 36 18200326398544206001
5084963 1 17678166290551016710
528862 383 18191022296747879635
528886 8 18410288086553689040
53812653 217 17987237909660171751
53812653 8 17975430314271314596
63268167 104 18337946788266452816

> <PUBCHEM_SHAPE_MULTIPOLES>
246.95
4.33
2.17
0.78
0.3
0.63
-0.03
-1.75
0.57
0.45
0.13
0.2
-0.03
-0.45

> <PUBCHEM_SHAPE_SELFOVERLAP>
516.203

> <PUBCHEM_SHAPE_VOLUME>
135.5

> <PUBCHEM_COORDINATE_TYPE>
2
5
10

$$$$
