5357252
  -OEChem-11012400443D

 21 20  0     0  0  0  0  0  0999 V2000
   -1.5489   -0.0513   -0.3474 C   0  0  0  0  0  0  0  0  0  0  0  0
   -0.4113    0.8598    0.1509 C   0  0  0  0  0  0  0  0  0  0  0  0
   -1.3526   -1.5070    0.0841 C   0  0  0  0  0  0  0  0  0  0  0  0
   -2.8939    0.4643    0.1699 C   0  0  0  0  0  0  0  0  0  0  0  0
    0.9387    0.4541   -0.3701 C   0  0  0  0  0  0  0  0  0  0  0  0
    1.9627    0.0889    0.4149 C   0  0  0  0  0  0  0  0  0  0  0  0
    3.3052   -0.3089   -0.1021 C   0  0  0  0  0  0  0  0  0  0  0  0
   -1.5743   -0.0211   -1.4445 H   0  0  0  0  0  0  0  0  0  0  0  0
   -0.6016    1.8896   -0.1767 H   0  0  0  0  0  0  0  0  0  0  0  0
   -0.4091    0.8796    1.2484 H   0  0  0  0  0  0  0  0  0  0  0  0
   -2.1991   -2.1233   -0.2378 H   0  0  0  0  0  0  0  0  0  0  0  0
   -0.4502   -1.9389   -0.3601 H   0  0  0  0  0  0  0  0  0  0  0  0
   -1.2705   -1.5902    1.1732 H   0  0  0  0  0  0  0  0  0  0  0  0
   -3.7178   -0.1500   -0.2088 H   0  0  0  0  0  0  0  0  0  0  0  0
   -3.0679    1.4942   -0.1593 H   0  0  0  0  0  0  0  0  0  0  0  0
   -2.9331    0.4465    1.2644 H   0  0  0  0  0  0  0  0  0  0  0  0
    1.0720    0.4743   -1.4490 H   0  0  0  0  0  0  0  0  0  0  0  0
    1.8327    0.0717    1.4937 H   0  0  0  0  0  0  0  0  0  0  0  0
    3.3584   -0.2680   -1.1946 H   0  0  0  0  0  0  0  0  0  0  0  0
    4.0727    0.3583    0.3019 H   0  0  0  0  0  0  0  0  0  0  0  0
    3.5375   -1.3309    0.2125 H   0  0  0  0  0  0  0  0  0  0  0  0
  1  2  1  0  0  0  0
  1  3  1  0  0  0  0
  1  4  1  0  0  0  0
  1  8  1  0  0  0  0
  2  5  1  0  0  0  0
  2  9  1  0  0  0  0
  2 10  1  0  0  0  0
  3 11  1  0  0  0  0
  3 12  1  0  0  0  0
  3 13  1  0  0  0  0
  4 14  1  0  0  0  0
  4 15  1  0  0  0  0
  4 16  1  0  0  0  0
  5  6  2  0  0  0  0
  5 17  1  0  0  0  0
  6  7  1  0  0  0  0
  6 18  1  0  0  0  0
  7 19  1  0  0  0  0
  7 20  1  0  0  0  0
  7 21  1  0  0  0  0
M  END
> <PUBCHEM_COMPOUND_CID>
5357252

> <PUBCHEM_CONFORMER_RMSD>
0.4

> <PUBCHEM_CONFORMER_DIVERSEORDER>
1
3
2

> <PUBCHEM_MMFF94_PARTIAL_CHARGES>
6
17 0.15
18 0.15
2 0.14
5 -0.29
6 -0.29
7 0.14

> <PUBCHEM_EFFECTIVE_ROTOR_COUNT>
2

> <PUBCHEM_PHARMACOPHORE_FEATURES>
2
1 7 hydrophobe
3 1 3 4 hydrophobe

> <PUBCHEM_HEAVY_ATOM_COUNT>
7

> <PUBCHEM_ATOM_DEF_STEREO_COUNT>
0

> <PUBCHEM_ATOM_UDEF_STEREO_COUNT>
0

> <PUBCHEM_BOND_DEF_STEREO_COUNT>
1

> <PUBCHEM_BOND_UDEF_STEREO_COUNT>
0

> <PUBCHEM_ISOTOPIC_ATOM_COUNT>
0

> <PUBCHEM_COMPONENT_COUNT>
1

> <PUBCHEM_CACTVS_TAUTO_COUNT>
1

> <PUBCHEM_CONFORMER_ID>
0051BEC400000001

> <PUBCHEM_MMFF94_ENERGY>
1.6557

> <PUBCHEM_FEATURE_SELFOVERLAP>
10.149

> <PUBCHEM_SHAPE_FINGERPRINT>
11062470 55 17060618888824866385
12932764 1 17531235176008483724
14390081 3 9151179748569167078
15310529 11 16153418420336401242
16714656 1 18333447629782914037
23235685 24 18411696560774764183
23552423 10 18042403714976229958
29004967 10 17418097637118079840
5460574 1 11024106555584044948

> <PUBCHEM_SHAPE_MULTIPOLES>
144.06
4.68
1.12
0.69
2
0.37
0
0.21
-0.13
-0.5
-0.04
0.03
-0.01
-0.02

> <PUBCHEM_SHAPE_SELFOVERLAP>
252.899

> <PUBCHEM_SHAPE_VOLUME>
96.2

> <PUBCHEM_COORDINATE_TYPE>
2
5
10

$$$$
