15620
  -OEChem-11012400453D

 21 20  0     0  0  0  0  0  0999 V2000
   -2.6798   -0.7171   -0.0139 S   0  0  0  0  0  0  0  0  0  0  0  0
    1.3167    0.3712    0.0198 C   0  0  0  0  0  0  0  0  0  0  0  0
    0.0665   -0.5124    0.0115 C   0  0  0  0  0  0  0  0  0  0  0  0
    2.5929   -0.4699    0.0072 C   0  0  0  0  0  0  0  0  0  0  0  0
   -1.2013    0.3369   -0.0120 C   0  0  0  0  0  0  0  0  0  0  0  0
    3.8363    0.4048   -0.0189 C   0  0  0  0  0  0  0  0  0  0  0  0
   -3.9314    0.5866    0.0063 C   0  0  0  0  0  0  0  0  0  0  0  0
    1.3079    1.0142    0.9083 H   0  0  0  0  0  0  0  0  0  0  0  0
    1.3047    1.0308   -0.8566 H   0  0  0  0  0  0  0  0  0  0  0  0
    0.0747   -1.1552    0.9008 H   0  0  0  0  0  0  0  0  0  0  0  0
    0.0944   -1.1687   -0.8676 H   0  0  0  0  0  0  0  0  0  0  0  0
    2.6230   -1.1138    0.8938 H   0  0  0  0  0  0  0  0  0  0  0  0
    2.5985   -1.1262   -0.8709 H   0  0  0  0  0  0  0  0  0  0  0  0
   -1.2153    0.9666   -0.9078 H   0  0  0  0  0  0  0  0  0  0  0  0
   -1.2315    0.9869    0.8688 H   0  0  0  0  0  0  0  0  0  0  0  0
    3.8527    1.0370   -0.9124 H   0  0  0  0  0  0  0  0  0  0  0  0
    3.8780    1.0533    0.8621 H   0  0  0  0  0  0  0  0  0  0  0  0
    4.7370   -0.2169   -0.0261 H   0  0  0  0  0  0  0  0  0  0  0  0
   -3.8314    1.1976    0.9072 H   0  0  0  0  0  0  0  0  0  0  0  0
   -4.9255    0.1316    0.0044 H   0  0  0  0  0  0  0  0  0  0  0  0
   -3.8376    1.2191   -0.8803 H   0  0  0  0  0  0  0  0  0  0  0  0
  1  5  1  0  0  0  0
  1  7  1  0  0  0  0
  2  3  1  0  0  0  0
  2  4  1  0  0  0  0
  2  8  1  0  0  0  0
  2  9  1  0  0  0  0
  3  5  1  0  0  0  0
  3 10  1  0  0  0  0
  3 11  1  0  0  0  0
  4  6  1  0  0  0  0
  4 12  1  0  0  0  0
  4 13  1  0  0  0  0
  5 14  1  0  0  0  0
  5 15  1  0  0  0  0
  6 16  1  0  0  0  0
  6 17  1  0  0  0  0
  6 18  1  0  0  0  0
  7 19  1  0  0  0  0
  7 20  1  0  0  0  0
  7 21  1  0  0  0  0
M  END
> <PUBCHEM_COMPOUND_CID>
15620

> <PUBCHEM_CONFORMER_RMSD>
0.6

> <PUBCHEM_CONFORMER_DIVERSEORDER>
1
32
29
5
24
21
15
14
34
17
16
7
31
6
13
28
18
3
8
11
4
25
26
33
9
20
23
22
12
30
19
2
27
10

> <PUBCHEM_MMFF94_PARTIAL_CHARGES>
3
1 -0.46
5 0.23
7 0.23

> <PUBCHEM_EFFECTIVE_ROTOR_COUNT>
4

> <PUBCHEM_PHARMACOPHORE_FEATURES>
3
1 6 hydrophobe
1 7 hydrophobe
5 1 2 3 4 5 hydrophobe

> <PUBCHEM_HEAVY_ATOM_COUNT>
7

> <PUBCHEM_ATOM_DEF_STEREO_COUNT>
0

> <PUBCHEM_ATOM_UDEF_STEREO_COUNT>
0

> <PUBCHEM_BOND_DEF_STEREO_COUNT>
0

> <PUBCHEM_BOND_UDEF_STEREO_COUNT>
0

> <PUBCHEM_ISOTOPIC_ATOM_COUNT>
0

> <PUBCHEM_COMPONENT_COUNT>
1

> <PUBCHEM_CACTVS_TAUTO_COUNT>
1

> <PUBCHEM_CONFORMER_ID>
00003D0400000001

> <PUBCHEM_MMFF94_ENERGY>
1.8021

> <PUBCHEM_FEATURE_SELFOVERLAP>
15.223

> <PUBCHEM_SHAPE_FINGERPRINT>
11062470 55 18410575088968608705
12932764 1 15719663355348357075
14325111 11 18410573993741567618
20211469 26 10807933760775094433
20719005 15 18410575093738401131
5460574 1 9367349236527365858

> <PUBCHEM_SHAPE_MULTIPOLES>
147.91
7.39
0.89
0.63
0.07
0.05
0
-1.08
0.03
-0.27
0
-0.03
0.01
-0.01

> <PUBCHEM_SHAPE_SELFOVERLAP>
240.048

> <PUBCHEM_SHAPE_VOLUME>
103.3

> <PUBCHEM_COORDINATE_TYPE>
2
5
10

$$$$
