140338
  -OEChem-11012400453D

 24 23  0     0  0  0  0  0  0999 V2000
   -2.4864    0.1322   -1.5947 F   0  0  0  0  0  0  0  0  0  0  0  0
    2.5417   -0.1312   -1.6269 F   0  0  0  0  0  0  0  0  0  0  0  0
   -2.5585    1.1294    1.6697 O   0  5  0  0  0  0  0  0  0  0  0  0
   -3.7390   -1.7294    0.9275 O   0  5  0  0  0  0  0  0  0  0  0  0
    3.6580   -1.5947    1.1871 O   0  5  0  0  0  0  0  0  0  0  0  0
    2.5534    1.3813    1.4426 O   0  5  0  0  0  0  0  0  0  0  0  0
   -2.5743    2.1674   -0.2671 O   0  0  0  0  0  0  0  0  0  0  0  0
   -4.7042   -0.6680   -0.7377 O   0  0  0  0  0  0  0  0  0  0  0  0
    4.7059   -0.8105   -0.5781 O   0  0  0  0  0  0  0  0  0  0  0  0
    2.6270    2.1027   -0.6324 O   0  0  0  0  0  0  0  0  0  0  0  0
    0.0023   -0.2117   -0.2674 N   0  0  0  0  0  0  0  0  0  0  0  0
   -2.5403    1.1455    0.4318 N   0  3  0  0  0  0  0  0  0  0  0  0
   -3.7361   -0.9161   -0.0060 N   0  3  0  0  0  0  0  0  0  0  0  0
    3.7079   -0.9259    0.1462 N   0  3  0  0  0  0  0  0  0  0  0  0
    2.5552    1.2044    0.2172 N   0  3  0  0  0  0  0  0  0  0  0  0
   -1.2053   -0.9567    0.0834 C   0  0  0  0  0  0  0  0  0  0  0  0
    1.1935   -0.9303    0.1582 C   0  0  0  0  0  0  0  0  0  0  0  0
   -2.4563   -0.1781   -0.2762 C   0  0  0  0  0  0  0  0  0  0  0  0
    2.4555   -0.2104   -0.2772 C   0  0  0  0  0  0  0  0  0  0  0  0
   -1.2080   -1.9101   -0.4603 H   0  0  0  0  0  0  0  0  0  0  0  0
   -1.1954   -1.1888    1.1562 H   0  0  0  0  0  0  0  0  0  0  0  0
    1.1704   -1.0435    1.2495 H   0  0  0  0  0  0  0  0  0  0  0  0
    1.1914   -1.9363   -0.2813 H   0  0  0  0  0  0  0  0  0  0  0  0
    0.0285   -0.0565   -1.2748 H   0  0  0  0  0  0  0  0  0  0  0  0
  1 18  1  0  0  0  0
  2 19  1  0  0  0  0
  3 12  1  0  0  0  0
  4 13  1  0  0  0  0
  5 14  1  0  0  0  0
  6 15  1  0  0  0  0
  7 12  2  0  0  0  0
  8 13  2  0  0  0  0
  9 14  2  0  0  0  0
 10 15  2  0  0  0  0
 11 16  1  0  0  0  0
 11 17  1  0  0  0  0
 11 24  1  0  0  0  0
 12 18  1  0  0  0  0
 13 18  1  0  0  0  0
 14 19  1  0  0  0  0
 15 19  1  0  0  0  0
 16 18  1  0  0  0  0
 16 20  1  0  0  0  0
 16 21  1  0  0  0  0
 17 19  1  0  0  0  0
 17 22  1  0  0  0  0
 17 23  1  0  0  0  0
M  CHG  8   3  -1   4  -1   5  -1   6  -1  12   1  13   1  14   1  15   1
M  END
> <PUBCHEM_COMPOUND_CID>
140338

> <PUBCHEM_CONFORMER_RMSD>
0.8

> <PUBCHEM_CONFORMER_DIVERSEORDER>
1
11
7
20
6
17
12
15
9
2
8
10
13
16
21
5
18
4
3
19
14

> <PUBCHEM_MMFF94_PARTIAL_CHARGES>
20
1 -0.34
10 -0.52
11 -0.9
12 0.8
13 0.8
14 0.8
15 0.8
16 0.27
17 0.27
18 0.82
19 0.82
2 -0.34
24 0.36
3 -0.52
4 -0.52
5 -0.52
6 -0.52
7 -0.52
8 -0.52
9 -0.52

> <PUBCHEM_EFFECTIVE_ROTOR_COUNT>
8

> <PUBCHEM_PHARMACOPHORE_FEATURES>
14
1 10 acceptor
1 11 cation
1 11 donor
1 3 acceptor
1 3 anion
1 4 acceptor
1 4 anion
1 5 acceptor
1 5 anion
1 6 acceptor
1 6 anion
1 7 acceptor
1 8 acceptor
1 9 acceptor

> <PUBCHEM_HEAVY_ATOM_COUNT>
19

> <PUBCHEM_ATOM_DEF_STEREO_COUNT>
0

> <PUBCHEM_ATOM_UDEF_STEREO_COUNT>
0

> <PUBCHEM_BOND_DEF_STEREO_COUNT>
0

> <PUBCHEM_BOND_UDEF_STEREO_COUNT>
0

> <PUBCHEM_ISOTOPIC_ATOM_COUNT>
0

> <PUBCHEM_COMPONENT_COUNT>
1

> <PUBCHEM_CACTVS_TAUTO_COUNT>
1

> <PUBCHEM_CONFORMER_ID>
0002243200000001

> <PUBCHEM_MMFF94_ENERGY>
37.7505

> <PUBCHEM_FEATURE_SELFOVERLAP>
71.377

> <PUBCHEM_SHAPE_FINGERPRINT>
11615757 297 18409168813607447131
12162725 195 18343866614715412740
12507557 5 18334850619489033796
12916754 54 18335142011687694691
13533116 47 18188483584740539883
14144814 61 18409728430919434898
17802600 8 18343016687963907569
18186145 218 18409167705553234146
19050596 39 18272375265271826955
200 152 18411130347247825151
20279233 1 11240003381611584526
20671657 1 18264777721697351428
2255824 54 18334577971192420806
23402539 116 18130779062730556135
23557571 272 16773799173143314450
23559900 14 18261388987635867771
312423 11 18341345456038386313
3286 77 18408036316831142174
4175511 318 8358258138116717451
45790113 50 18341897423966114909
5374978 207 18272930557282748243
74978 22 18334858333450776994

> <PUBCHEM_SHAPE_MULTIPOLES>
304.6
8.92
1.8
1.19
0.1
0.74
-0.07
-2.12
0.19
-0.03
-0.34
-0.01
0.15
-0.15

> <PUBCHEM_SHAPE_SELFOVERLAP>
609.899

> <PUBCHEM_SHAPE_VOLUME>
179.7

> <PUBCHEM_COORDINATE_TYPE>
2
5
10

$$$$
