141996
  -OEChem-11012400503D

 28 29  0     0  0  0  0  0  0999 V2000
    1.0385    0.9990    0.0290 N   0  0  0  0  0  0  0  0  0  0  0  0
   -0.1629    0.3451    0.0137 N   0  0  0  0  0  0  0  0  0  0  0  0
   -1.1298    1.1405    0.0296 N   0  0  0  0  0  0  0  0  0  0  0  0
    1.1240    2.3944   -0.0479 N   0  0  0  0  0  0  0  0  0  0  0  0
    2.2318    0.2212    0.0139 C   0  0  0  0  0  0  0  0  0  0  0  0
    2.1443   -1.1636   -0.0158 C   0  0  0  0  0  0  0  0  0  0  0  0
    3.4643    0.8594    0.0280 C   0  0  0  0  0  0  0  0  0  0  0  0
    3.3126   -1.9255   -0.0318 C   0  0  0  0  0  0  0  0  0  0  0  0
    4.6325    0.0974    0.0120 C   0  0  0  0  0  0  0  0  0  0  0  0
   -2.3342    0.4302    0.0137 C   0  0  0  0  0  0  0  0  0  0  0  0
    4.5568   -1.2951   -0.0179 C   0  0  0  0  0  0  0  0  0  0  0  0
   -2.9359    0.0505    1.2135 C   0  0  0  0  0  0  0  0  0  0  0  0
   -2.9336    0.1007   -1.2019 C   0  0  0  0  0  0  0  0  0  0  0  0
   -4.1371   -0.6583    1.1976 C   0  0  0  0  0  0  0  0  0  0  0  0
   -4.1348   -0.6082   -1.2177 C   0  0  0  0  0  0  0  0  0  0  0  0
   -4.7366   -0.9877   -0.0179 C   0  0  0  0  0  0  0  0  0  0  0  0
    1.1945   -1.6901   -0.0276 H   0  0  0  0  0  0  0  0  0  0  0  0
    3.5682    1.9399    0.0546 H   0  0  0  0  0  0  0  0  0  0  0  0
    3.2540   -3.0099   -0.0551 H   0  0  0  0  0  0  0  0  0  0  0  0
    5.6016    0.5877    0.0237 H   0  0  0  0  0  0  0  0  0  0  0  0
    5.4664   -1.8883   -0.0302 H   0  0  0  0  0  0  0  0  0  0  0  0
   -2.4770    0.3030    2.1659 H   0  0  0  0  0  0  0  0  0  0  0  0
   -2.4729    0.3924   -2.1421 H   0  0  0  0  0  0  0  0  0  0  0  0
   -4.6058   -0.9538    2.1317 H   0  0  0  0  0  0  0  0  0  0  0  0
   -4.6016   -0.8646   -2.1643 H   0  0  0  0  0  0  0  0  0  0  0  0
   -5.6719   -1.5396   -0.0303 H   0  0  0  0  0  0  0  0  0  0  0  0
    0.4148    2.7868    0.5697 H   0  0  0  0  0  0  0  0  0  0  0  0
    0.8594    2.6739   -0.9918 H   0  0  0  0  0  0  0  0  0  0  0  0
  1  2  1  0  0  0  0
  1  4  1  0  0  0  0
  1  5  1  0  0  0  0
  2  3  2  0  0  0  0
  3 10  1  0  0  0  0
  4 27  1  0  0  0  0
  4 28  1  0  0  0  0
  5  6  2  0  0  0  0
  5  7  1  0  0  0  0
  6  8  1  0  0  0  0
  6 17  1  0  0  0  0
  7  9  2  0  0  0  0
  7 18  1  0  0  0  0
  8 11  2  0  0  0  0
  8 19  1  0  0  0  0
  9 11  1  0  0  0  0
  9 20  1  0  0  0  0
 10 12  2  0  0  0  0
 10 13  1  0  0  0  0
 11 21  1  0  0  0  0
 12 14  1  0  0  0  0
 12 22  1  0  0  0  0
 13 15  2  0  0  0  0
 13 23  1  0  0  0  0
 14 16  2  0  0  0  0
 14 24  1  0  0  0  0
 15 16  1  0  0  0  0
 15 25  1  0  0  0  0
 16 26  1  0  0  0  0
M  END
> <PUBCHEM_COMPOUND_CID>
141996

> <PUBCHEM_CONFORMER_RMSD>
0.6

> <PUBCHEM_CONFORMER_DIVERSEORDER>
1
10
7
4
6
8
2
5
9
3

> <PUBCHEM_MMFF94_PARTIAL_CHARGES>
28
1 -0.07
10 0.18
11 -0.15
12 -0.15
13 -0.15
14 -0.15
15 -0.15
16 -0.15
17 0.15
18 0.15
19 0.15
2 -0.04
20 0.15
21 0.15
22 0.15
23 0.15
24 0.15
25 0.15
26 0.15
27 0.36
28 0.36
3 -0.18
4 -0.71
5 0.1
6 -0.15
7 -0.15
8 -0.15
9 -0.15

> <PUBCHEM_EFFECTIVE_ROTOR_COUNT>
3

> <PUBCHEM_PHARMACOPHORE_FEATURES>
3
1 4 donor
6 10 12 13 14 15 16 rings
6 5 6 7 8 9 11 rings

> <PUBCHEM_HEAVY_ATOM_COUNT>
16

> <PUBCHEM_ATOM_DEF_STEREO_COUNT>
0

> <PUBCHEM_ATOM_UDEF_STEREO_COUNT>
0

> <PUBCHEM_BOND_DEF_STEREO_COUNT>
0

> <PUBCHEM_BOND_UDEF_STEREO_COUNT>
0

> <PUBCHEM_ISOTOPIC_ATOM_COUNT>
0

> <PUBCHEM_COMPONENT_COUNT>
1

> <PUBCHEM_CACTVS_TAUTO_COUNT>
1

> <PUBCHEM_CONFORMER_ID>
00022AAC00000001

> <PUBCHEM_MMFF94_ENERGY>
51.038

> <PUBCHEM_FEATURE_SELFOVERLAP>
15.223

> <PUBCHEM_SHAPE_FINGERPRINT>
11543360 7 15719686415064764102
11806522 49 18410011039867621452
12236239 1 17775287183778023555
12596602 18 16988841704733365202
13167823 11 18060138738700718143
13544653 18 18408606937532973956
13583140 156 15194710204342433906
13675066 3 12895071829470254444
13862211 1 18337951200189915490
14123260 362 12179846082970874631
14252887 29 18060425681729901014
14386348 63 18040437702476493691
15188451 53 16199853043199283167
15375462 189 18060700593563936808
15477762 27 18409166627864712892
15961568 22 15864358025118507076
17870717 6 17167866340047083859
1813 80 18272103681299175468
18186145 218 17095527274889530120
19433438 38 17603861187313878791
200 152 18343016701281267649
20261772 1 18060415824469045382
20279233 1 17748545939481931179
20281475 54 18411422829745556901
20300324 65 14273458085110710959
20325693 3 15791731897832961483
20432913 95 18413110558524411227
20645477 70 18261107516954065940
20871999 31 16515686628421841461
21267235 1 18341057345912424262
212847 35 10303812086377197394
221490 88 18189903199763525571
22485316 2 18413669097662346977
2255824 54 18199470046405867004
22646028 1 18059855073432981375
22646028 28 18343863312059804399
23402539 116 18410291368082730984
23403322 49 18187364307519838331
23557571 272 17167855353035353676
23559900 14 17531526580622704157
2871803 45 18187080624813892946
314194 84 18341613732707502202
3268164 11 15719382945840417679
33824 294 18408319987058653370
351380 3 18202284701509399118
4921388 177 16153718621913900331
5104073 3 18269269067898779208
5281201 14 17603305963869525404
573450 72 17132116849119854755
602551 16 15482378850501406014
83771 10 18342737403505024392

> <PUBCHEM_SHAPE_MULTIPOLES>
309.35
11.03
1.63
0.98
0.67
0.23
0
-4.27
0.04
-1.41
0.02
1.37
-0.11
0.04

> <PUBCHEM_SHAPE_SELFOVERLAP>
659.028

> <PUBCHEM_SHAPE_VOLUME>
171.9

> <PUBCHEM_COORDINATE_TYPE>
2
5
10

$$$$
