23716
  -OEChem-11012401273D

 36 35  0     0  0  0  0  0  0999 V2000
   -5.6016    0.4781   -0.0520 O   0  0  0  0  0  0  0  0  0  0  0  0
    0.5937   -0.4300    0.0771 C   0  0  0  0  0  0  0  0  0  0  0  0
    1.8946    0.3771    0.1150 C   0  0  0  0  0  0  0  0  0  0  0  0
   -0.6633    0.4424    0.0624 C   0  0  0  0  0  0  0  0  0  0  0  0
    3.1523   -0.4927    0.0548 C   0  0  0  0  0  0  0  0  0  0  0  0
   -1.9320   -0.4144    0.0554 C   0  0  0  0  0  0  0  0  0  0  0  0
    4.4184    0.3667    0.0221 C   0  0  0  0  0  0  0  0  0  0  0  0
   -3.1908    0.4569    0.0105 C   0  0  0  0  0  0  0  0  0  0  0  0
    5.6751   -0.4979   -0.0766 C   0  0  0  0  0  0  0  0  0  0  0  0
   -4.4665   -0.3754   -0.0305 C   0  0  0  0  0  0  0  0  0  0  0  0
    6.9329    0.3534   -0.1431 C   0  0  0  0  0  0  0  0  0  0  0  0
   -6.8131   -0.2643   -0.0951 C   0  0  0  0  0  0  0  0  0  0  0  0
    0.5955   -1.0709   -0.8135 H   0  0  0  0  0  0  0  0  0  0  0  0
    0.5641   -1.0976    0.9471 H   0  0  0  0  0  0  0  0  0  0  0  0
    1.9011    1.0768   -0.7302 H   0  0  0  0  0  0  0  0  0  0  0  0
    1.9154    0.9845    1.0282 H   0  0  0  0  0  0  0  0  0  0  0  0
   -0.6660    1.0970    0.9422 H   0  0  0  0  0  0  0  0  0  0  0  0
   -0.6483    1.0894   -0.8230 H   0  0  0  0  0  0  0  0  0  0  0  0
    3.1154   -1.1254   -0.8402 H   0  0  0  0  0  0  0  0  0  0  0  0
    3.1786   -1.1612    0.9235 H   0  0  0  0  0  0  0  0  0  0  0  0
   -1.9554   -1.0476    0.9505 H   0  0  0  0  0  0  0  0  0  0  0  0
   -1.9193   -1.0823   -0.8144 H   0  0  0  0  0  0  0  0  0  0  0  0
    4.4666    0.9861    0.9259 H   0  0  0  0  0  0  0  0  0  0  0  0
    4.3763    1.0492   -0.8356 H   0  0  0  0  0  0  0  0  0  0  0  0
   -3.2200    1.1217    0.8829 H   0  0  0  0  0  0  0  0  0  0  0  0
   -3.1636    1.1159   -0.8665 H   0  0  0  0  0  0  0  0  0  0  0  0
    5.6232   -1.1306   -0.9704 H   0  0  0  0  0  0  0  0  0  0  0  0
    5.7364   -1.1656    0.7906 H   0  0  0  0  0  0  0  0  0  0  0  0
   -4.5155   -1.0226    0.8533 H   0  0  0  0  0  0  0  0  0  0  0  0
   -4.4684   -1.0074   -0.9266 H   0  0  0  0  0  0  0  0  0  0  0  0
    7.0319    0.9774    0.7509 H   0  0  0  0  0  0  0  0  0  0  0  0
    6.9174    1.0088   -1.0199 H   0  0  0  0  0  0  0  0  0  0  0  0
    7.8194   -0.2848   -0.2118 H   0  0  0  0  0  0  0  0  0  0  0  0
   -6.8566   -0.8753   -1.0019 H   0  0  0  0  0  0  0  0  0  0  0  0
   -7.6483    0.4409   -0.1094 H   0  0  0  0  0  0  0  0  0  0  0  0
   -6.9064   -0.8982    0.7921 H   0  0  0  0  0  0  0  0  0  0  0  0
  1 10  1  0  0  0  0
  1 12  1  0  0  0  0
  2  3  1  0  0  0  0
  2  4  1  0  0  0  0
  2 13  1  0  0  0  0
  2 14  1  0  0  0  0
  3  5  1  0  0  0  0
  3 15  1  0  0  0  0
  3 16  1  0  0  0  0
  4  6  1  0  0  0  0
  4 17  1  0  0  0  0
  4 18  1  0  0  0  0
  5  7  1  0  0  0  0
  5 19  1  0  0  0  0
  5 20  1  0  0  0  0
  6  8  1  0  0  0  0
  6 21  1  0  0  0  0
  6 22  1  0  0  0  0
  7  9  1  0  0  0  0
  7 23  1  0  0  0  0
  7 24  1  0  0  0  0
  8 10  1  0  0  0  0
  8 25  1  0  0  0  0
  8 26  1  0  0  0  0
  9 11  1  0  0  0  0
  9 27  1  0  0  0  0
  9 28  1  0  0  0  0
 10 29  1  0  0  0  0
 10 30  1  0  0  0  0
 11 31  1  0  0  0  0
 11 32  1  0  0  0  0
 11 33  1  0  0  0  0
 12 34  1  0  0  0  0
 12 35  1  0  0  0  0
 12 36  1  0  0  0  0
M  END
> <PUBCHEM_COMPOUND_CID>
23716

> <PUBCHEM_CONFORMER_RMSD>
0.8

> <PUBCHEM_CONFORMER_DIVERSEORDER>
1
90
151
293
39
18
3
319
281
134
272
98
284
88
365
71
42
270
306
48
109
128
60
324
289
55
59
66
279
331
125
198
363
230
332
323
171
184
2
347
296
45
328
196
25
346
6
383
238
330
63
313
30
162
227
364
43
159
205
247
336
267
219
326
339
150
144
34
351
215
234
359
96
139
246
147
169
119
242
167
154
274
160
265
262
52
301
277
123
263
385
12
370
276
298
44
93
376
107
181
243
8
101
57
78
194
255
317
308
303
172
70
387
357
5
218
315
76
188
354
49
195
178
89
309
374
122
213
29
7
311
65
121
120
348
100
116
9
81
225
183
38
163
180
72
20
142
115
124
138
222
372
302
342
250
10
236
130
208
286
53
320
106
14
258
111
316
23
226
50
380
155
102
19
239
249
40
153
252
259
329
36
268
92
207
145
21
191
201
192
223
388
31
231
51
73
253
174
341
83
37
360
54
391
16
291
158
206
278
245
75
35
82
304
202
210
361
287
187
217
141
131
64
248
112
251
126
216
46
17
283
62
185
22
77
269
132
68
260
297
69
113
288
197
307
56
143
74
335
273
305
322
13
173
15
133
358
294
166
355
114
254
41
261
233
91
193
375
11
386
232
349
28
271
378
318
175
4
179
176
27
67
137
58
327
84
295
384
127
367
47
170
149
353
136
204
95
256
24
300
61
325
389
237
244
377
97
190
152
168
214
32
369
146
290
212
103
177
203
275
161
85
165
343
321
33
338
345
257
285
350
79
108
371
87
148
99
312
241
229
94
240
362
105
333
26
228
224
334
292
80
381
220
280
200
310
118
199
86
209
382
189
266
264
299
110
211
182
390
221
157
314
156
104
117
352
340
282
129
164
186
344
356
135
140
379
368
337
373
235
366

> <PUBCHEM_MMFF94_PARTIAL_CHARGES>
3
1 -0.56
10 0.28
12 0.28

> <PUBCHEM_EFFECTIVE_ROTOR_COUNT>
9

> <PUBCHEM_PHARMACOPHORE_FEATURES>
2
1 1 acceptor
1 11 hydrophobe

> <PUBCHEM_HEAVY_ATOM_COUNT>
12

> <PUBCHEM_ATOM_DEF_STEREO_COUNT>
0

> <PUBCHEM_ATOM_UDEF_STEREO_COUNT>
0

> <PUBCHEM_BOND_DEF_STEREO_COUNT>
0

> <PUBCHEM_BOND_UDEF_STEREO_COUNT>
0

> <PUBCHEM_ISOTOPIC_ATOM_COUNT>
0

> <PUBCHEM_COMPONENT_COUNT>
1

> <PUBCHEM_CACTVS_TAUTO_COUNT>
1

> <PUBCHEM_CONFORMER_ID>
00005CA400000001

> <PUBCHEM_MMFF94_ENERGY>
2.5365

> <PUBCHEM_FEATURE_SELFOVERLAP>
10.148

> <PUBCHEM_SHAPE_FINGERPRINT>
10968037 39 18409166619453931471
12091667 2 18408041810790496393
12714333 28 17167581587767304392
13533116 47 16877931708203462192
14123238 8 18410573976566797802
1420 363 18342461443150205719
14251718 22 18410573976561516555
14251764 46 18410011039503572619
17834076 25 18410292510174746982
20645477 70 18270401569128741806
20767249 213 18113901571928356572
23402539 116 18202558493158512125
23521765 1 18341895194640646150
33684 2 18410572881344869067
42788 4 18411699885322115833
4463277 17 18410573985394453508
8209 1 18410573989456974460

> <PUBCHEM_SHAPE_MULTIPOLES>
241.09
19.1
0.78
0.61
1.49
0.01
0
-0.08
-1.2
-0.09
0
-0.05
0
-0.02

> <PUBCHEM_SHAPE_SELFOVERLAP>
424.234

> <PUBCHEM_SHAPE_VOLUME>
159.1

> <PUBCHEM_COORDINATE_TYPE>
2
5
10

$$$$
