69140
  -OEChem-11012401043D

 17 18  0     0  0  0  0  0  0999 V2000
    2.0225   -2.3378   -0.0002 Cl  0  0  0  0  0  0  0  0  0  0  0  0
    0.5162    1.9173    0.0000 N   0  0  0  0  0  0  0  0  0  0  0  0
    0.0149   -0.4398    0.0000 C   0  0  0  0  0  0  0  0  0  0  0  0
   -0.3818    0.9139   -0.0001 C   0  0  0  0  0  0  0  0  0  0  0  0
   -0.9495   -1.4619    0.0001 C   0  0  0  0  0  0  0  0  0  0  0  0
    1.3869   -0.7253    0.0001 C   0  0  0  0  0  0  0  0  0  0  0  0
   -1.7448    1.1970    0.0000 C   0  0  0  0  0  0  0  0  0  0  0  0
   -2.3060   -1.1502    0.0001 C   0  0  0  0  0  0  0  0  0  0  0  0
   -2.7038    0.1810   -0.0001 C   0  0  0  0  0  0  0  0  0  0  0  0
    2.3145    0.3065    0.0001 C   0  0  0  0  0  0  0  0  0  0  0  0
    1.8309    1.5992    0.0000 C   0  0  0  0  0  0  0  0  0  0  0  0
   -0.6787   -2.5140    0.0002 H   0  0  0  0  0  0  0  0  0  0  0  0
   -2.0824    2.2319   -0.0001 H   0  0  0  0  0  0  0  0  0  0  0  0
   -3.0487   -1.9422    0.0001 H   0  0  0  0  0  0  0  0  0  0  0  0
   -3.7602    0.4334    0.0000 H   0  0  0  0  0  0  0  0  0  0  0  0
    3.3837    0.1236    0.0001 H   0  0  0  0  0  0  0  0  0  0  0  0
    2.5087    2.4465    0.0001 H   0  0  0  0  0  0  0  0  0  0  0  0
  1  6  1  0  0  0  0
  2  4  1  0  0  0  0
  2 11  2  0  0  0  0
  3  4  1  0  0  0  0
  3  5  2  0  0  0  0
  3  6  1  0  0  0  0
  4  7  2  0  0  0  0
  5  8  1  0  0  0  0
  5 12  1  0  0  0  0
  6 10  2  0  0  0  0
  7  9  1  0  0  0  0
  7 13  1  0  0  0  0
  8  9  2  0  0  0  0
  8 14  1  0  0  0  0
  9 15  1  0  0  0  0
 10 11  1  0  0  0  0
 10 16  1  0  0  0  0
 11 17  1  0  0  0  0
M  END
> <PUBCHEM_COMPOUND_CID>
69140

> <PUBCHEM_CONFORMER_RMSD>
0.4

> <PUBCHEM_CONFORMER_DIVERSEORDER>
1

> <PUBCHEM_MMFF94_PARTIAL_CHARGES>
16
1 -0.18
10 -0.15
11 0.16
12 0.15
13 0.15
14 0.15
15 0.15
16 0.15
17 0.15
2 -0.62
4 0.31
5 -0.15
6 0.18
7 -0.15
8 -0.15
9 -0.15

> <PUBCHEM_EFFECTIVE_ROTOR_COUNT>
0

> <PUBCHEM_PHARMACOPHORE_FEATURES>
3
1 2 acceptor
6 2 3 4 6 10 11 rings
6 3 4 5 7 8 9 rings

> <PUBCHEM_HEAVY_ATOM_COUNT>
11

> <PUBCHEM_ATOM_DEF_STEREO_COUNT>
0

> <PUBCHEM_ATOM_UDEF_STEREO_COUNT>
0

> <PUBCHEM_BOND_DEF_STEREO_COUNT>
0

> <PUBCHEM_BOND_UDEF_STEREO_COUNT>
0

> <PUBCHEM_ISOTOPIC_ATOM_COUNT>
0

> <PUBCHEM_COMPONENT_COUNT>
1

> <PUBCHEM_CACTVS_TAUTO_COUNT>
1

> <PUBCHEM_CONFORMER_ID>
00010E1400000001

> <PUBCHEM_MMFF94_ENERGY>
32.394

> <PUBCHEM_FEATURE_SELFOVERLAP>
15.254

> <PUBCHEM_SHAPE_FINGERPRINT>
12423570 1 12533699788139415538
12524768 44 18409729543152414695
12897270 3 18338236093031737285
13380535 76 18264481952531272834
16945 1 18410855507483656293
17990270 104 18410291402147284546
193761 8 18338516318178460292
19973954 147 18410857655041066395
20201158 50 18409444808258609575
21040471 1 17762337320198669028
21501502 16 18411139112690247287
2334 1 18338517439106700899
23463225 33 18334850632827538512
23552423 10 18335987540139552742
23559900 14 17549257031230941238
241688 4 18050005497910546696
2748010 2 18266175037186845791
5084963 1 17914342521957878336
528886 8 18195241341590503016
63268167 104 18410858733056895305
66348 1 18411420587630021687
7364860 26 18343018887393377498

> <PUBCHEM_SHAPE_MULTIPOLES>
223.26
3.57
2.25
0.61
0.69
0.28
0
0.59
0
-0.98
0
0
0.02
0

> <PUBCHEM_SHAPE_SELFOVERLAP>
482.227

> <PUBCHEM_SHAPE_VOLUME>
122.3

> <PUBCHEM_COORDINATE_TYPE>
2
5
10

$$$$
