12890857
  -OEChem-11012400313D

 24 24  0     1  0  0  0  0  0999 V2000
    3.3627   -0.4770    0.1000 O   0  0  0  0  0  0  0  0  0  0  0  0
   -2.6858   -1.6241    0.3403 O   0  0  0  0  0  0  0  0  0  0  0  0
    1.5616   -1.7605    0.6524 O   0  0  0  0  0  0  0  0  0  0  0  0
   -3.2511    0.4438   -0.4343 O   0  0  0  0  0  0  0  0  0  0  0  0
    1.3054    0.0856   -0.8930 C   0  0  1  0  0  0  0  0  0  0  0  0
   -0.9760   -0.0170    0.2386 C   0  0  1  0  0  0  0  0  0  0  0  0
   -0.1591   -0.3448   -1.0149 C   0  0  0  0  0  0  0  0  0  0  0  0
    1.4407    1.5438   -0.4476 C   0  0  0  0  0  0  0  0  0  0  0  0
   -0.8467    1.4561    0.6240 C   0  0  0  0  0  0  0  0  0  0  0  0
    0.6133    1.8614    0.7975 C   0  0  0  0  0  0  0  0  0  0  0  0
    2.0551   -0.8283    0.0352 C   0  0  0  0  0  0  0  0  0  0  0  0
   -2.4200   -0.3389    0.0017 C   0  0  0  0  0  0  0  0  0  0  0  0
    1.7711   -0.0344   -1.8802 H   0  0  0  0  0  0  0  0  0  0  0  0
   -0.6353   -0.6144    1.0929 H   0  0  0  0  0  0  0  0  0  0  0  0
   -0.6034    0.1665   -1.8801 H   0  0  0  0  0  0  0  0  0  0  0  0
   -0.2296   -1.4181   -1.2348 H   0  0  0  0  0  0  0  0  0  0  0  0
    1.0968    2.1899   -1.2660 H   0  0  0  0  0  0  0  0  0  0  0  0
    2.4863    1.8155   -0.2638 H   0  0  0  0  0  0  0  0  0  0  0  0
   -1.3946    1.6525    1.5540 H   0  0  0  0  0  0  0  0  0  0  0  0
   -1.3013    2.0965   -0.1434 H   0  0  0  0  0  0  0  0  0  0  0  0
    1.0372    1.3420    1.6655 H   0  0  0  0  0  0  0  0  0  0  0  0
    0.6725    2.9346    1.0117 H   0  0  0  0  0  0  0  0  0  0  0  0
    3.8693   -1.0609    0.7037 H   0  0  0  0  0  0  0  0  0  0  0  0
   -3.6278   -1.8545    0.1929 H   0  0  0  0  0  0  0  0  0  0  0  0
  1 11  1  0  0  0  0
  1 23  1  0  0  0  0
  2 12  1  0  0  0  0
  2 24  1  0  0  0  0
  3 11  2  0  0  0  0
  4 12  2  0  0  0  0
  5  7  1  0  0  0  0
  5  8  1  0  0  0  0
  5 11  1  0  0  0  0
  5 13  1  0  0  0  0
  6  7  1  0  0  0  0
  6  9  1  0  0  0  0
  6 12  1  0  0  0  0
  6 14  1  0  0  0  0
  7 15  1  0  0  0  0
  7 16  1  0  0  0  0
  8 10  1  0  0  0  0
  8 17  1  0  0  0  0
  8 18  1  0  0  0  0
  9 10  1  0  0  0  0
  9 19  1  0  0  0  0
  9 20  1  0  0  0  0
 10 21  1  0  0  0  0
 10 22  1  0  0  0  0
M  END
> <PUBCHEM_COMPOUND_CID>
12890857

> <PUBCHEM_CONFORMER_RMSD>
0.6

> <PUBCHEM_CONFORMER_DIVERSEORDER>
1
9
7
3
5
2
8
6
4

> <PUBCHEM_MMFF94_PARTIAL_CHARGES>
10
1 -0.65
11 0.66
12 0.66
2 -0.65
23 0.5
24 0.5
3 -0.57
4 -0.57
5 0.06
6 0.06

> <PUBCHEM_EFFECTIVE_ROTOR_COUNT>
3.2

> <PUBCHEM_PHARMACOPHORE_FEATURES>
7
1 1 acceptor
1 2 acceptor
1 3 acceptor
1 4 acceptor
3 1 3 11 anion
3 2 4 12 anion
6 5 6 7 8 9 10 rings

> <PUBCHEM_HEAVY_ATOM_COUNT>
12

> <PUBCHEM_ATOM_DEF_STEREO_COUNT>
2

> <PUBCHEM_ATOM_UDEF_STEREO_COUNT>
0

> <PUBCHEM_BOND_DEF_STEREO_COUNT>
0

> <PUBCHEM_BOND_UDEF_STEREO_COUNT>
0

> <PUBCHEM_ISOTOPIC_ATOM_COUNT>
0

> <PUBCHEM_COMPONENT_COUNT>
1

> <PUBCHEM_CACTVS_TAUTO_COUNT>
1

> <PUBCHEM_CONFORMER_ID>
00C4B2E900000001

> <PUBCHEM_MMFF94_ENERGY>
14.2991

> <PUBCHEM_FEATURE_SELFOVERLAP>
35.634

> <PUBCHEM_SHAPE_FINGERPRINT>
10130415 120 18341334414083721793
10219947 1 17632294566624318750
10857977 72 17988920046291151954
12932764 1 18267314294953720935
14128692 85 18334300872270335758
15076042 46 17839738162816866090
16945 1 18335430019040676260
18185500 45 18264778670531305922
20201158 50 18407758123125263819
20645477 70 18270680999753526895
20653091 64 18340214080090569352
20711985 344 17770243573095671165
21501502 16 18339646758382537109
23552423 10 18335144249386832885
2748010 2 18196373834309048717
3312278 4 18408889516184345891
5084963 1 18041282153028580429
528862 383 18265324195939823800
528886 8 16588025688709466707
54338 74 18195245516377998409
5493415 88 18410572928652994970
75552 356 18341614750493029346

> <PUBCHEM_SHAPE_MULTIPOLES>
223.48
4.13
1.8
0.91
1.25
0.35
0.09
-1.4
-0.03
-0.31
-0.46
-0.11
0.04
-0.11

> <PUBCHEM_SHAPE_SELFOVERLAP>
452.331

> <PUBCHEM_SHAPE_VOLUME>
128

> <PUBCHEM_COORDINATE_TYPE>
2
5
10

$$$$
