137171
  -OEChem-11012400403D

 37 38  0     0  0  0  0  0  0999 V2000
    0.0142    0.6218    1.0749 C   0  0  0  0  0  0  0  0  0  0  0  0
   -1.2781    0.2419    0.3414 C   0  0  0  0  0  0  0  0  0  0  0  0
    1.2847    0.2848    0.2872 C   0  0  0  0  0  0  0  0  0  0  0  0
   -2.5717    0.4706    1.1352 C   0  0  0  0  0  0  0  0  0  0  0  0
    2.5666    0.5942    1.0707 C   0  0  0  0  0  0  0  0  0  0  0  0
   -3.8273    0.1299    0.3714 C   0  0  0  0  0  0  0  0  0  0  0  0
    3.8239    0.1863    0.3426 C   0  0  0  0  0  0  0  0  0  0  0  0
   -4.4479    1.1092   -0.3888 C   0  0  0  0  0  0  0  0  0  0  0  0
    4.3364   -1.0876    0.5322 C   0  0  0  0  0  0  0  0  0  0  0  0
   -4.3390   -1.1568    0.4424 C   0  0  0  0  0  0  0  0  0  0  0  0
    4.4440    1.0925   -0.5037 C   0  0  0  0  0  0  0  0  0  0  0  0
   -5.6087    0.7942   -1.0953 C   0  0  0  0  0  0  0  0  0  0  0  0
    5.4984   -1.4649   -0.1409 C   0  0  0  0  0  0  0  0  0  0  0  0
   -5.4997   -1.4716   -0.2641 C   0  0  0  0  0  0  0  0  0  0  0  0
    5.6059    0.7152   -1.1769 C   0  0  0  0  0  0  0  0  0  0  0  0
   -6.1346   -0.4960   -1.0330 C   0  0  0  0  0  0  0  0  0  0  0  0
    6.1331   -0.5636   -0.9954 C   0  0  0  0  0  0  0  0  0  0  0  0
   -0.0011    1.6951    1.3001 H   0  0  0  0  0  0  0  0  0  0  0  0
    0.0400    0.0961    2.0374 H   0  0  0  0  0  0  0  0  0  0  0  0
   -1.2236   -0.8165    0.0544 H   0  0  0  0  0  0  0  0  0  0  0  0
   -1.3259    0.8082   -0.5979 H   0  0  0  0  0  0  0  0  0  0  0  0
    1.2854    0.8414   -0.6583 H   0  0  0  0  0  0  0  0  0  0  0  0
    1.2689   -0.7800    0.0216 H   0  0  0  0  0  0  0  0  0  0  0  0
   -2.6196    1.5188    1.4584 H   0  0  0  0  0  0  0  0  0  0  0  0
   -2.5398   -0.1169    2.0621 H   0  0  0  0  0  0  0  0  0  0  0  0
    2.6087    1.6670    1.3004 H   0  0  0  0  0  0  0  0  0  0  0  0
    2.5362    0.0884    2.0448 H   0  0  0  0  0  0  0  0  0  0  0  0
   -4.0447    2.1162   -0.4454 H   0  0  0  0  0  0  0  0  0  0  0  0
    3.8480   -1.7972    1.1938 H   0  0  0  0  0  0  0  0  0  0  0  0
   -3.8505   -1.9237    1.0367 H   0  0  0  0  0  0  0  0  0  0  0  0
    4.0397    2.0896   -0.6528 H   0  0  0  0  0  0  0  0  0  0  0  0
   -6.1027    1.5535   -1.6944 H   0  0  0  0  0  0  0  0  0  0  0  0
    5.9086   -2.4607   -0.0003 H   0  0  0  0  0  0  0  0  0  0  0  0
   -5.9090   -2.4764   -0.2162 H   0  0  0  0  0  0  0  0  0  0  0  0
    6.0999    1.4166   -1.8428 H   0  0  0  0  0  0  0  0  0  0  0  0
   -7.0383   -0.7413   -1.5833 H   0  0  0  0  0  0  0  0  0  0  0  0
    7.0376   -0.8574   -1.5198 H   0  0  0  0  0  0  0  0  0  0  0  0
  1  2  1  0  0  0  0
  1  3  1  0  0  0  0
  1 18  1  0  0  0  0
  1 19  1  0  0  0  0
  2  4  1  0  0  0  0
  2 20  1  0  0  0  0
  2 21  1  0  0  0  0
  3  5  1  0  0  0  0
  3 22  1  0  0  0  0
  3 23  1  0  0  0  0
  4  6  1  0  0  0  0
  4 24  1  0  0  0  0
  4 25  1  0  0  0  0
  5  7  1  0  0  0  0
  5 26  1  0  0  0  0
  5 27  1  0  0  0  0
  6  8  2  0  0  0  0
  6 10  1  0  0  0  0
  7  9  2  0  0  0  0
  7 11  1  0  0  0  0
  8 12  1  0  0  0  0
  8 28  1  0  0  0  0
  9 13  1  0  0  0  0
  9 29  1  0  0  0  0
 10 14  2  0  0  0  0
 10 30  1  0  0  0  0
 11 15  2  0  0  0  0
 11 31  1  0  0  0  0
 12 16  2  0  0  0  0
 12 32  1  0  0  0  0
 13 17  2  0  0  0  0
 13 33  1  0  0  0  0
 14 16  1  0  0  0  0
 14 34  1  0  0  0  0
 15 17  1  0  0  0  0
 15 35  1  0  0  0  0
 16 36  1  0  0  0  0
 17 37  1  0  0  0  0
M  END
> <PUBCHEM_COMPOUND_CID>
137171

> <PUBCHEM_CONFORMER_RMSD>
0.8

> <PUBCHEM_CONFORMER_DIVERSEORDER>
1
2
19
24
28
5
21
26
10
8
16
27
7
23
13
18
14
3
20
4
15
6
11
12
9
25
22
17

> <PUBCHEM_MMFF94_PARTIAL_CHARGES>
24
10 -0.15
11 -0.15
12 -0.15
13 -0.15
14 -0.15
15 -0.15
16 -0.15
17 -0.15
28 0.15
29 0.15
30 0.15
31 0.15
32 0.15
33 0.15
34 0.15
35 0.15
36 0.15
37 0.15
4 0.14
5 0.14
6 -0.14
7 -0.14
8 -0.15
9 -0.15

> <PUBCHEM_EFFECTIVE_ROTOR_COUNT>
6

> <PUBCHEM_PHARMACOPHORE_FEATURES>
3
5 1 2 3 4 5 hydrophobe
6 6 8 10 12 14 16 rings
6 7 9 11 13 15 17 rings

> <PUBCHEM_HEAVY_ATOM_COUNT>
17

> <PUBCHEM_ATOM_DEF_STEREO_COUNT>
0

> <PUBCHEM_ATOM_UDEF_STEREO_COUNT>
0

> <PUBCHEM_BOND_DEF_STEREO_COUNT>
0

> <PUBCHEM_BOND_UDEF_STEREO_COUNT>
0

> <PUBCHEM_ISOTOPIC_ATOM_COUNT>
0

> <PUBCHEM_COMPONENT_COUNT>
1

> <PUBCHEM_CACTVS_TAUTO_COUNT>
1

> <PUBCHEM_CONFORMER_ID>
000217D300000001

> <PUBCHEM_MMFF94_ENERGY>
36.0141

> <PUBCHEM_FEATURE_SELFOVERLAP>
15.223

> <PUBCHEM_SHAPE_FINGERPRINT>
10 15 9007053587052193565
11089746 13 16660360407133471376
11315181 36 17988925583073910385
11524674 6 16271927138781312855
11545043 162 15626224572144520627
117890 112 12685090393148201896
12166972 35 18343585178710601217
12616971 3 15051728724846244001
12670543 26 18187363207670438065
13167372 99 10809333443409488358
13403585 85 9655580708180944971
13533116 47 11383845857135428548
13668630 136 17846501430463844238
13862211 1 17060337418137718390
14123256 34 16988851583305448876
1420 363 16845574222894785983
14251764 18 14189570849922685800
14528608 73 17676486159437407936
14848160 23 17775279469658083489
15048467 5 13984379980687190143
15183329 4 18186800253432546953
15188451 53 13614227205828562829
15348495 7 11239987971226786934
15716309 27 14908180854494227689
17834072 33 18334576854026020856
17844677 252 16845855693439704937
17857418 61 17561080293615176870
17870717 6 18410571799878306379
18222031 100 17561081410591679728
18927931 339 17346602976349693081
20281389 69 12829203377979694519
21150785 3 18187366566340060350
220451 1 18408888421336950859
22061861 79 18413668002287359724
221357 26 17967530160391884260
22289505 5 17530687611160913868
2297311 6 18409165528901711273
23035841 295 18060421322517437067
23081809 10 17632867425125626240
23198884 109 17385722487542768067
23522609 53 17201107956203885736
23559900 14 18270391819463017097
2767999 5 14129055932578113670
2916195 48 11097858501335252041
29717793 49 18410296883058128844
300161 21 14562527392417732400
3004659 81 18335419050416953962
312425 54 12967138215527764447
351380 3 17203609285058395278
3663271 9 11095881570680301678
4340502 62 10807938167438498780
465052 167 17418097624544492492
49783359 22 14476960086446197785
542803 24 16950279607169694201
543368 44 15719110267093567173
59682541 52 17023463050171294482
7062679 6 14129055894208381375
960060 61 18187366523870448376

> <PUBCHEM_SHAPE_MULTIPOLES>
349.85
19.53
1.33
1.18
0.07
0.31
-0.05
3.96
-7.84
0.04
-0.09
-0.04
-0.16
-0.06

> <PUBCHEM_SHAPE_SELFOVERLAP>
723.895

> <PUBCHEM_SHAPE_VOLUME>
191.6

> <PUBCHEM_COORDINATE_TYPE>
2
5
10

$$$$
