143871
  -OEChem-11012400493D

 23 22  0     0  0  0  0  0  0999 V2000
    4.6661    0.9029    0.2064 Cl  0  0  0  0  0  0  0  0  0  0  0  0
   -0.3664    0.2024    0.1623 O   0  0  0  0  0  0  0  0  0  0  0  0
    0.8759   -1.6560   -0.4068 O   0  0  0  0  0  0  0  0  0  0  0  0
   -2.7739    0.3349    0.3489 C   0  0  0  0  0  0  0  0  0  0  0  0
   -1.5649   -0.5520    0.0385 C   0  0  0  0  0  0  0  0  0  0  0  0
   -2.8659    1.5123   -0.6241 C   0  0  0  0  0  0  0  0  0  0  0  0
   -4.0607   -0.4864    0.3115 C   0  0  0  0  0  0  0  0  0  0  0  0
    1.9729    0.4538    0.1108 C   0  0  0  0  0  0  0  0  0  0  0  0
    0.7966   -0.4771   -0.0905 C   0  0  0  0  0  0  0  0  0  0  0  0
    3.3204   -0.2348   -0.0570 C   0  0  0  0  0  0  0  0  0  0  0  0
   -2.6508    0.7517    1.3568 H   0  0  0  0  0  0  0  0  0  0  0  0
   -1.5325   -1.3911    0.7441 H   0  0  0  0  0  0  0  0  0  0  0  0
   -1.6403   -0.9524   -0.9802 H   0  0  0  0  0  0  0  0  0  0  0  0
   -3.7351    2.1378   -0.3943 H   0  0  0  0  0  0  0  0  0  0  0  0
   -2.9633    1.1652   -1.6585 H   0  0  0  0  0  0  0  0  0  0  0  0
   -1.9766    2.1478   -0.5621 H   0  0  0  0  0  0  0  0  0  0  0  0
   -4.9265    0.1351    0.5633 H   0  0  0  0  0  0  0  0  0  0  0  0
   -4.0188   -1.3082    1.0342 H   0  0  0  0  0  0  0  0  0  0  0  0
   -4.2300   -0.9164   -0.6816 H   0  0  0  0  0  0  0  0  0  0  0  0
    1.8805    1.2700   -0.6151 H   0  0  0  0  0  0  0  0  0  0  0  0
    1.8997    0.8715    1.1218 H   0  0  0  0  0  0  0  0  0  0  0  0
    3.4268   -0.6487   -1.0648 H   0  0  0  0  0  0  0  0  0  0  0  0
    3.4335   -1.0555    0.6584 H   0  0  0  0  0  0  0  0  0  0  0  0
  1 10  1  0  0  0  0
  2  5  1  0  0  0  0
  2  9  1  0  0  0  0
  3  9  2  0  0  0  0
  4  5  1  0  0  0  0
  4  6  1  0  0  0  0
  4  7  1  0  0  0  0
  4 11  1  0  0  0  0
  5 12  1  0  0  0  0
  5 13  1  0  0  0  0
  6 14  1  0  0  0  0
  6 15  1  0  0  0  0
  6 16  1  0  0  0  0
  7 17  1  0  0  0  0
  7 18  1  0  0  0  0
  7 19  1  0  0  0  0
  8  9  1  0  0  0  0
  8 10  1  0  0  0  0
  8 20  1  0  0  0  0
  8 21  1  0  0  0  0
 10 22  1  0  0  0  0
 10 23  1  0  0  0  0
M  END
> <PUBCHEM_COMPOUND_CID>
143871

> <PUBCHEM_CONFORMER_RMSD>
0.6

> <PUBCHEM_CONFORMER_DIVERSEORDER>
1
63
62
65
60
28
33
59
4
14
32
3
42
44
66
53
24
29
51
49
20
68
48
11
61
25
64
2
41
7
34
16
9
67
36
18
38
58
30
5
21
56
46
40
10
15
26
23
37
57
52
50
39
31
47
6
13
35
27
45
12
8
19
55
54
43
22
17

> <PUBCHEM_MMFF94_PARTIAL_CHARGES>
7
1 -0.29
10 0.29
2 -0.43
3 -0.57
5 0.28
8 0.06
9 0.66

> <PUBCHEM_EFFECTIVE_ROTOR_COUNT>
5

> <PUBCHEM_PHARMACOPHORE_FEATURES>
2
1 3 acceptor
3 4 6 7 hydrophobe

> <PUBCHEM_HEAVY_ATOM_COUNT>
10

> <PUBCHEM_ATOM_DEF_STEREO_COUNT>
0

> <PUBCHEM_ATOM_UDEF_STEREO_COUNT>
0

> <PUBCHEM_BOND_DEF_STEREO_COUNT>
0

> <PUBCHEM_BOND_UDEF_STEREO_COUNT>
0

> <PUBCHEM_ISOTOPIC_ATOM_COUNT>
0

> <PUBCHEM_COMPONENT_COUNT>
1

> <PUBCHEM_CACTVS_TAUTO_COUNT>
1

> <PUBCHEM_CONFORMER_ID>
000231FF00000001

> <PUBCHEM_MMFF94_ENERGY>
7.7985

> <PUBCHEM_FEATURE_SELFOVERLAP>
10.148

> <PUBCHEM_SHAPE_FINGERPRINT>
11062470 55 18040999544175189792
12932764 1 14835834020331822227
14123238 8 18341895220589862976
14325111 11 18411419501282922602
14390081 3 18410573946829204269
170605 34 18411139117243982786
18186145 218 17275097358228087112
190213 19 16588025710163139240
20211469 26 12107779714093188836
20281407 28 10447928373500262564
20645477 70 17632306636057778214
20711985 327 15936416636456891839
20828058 21 18187087252074784382
21119208 17 13830136095960157712
21293036 1 17775286075323052832
22485316 2 9727633895402871316
23402539 116 17968089863439388327
23402655 69 18129935690151833493
366044 4 18343865545849123022

> <PUBCHEM_SHAPE_MULTIPOLES>
195.93
8.46
1.26
0.69
3.68
0.06
-0.01
2.16
0.76
-0.27
-0.21
-0.12
0.04
0.46

> <PUBCHEM_SHAPE_SELFOVERLAP>
350.069

> <PUBCHEM_SHAPE_VOLUME>
128.2

> <PUBCHEM_COORDINATE_TYPE>
2
5
10

$$$$
