69163
  -OEChem-11012401113D

 17 18  0     0  0  0  0  0  0999 V2000
   -3.7513   -0.7555    0.0000 Cl  0  0  0  0  0  0  0  0  0  0  0  0
    1.7883    1.2390    0.0000 N   0  0  0  0  0  0  0  0  0  0  0  0
    0.2576   -0.6223    0.0000 C   0  0  0  0  0  0  0  0  0  0  0  0
    0.5291    0.7619   -0.0001 C   0  0  0  0  0  0  0  0  0  0  0  0
   -1.0691   -1.0853    0.0000 C   0  0  0  0  0  0  0  0  0  0  0  0
    1.3439   -1.5077    0.0000 C   0  0  0  0  0  0  0  0  0  0  0  0
   -0.5504    1.6410    0.0000 C   0  0  0  0  0  0  0  0  0  0  0  0
   -2.1297   -0.1839    0.0000 C   0  0  0  0  0  0  0  0  0  0  0  0
   -1.8696    1.1809    0.0000 C   0  0  0  0  0  0  0  0  0  0  0  0
    2.6425   -1.0191    0.0000 C   0  0  0  0  0  0  0  0  0  0  0  0
    2.8087    0.3510    0.0000 C   0  0  0  0  0  0  0  0  0  0  0  0
   -1.2688   -2.1555    0.0001 H   0  0  0  0  0  0  0  0  0  0  0  0
    1.1840   -2.5835    0.0000 H   0  0  0  0  0  0  0  0  0  0  0  0
   -0.3732    2.7150    0.0001 H   0  0  0  0  0  0  0  0  0  0  0  0
   -2.6816    1.9036    0.0000 H   0  0  0  0  0  0  0  0  0  0  0  0
    3.4940   -1.6894    0.0001 H   0  0  0  0  0  0  0  0  0  0  0  0
    3.8007    0.7907    0.0001 H   0  0  0  0  0  0  0  0  0  0  0  0
  1  8  1  0  0  0  0
  2  4  1  0  0  0  0
  2 11  2  0  0  0  0
  3  4  2  0  0  0  0
  3  5  1  0  0  0  0
  3  6  1  0  0  0  0
  4  7  1  0  0  0  0
  5  8  2  0  0  0  0
  5 12  1  0  0  0  0
  6 10  2  0  0  0  0
  6 13  1  0  0  0  0
  7  9  2  0  0  0  0
  7 14  1  0  0  0  0
  8  9  1  0  0  0  0
  9 15  1  0  0  0  0
 10 11  1  0  0  0  0
 10 16  1  0  0  0  0
 11 17  1  0  0  0  0
M  END
> <PUBCHEM_COMPOUND_CID>
69163

> <PUBCHEM_CONFORMER_RMSD>
0.4

> <PUBCHEM_CONFORMER_DIVERSEORDER>
1

> <PUBCHEM_MMFF94_PARTIAL_CHARGES>
16
1 -0.18
10 -0.15
11 0.16
12 0.15
13 0.15
14 0.15
15 0.15
16 0.15
17 0.15
2 -0.62
4 0.31
5 -0.15
6 -0.15
7 -0.15
8 0.18
9 -0.15

> <PUBCHEM_EFFECTIVE_ROTOR_COUNT>
0

> <PUBCHEM_PHARMACOPHORE_FEATURES>
3
1 2 acceptor
6 2 3 4 6 10 11 rings
6 3 4 5 7 8 9 rings

> <PUBCHEM_HEAVY_ATOM_COUNT>
11

> <PUBCHEM_ATOM_DEF_STEREO_COUNT>
0

> <PUBCHEM_ATOM_UDEF_STEREO_COUNT>
0

> <PUBCHEM_BOND_DEF_STEREO_COUNT>
0

> <PUBCHEM_BOND_UDEF_STEREO_COUNT>
0

> <PUBCHEM_ISOTOPIC_ATOM_COUNT>
0

> <PUBCHEM_COMPONENT_COUNT>
1

> <PUBCHEM_CACTVS_TAUTO_COUNT>
1

> <PUBCHEM_CONFORMER_ID>
00010E2B00000001

> <PUBCHEM_MMFF94_ENERGY>
29.6314

> <PUBCHEM_FEATURE_SELFOVERLAP>
15.254

> <PUBCHEM_SHAPE_FINGERPRINT>
10219947 1 18342178894790438663
11206711 2 18335704884110133085
11471102 20 18410288134067270207
12032990 46 18410017645437859795
12897270 3 18409729547336430391
14325111 11 18410573963729589537
16945 1 18410575110459262948
17844478 74 18113344111106728269
193761 8 17834113044170237927
19973954 147 18339362942168634676
20201158 50 18335138704510298243
20645477 70 18411412900330165335
21040471 1 18338517430859664160
21501502 16 18338239249780036704
21501925 9 18336815425435594514
23402655 69 18340476799578049485
23463225 33 18409167701194878807
23552423 10 18261115127767996238
23559900 14 17334215625123217942
2748010 2 18339077064739611061
369184 2 18410291367729290033
5084963 1 18271806795921361922
528886 8 18339637948893001162

> <PUBCHEM_SHAPE_MULTIPOLES>
223.26
4.69
1.67
0.61
1.73
0.21
0
-1.09
0
-0.11
0
0.03
-0.01
0

> <PUBCHEM_SHAPE_SELFOVERLAP>
481.633

> <PUBCHEM_SHAPE_VOLUME>
123.6

> <PUBCHEM_COORDINATE_TYPE>
2
5
10

$$$$
