23424098
  -OEChem-11012401223D

 38 37  0     0  0  0  0  0  0999 V2000
    2.5381   -1.1306    1.0100 O   0  0  0  0  0  0  0  0  0  0  0  0
   -2.5007    1.2478    0.9593 O   0  0  0  0  0  0  0  0  0  0  0  0
    1.6096   -2.0168   -0.8483 O   0  0  0  0  0  0  0  0  0  0  0  0
   -1.5250    1.9862   -0.9172 O   0  0  0  0  0  0  0  0  0  0  0  0
    0.7925    0.1623   -0.0328 C   0  0  0  0  0  0  0  0  0  0  0  0
   -0.7954   -0.2126   -0.0660 C   0  0  0  0  0  0  0  0  0  0  0  0
    1.2248    1.0431    1.2042 C   0  0  0  0  0  0  0  0  0  0  0  0
    1.2273    0.9844   -1.3138 C   0  0  0  0  0  0  0  0  0  0  0  0
   -1.2823   -1.0001    1.2195 C   0  0  0  0  0  0  0  0  0  0  0  0
   -1.2043   -1.0501   -1.3335 C   0  0  0  0  0  0  0  0  0  0  0  0
    1.6679   -1.1068   -0.0323 C   0  0  0  0  0  0  0  0  0  0  0  0
   -1.6251    1.1090   -0.0649 C   0  0  0  0  0  0  0  0  0  0  0  0
    0.5350    2.3748    1.4758 C   0  0  0  0  0  0  0  0  0  0  0  0
    2.6932    1.4226   -1.3852 C   0  0  0  0  0  0  0  0  0  0  0  0
   -0.6757   -2.3636    1.5452 C   0  0  0  0  0  0  0  0  0  0  0  0
   -2.6796   -1.4495   -1.4199 C   0  0  0  0  0  0  0  0  0  0  0  0
    1.0852    0.4465    2.1169 H   0  0  0  0  0  0  0  0  0  0  0  0
    2.3031    1.2429    1.1759 H   0  0  0  0  0  0  0  0  0  0  0  0
    1.0430    0.3716   -2.2042 H   0  0  0  0  0  0  0  0  0  0  0  0
    0.6375    1.8924   -1.4362 H   0  0  0  0  0  0  0  0  0  0  0  0
   -1.1091   -0.3743    2.1056 H   0  0  0  0  0  0  0  0  0  0  0  0
   -2.3703   -1.1401    1.1854 H   0  0  0  0  0  0  0  0  0  0  0  0
   -0.9840   -0.4653   -2.2338 H   0  0  0  0  0  0  0  0  0  0  0  0
   -0.6239   -1.9716   -1.4063 H   0  0  0  0  0  0  0  0  0  0  0  0
    0.4639    2.9985    0.5821 H   0  0  0  0  0  0  0  0  0  0  0  0
    1.1221    2.9379    2.2108 H   0  0  0  0  0  0  0  0  0  0  0  0
   -0.4507    2.2441    1.9234 H   0  0  0  0  0  0  0  0  0  0  0  0
    3.3799    0.5873   -1.2234 H   0  0  0  0  0  0  0  0  0  0  0  0
    2.9179    2.2126   -0.6634 H   0  0  0  0  0  0  0  0  0  0  0  0
    2.9031    1.8329   -2.3792 H   0  0  0  0  0  0  0  0  0  0  0  0
   -0.6995   -3.0359    0.6841 H   0  0  0  0  0  0  0  0  0  0  0  0
    0.3507   -2.2744    1.9051 H   0  0  0  0  0  0  0  0  0  0  0  0
   -1.2496   -2.8370    2.3496 H   0  0  0  0  0  0  0  0  0  0  0  0
   -2.9434   -2.1954   -0.6651 H   0  0  0  0  0  0  0  0  0  0  0  0
   -3.3424   -0.5864   -1.3120 H   0  0  0  0  0  0  0  0  0  0  0  0
   -2.8803   -1.9000   -2.3980 H   0  0  0  0  0  0  0  0  0  0  0  0
    3.0869   -1.9436    1.0092 H   0  0  0  0  0  0  0  0  0  0  0  0
   -2.9940    2.0941    0.9077 H   0  0  0  0  0  0  0  0  0  0  0  0
  1 11  1  0  0  0  0
  1 37  1  0  0  0  0
  2 12  1  0  0  0  0
  2 38  1  0  0  0  0
  3 11  2  0  0  0  0
  4 12  2  0  0  0  0
  5  6  1  0  0  0  0
  5  7  1  0  0  0  0
  5  8  1  0  0  0  0
  5 11  1  0  0  0  0
  6  9  1  0  0  0  0
  6 10  1  0  0  0  0
  6 12  1  0  0  0  0
  7 13  1  0  0  0  0
  7 17  1  0  0  0  0
  7 18  1  0  0  0  0
  8 14  1  0  0  0  0
  8 19  1  0  0  0  0
  8 20  1  0  0  0  0
  9 15  1  0  0  0  0
  9 21  1  0  0  0  0
  9 22  1  0  0  0  0
 10 16  1  0  0  0  0
 10 23  1  0  0  0  0
 10 24  1  0  0  0  0
 13 25  1  0  0  0  0
 13 26  1  0  0  0  0
 13 27  1  0  0  0  0
 14 28  1  0  0  0  0
 14 29  1  0  0  0  0
 14 30  1  0  0  0  0
 15 31  1  0  0  0  0
 15 32  1  0  0  0  0
 15 33  1  0  0  0  0
 16 34  1  0  0  0  0
 16 35  1  0  0  0  0
 16 36  1  0  0  0  0
M  END
> <PUBCHEM_COMPOUND_CID>
23424098

> <PUBCHEM_CONFORMER_RMSD>
0.8

> <PUBCHEM_CONFORMER_DIVERSEORDER>
2
59
12
60
25
71
53
56
64
27
62
69
65
63
17
7
6
57
29
9
18
52
43
19
13
54
47
67
8
1
61
44
38
41
42
49
39
15
36
68
45
48
58
26
40
37
51
50
21
33
24
34
66
30
46
28
22
70
14
35
16
3
5
31
11
23
10
20
32
4
55

> <PUBCHEM_MMFF94_PARTIAL_CHARGES>
10
1 -0.65
11 0.66
12 0.66
2 -0.65
3 -0.57
37 0.5
38 0.5
4 -0.57
5 0.06
6 0.06

> <PUBCHEM_EFFECTIVE_ROTOR_COUNT>
7

> <PUBCHEM_PHARMACOPHORE_FEATURES>
13
1 1 acceptor
1 13 hydrophobe
1 14 hydrophobe
1 15 hydrophobe
1 16 hydrophobe
1 2 acceptor
1 3 acceptor
1 4 acceptor
3 1 3 11 anion
3 2 4 12 anion
3 5 7 8 hydrophobe
3 6 9 10 hydrophobe
6 5 6 7 8 9 10 hydrophobe

> <PUBCHEM_HEAVY_ATOM_COUNT>
16

> <PUBCHEM_ATOM_DEF_STEREO_COUNT>
0

> <PUBCHEM_ATOM_UDEF_STEREO_COUNT>
0

> <PUBCHEM_BOND_DEF_STEREO_COUNT>
0

> <PUBCHEM_BOND_UDEF_STEREO_COUNT>
0

> <PUBCHEM_ISOTOPIC_ATOM_COUNT>
0

> <PUBCHEM_COMPONENT_COUNT>
1

> <PUBCHEM_CACTVS_TAUTO_COUNT>
1

> <PUBCHEM_CONFORMER_ID>
01656C6200000002

> <PUBCHEM_MMFF94_ENERGY>
56.8027

> <PUBCHEM_FEATURE_SELFOVERLAP>
69.956

> <PUBCHEM_SHAPE_FINGERPRINT>
12423570 1 9275430059875973163
13380535 239 17678478556085280638
144361 1 17415287413924769564
14761567 1 18190461760360369614
14817 1 7880443494345267098
15557651 10 17911831233152640716
15852999 172 17681802405373910994
16945 1 17769360639736455650
20082192 1 17241317122200631563
21501502 16 18410573998041634277
23419403 2 17400296531079743916
241688 4 18264466443562498985
2748010 2 17186158661125473676
5084963 1 18189032279311779527
528886 8 17971773304237658148
54276843 12 17836100978125141384

> <PUBCHEM_SHAPE_MULTIPOLES>
305.8
3.39
2.53
1.77
0.04
0.05
0.06
-0.1
-1.04
-0.01
0.66
-0.06
-0.03
0.01

> <PUBCHEM_SHAPE_SELFOVERLAP>
590.043

> <PUBCHEM_SHAPE_VOLUME>
185.2

> <PUBCHEM_COORDINATE_TYPE>
2
5
10

$$$$
