15046923
  -OEChem-11012400583D

 60 62  0     0  0  0  0  0  0999 V2000
   -1.0566    0.0904   -0.0522 Si  0  0  0  0  0  0  0  0  0  0  0  0
    3.9704    1.2393   -0.5467 O   0  0  0  0  0  0  0  0  0  0  0  0
    3.9206    0.2762    0.5441 O   0  0  0  0  0  0  0  0  0  0  0  0
   -1.0985   -1.3385   -1.2744 C   0  0  0  0  0  0  0  0  0  0  0  0
   -1.4725   -0.5942    1.6533 C   0  0  0  0  0  0  0  0  0  0  0  0
   -2.5220    1.2145   -0.4260 C   0  0  0  0  0  0  0  0  0  0  0  0
    2.9494    2.1919   -0.2470 C   0  0  0  0  0  0  0  0  0  0  0  0
    0.5836    0.9511   -0.1321 C   0  0  0  0  0  0  0  0  0  0  0  0
    4.9350   -0.6730    0.2494 C   0  0  0  0  0  0  0  0  0  0  0  0
    0.0787   -2.0002   -1.5884 C   0  0  0  0  0  0  0  0  0  0  0  0
   -1.5592    0.2738    2.7286 C   0  0  0  0  0  0  0  0  0  0  0  0
   -2.3514    2.2852   -1.2872 C   0  0  0  0  0  0  0  0  0  0  0  0
   -2.3061   -1.7106   -1.8448 C   0  0  0  0  0  0  0  0  0  0  0  0
   -1.6849   -1.9544    1.8032 C   0  0  0  0  0  0  0  0  0  0  0  0
   -3.7454    0.9511    0.1666 C   0  0  0  0  0  0  0  0  0  0  0  0
    1.6455    1.5089   -0.1838 C   0  0  0  0  0  0  0  0  0  0  0  0
    3.2776    2.8510    1.0924 C   0  0  0  0  0  0  0  0  0  0  0  0
    2.9498    3.2292   -1.3685 C   0  0  0  0  0  0  0  0  0  0  0  0
    0.0475   -3.0599   -2.4947 C   0  0  0  0  0  0  0  0  0  0  0  0
   -1.8673   -0.2331    3.9911 C   0  0  0  0  0  0  0  0  0  0  0  0
   -3.4363    3.1171   -1.5640 C   0  0  0  0  0  0  0  0  0  0  0  0
   -2.3373   -2.7705   -2.7511 C   0  0  0  0  0  0  0  0  0  0  0  0
   -1.9930   -2.4612    3.0657 C   0  0  0  0  0  0  0  0  0  0  0  0
   -4.8302    1.7831   -0.1102 C   0  0  0  0  0  0  0  0  0  0  0  0
    4.9345   -1.7100    1.3705 C   0  0  0  0  0  0  0  0  0  0  0  0
    4.6110   -1.3310   -1.0911 C   0  0  0  0  0  0  0  0  0  0  0  0
    6.2780    0.0534    0.1892 C   0  0  0  0  0  0  0  0  0  0  0  0
   -1.1606   -3.4451   -3.0760 C   0  0  0  0  0  0  0  0  0  0  0  0
   -2.0843   -1.6006    4.1597 C   0  0  0  0  0  0  0  0  0  0  0  0
   -4.6757    2.8661   -0.9756 C   0  0  0  0  0  0  0  0  0  0  0  0
    1.0329   -1.7282   -1.1460 H   0  0  0  0  0  0  0  0  0  0  0  0
   -1.3919    1.3427    2.6235 H   0  0  0  0  0  0  0  0  0  0  0  0
   -1.3984    2.5013   -1.7626 H   0  0  0  0  0  0  0  0  0  0  0  0
   -3.2454   -1.2192   -1.6136 H   0  0  0  0  0  0  0  0  0  0  0  0
   -1.6215   -2.6622    0.9836 H   0  0  0  0  0  0  0  0  0  0  0  0
   -3.9186    0.1070    0.8266 H   0  0  0  0  0  0  0  0  0  0  0  0
    4.2985    3.2501    1.0909 H   0  0  0  0  0  0  0  0  0  0  0  0
    2.5865    3.6734    1.3111 H   0  0  0  0  0  0  0  0  0  0  0  0
    3.2145    2.1496    1.9327 H   0  0  0  0  0  0  0  0  0  0  0  0
    2.7617    2.7563   -2.3401 H   0  0  0  0  0  0  0  0  0  0  0  0
    3.9271    3.7195   -1.4463 H   0  0  0  0  0  0  0  0  0  0  0  0
    2.1858    3.9990   -1.2130 H   0  0  0  0  0  0  0  0  0  0  0  0
    3.9565   -2.1989    1.4479 H   0  0  0  0  0  0  0  0  0  0  0  0
    5.1199   -1.2346    2.3406 H   0  0  0  0  0  0  0  0  0  0  0  0
    5.6956   -2.4805    1.2108 H   0  0  0  0  0  0  0  0  0  0  0  0
    3.5943   -1.7397   -1.0880 H   0  0  0  0  0  0  0  0  0  0  0  0
    5.3082   -2.1475   -1.3085 H   0  0  0  0  0  0  0  0  0  0  0  0
    4.6627   -0.6264   -1.9283 H   0  0  0  0  0  0  0  0  0  0  0  0
    6.3394    0.7531   -0.6516 H   0  0  0  0  0  0  0  0  0  0  0  0
    7.1058   -0.6562    0.0832 H   0  0  0  0  0  0  0  0  0  0  0  0
    6.4432    0.6416    1.0993 H   0  0  0  0  0  0  0  0  0  0  0  0
    0.9634   -3.5865   -2.7464 H   0  0  0  0  0  0  0  0  0  0  0  0
   -1.9377    0.4368    4.8431 H   0  0  0  0  0  0  0  0  0  0  0  0
   -3.3166    3.9596   -2.2388 H   0  0  0  0  0  0  0  0  0  0  0  0
   -3.2781   -3.0722   -3.2024 H   0  0  0  0  0  0  0  0  0  0  0  0
   -2.1612   -3.5261    3.1978 H   0  0  0  0  0  0  0  0  0  0  0  0
   -5.7970    1.5846    0.3435 H   0  0  0  0  0  0  0  0  0  0  0  0
   -1.1850   -4.2710   -3.7809 H   0  0  0  0  0  0  0  0  0  0  0  0
   -2.3239   -1.9954    5.1427 H   0  0  0  0  0  0  0  0  0  0  0  0
   -5.5208    3.5128   -1.1924 H   0  0  0  0  0  0  0  0  0  0  0  0
  1  4  1  0  0  0  0
  1  5  1  0  0  0  0
  1  6  1  0  0  0  0
  1  8  1  0  0  0  0
  2  3  1  0  0  0  0
  2  7  1  0  0  0  0
  3  9  1  0  0  0  0
  4 10  2  0  0  0  0
  4 13  1  0  0  0  0
  5 11  2  0  0  0  0
  5 14  1  0  0  0  0
  6 12  2  0  0  0  0
  6 15  1  0  0  0  0
  7 16  1  0  0  0  0
  7 17  1  0  0  0  0
  7 18  1  0  0  0  0
  8 16  3  0  0  0  0
  9 25  1  0  0  0  0
  9 26  1  0  0  0  0
  9 27  1  0  0  0  0
 10 19  1  0  0  0  0
 10 31  1  0  0  0  0
 11 20  1  0  0  0  0
 11 32  1  0  0  0  0
 12 21  1  0  0  0  0
 12 33  1  0  0  0  0
 13 22  2  0  0  0  0
 13 34  1  0  0  0  0
 14 23  2  0  0  0  0
 14 35  1  0  0  0  0
 15 24  2  0  0  0  0
 15 36  1  0  0  0  0
 17 37  1  0  0  0  0
 17 38  1  0  0  0  0
 17 39  1  0  0  0  0
 18 40  1  0  0  0  0
 18 41  1  0  0  0  0
 18 42  1  0  0  0  0
 19 28  2  0  0  0  0
 19 52  1  0  0  0  0
 20 29  2  0  0  0  0
 20 53  1  0  0  0  0
 21 30  2  0  0  0  0
 21 54  1  0  0  0  0
 22 28  1  0  0  0  0
 22 55  1  0  0  0  0
 23 29  1  0  0  0  0
 23 56  1  0  0  0  0
 24 30  1  0  0  0  0
 24 57  1  0  0  0  0
 25 43  1  0  0  0  0
 25 44  1  0  0  0  0
 25 45  1  0  0  0  0
 26 46  1  0  0  0  0
 26 47  1  0  0  0  0
 26 48  1  0  0  0  0
 27 49  1  0  0  0  0
 27 50  1  0  0  0  0
 27 51  1  0  0  0  0
 28 58  1  0  0  0  0
 29 59  1  0  0  0  0
 30 60  1  0  0  0  0
M  END
> <PUBCHEM_COMPOUND_CID>
15046923

> <PUBCHEM_CONFORMER_RMSD>
0.8

> <PUBCHEM_CONFORMER_DIVERSEORDER>
1
4
7
11
12
5
3
8
16
17
10
14
9
15
6
13
2

> <PUBCHEM_MMFF94_PARTIAL_CHARGES>
40
1 0.96
10 -0.15
11 -0.15
12 -0.15
13 -0.15
14 -0.15
15 -0.15
16 -0.2
19 -0.15
2 -0.28
20 -0.15
21 -0.15
22 -0.15
23 -0.15
24 -0.15
28 -0.15
29 -0.15
3 -0.28
30 -0.15
31 0.15
32 0.15
33 0.15
34 0.15
35 0.15
36 0.15
4 -0.22
5 -0.22
52 0.15
53 0.15
54 0.15
55 0.15
56 0.15
57 0.15
58 0.15
59 0.15
6 -0.22
60 0.15
7 0.48
8 -0.29
9 0.28

> <PUBCHEM_EFFECTIVE_ROTOR_COUNT>
6

> <PUBCHEM_PHARMACOPHORE_FEATURES>
5
3 7 17 18 hydrophobe
4 9 25 26 27 hydrophobe
6 4 10 13 19 22 28 rings
6 5 11 14 20 23 29 rings
6 6 12 15 21 24 30 rings

> <PUBCHEM_HEAVY_ATOM_COUNT>
30

> <PUBCHEM_ATOM_DEF_STEREO_COUNT>
0

> <PUBCHEM_ATOM_UDEF_STEREO_COUNT>
0

> <PUBCHEM_BOND_DEF_STEREO_COUNT>
0

> <PUBCHEM_BOND_UDEF_STEREO_COUNT>
0

> <PUBCHEM_ISOTOPIC_ATOM_COUNT>
0

> <PUBCHEM_COMPONENT_COUNT>
1

> <PUBCHEM_CACTVS_TAUTO_COUNT>
1

> <PUBCHEM_CONFORMER_ID>
00E5990B00000001

> <PUBCHEM_MMFF94_ENERGY>
74.2347

> <PUBCHEM_FEATURE_SELFOVERLAP>
25.373

> <PUBCHEM_SHAPE_FINGERPRINT>
107951 10 17968659307019169377
11007060 377 17549535658818518760
11443803 9 18195498494837959565
11578080 2 17037329004072720621
11582403 64 18117550735273301215
11763715 3 16448739710448317947
12128747 34 17895204272156740194
12160290 23 17487070100102279038
12422481 6 18198363882358961835
12549972 3 18334292115175690936
12633046 712 17458349650105243814
133893 2 17486234226504553151
13583140 156 18264502852222196872
14020679 6 17968380039576579816
14028597 1 16558476279923188115
17349148 13 16988844964808727820
17980427 26 17316459727339926451
20554085 129 17242182232474405461
20602899 9 17775281651649299381
20681651 13 17701823404457352304
22121540 332 15506289706928211319
23419403 2 17690895186832521523
3298306 158 18264489486046172758
340366 18 18413100650457171324
3552219 110 16620690272036537296
376196 1 18336256839470340877
38695281 34 18056748841653066869
469060 322 17472983281701934258

> <PUBCHEM_SHAPE_MULTIPOLES>
623.86
9.87
4.33
3.89
14.59
0.18
3.79
4.77
-0.08
-1.7
-3.18
-4.1
-4.07
0.81

> <PUBCHEM_SHAPE_SELFOVERLAP>
1304.843

> <PUBCHEM_SHAPE_VOLUME>
354.9

> <PUBCHEM_COORDINATE_TYPE>
2
5
10

$$$$
