144917
  -OEChem-11012401193D

 31 30  0     0  0  0  0  0  0999 V2000
   -1.8101    1.5621    0.1775 F   0  0  0  0  0  0  0  0  0  0  0  0
    3.2254   -1.7731    1.0405 O   0  5  0  0  0  0  0  0  0  0  0  0
    3.1570   -0.1884   -2.3429 O   0  5  0  0  0  0  0  0  0  0  0  0
    2.0427    1.8304    1.5807 O   0  5  0  0  0  0  0  0  0  0  0  0
    4.0194    0.1220    1.8029 O   0  0  0  0  0  0  0  0  0  0  0  0
    4.6335    0.8456   -1.0924 O   0  0  0  0  0  0  0  0  0  0  0  0
    2.3430    2.5593   -0.4661 O   0  0  0  0  0  0  0  0  0  0  0  0
    0.1195   -3.1505    0.3572 O   0  5  0  0  0  0  0  0  0  0  0  0
   -1.9425   -3.1733   -0.4142 O   0  0  0  0  0  0  0  0  0  0  0  0
   -4.6936    0.3296    1.3913 O   0  5  0  0  0  0  0  0  0  0  0  0
   -3.9058   -0.4917   -1.5832 O   0  5  0  0  0  0  0  0  0  0  0  0
   -4.1139    2.3480    0.7437 O   0  0  0  0  0  0  0  0  0  0  0  0
   -2.4294    1.0416   -2.1317 O   0  0  0  0  0  0  0  0  0  0  0  0
   -1.0023   -1.2114    0.1683 N   0  0  0  0  0  0  0  0  0  0  0  0
    3.3501   -0.5400    0.9980 N   0  3  0  0  0  0  0  0  0  0  0  0
    3.5388    0.2930   -1.2652 N   0  3  0  0  0  0  0  0  0  0  0  0
    2.2750    1.6528    0.3758 N   0  3  0  0  0  0  0  0  0  0  0  0
   -0.9438   -2.6034    0.0413 N   0  3  0  0  0  0  0  0  0  0  0  0
   -3.9416    1.1233    0.8101 N   0  3  0  0  0  0  0  0  0  0  0  0
   -3.0452    0.3540   -1.3057 N   0  3  0  0  0  0  0  0  0  0  0  0
    1.2515   -0.4642   -0.4619 C   0  0  0  0  0  0  0  0  0  0  0  0
    0.2084   -0.5611    0.6628 C   0  0  0  0  0  0  0  0  0  0  0  0
    2.5768    0.2244   -0.0743 C   0  0  0  0  0  0  0  0  0  0  0  0
   -2.1954   -0.6858    0.8417 C   0  0  0  0  0  0  0  0  0  0  0  0
   -2.7175    0.5568    0.1460 C   0  0  0  0  0  0  0  0  0  0  0  0
    1.4688   -1.4620   -0.8637 H   0  0  0  0  0  0  0  0  0  0  0  0
    0.7903    0.0929   -1.2917 H   0  0  0  0  0  0  0  0  0  0  0  0
    0.6066   -1.0622    1.5540 H   0  0  0  0  0  0  0  0  0  0  0  0
   -0.0214    0.4578    0.9873 H   0  0  0  0  0  0  0  0  0  0  0  0
   -2.9933   -1.4404    0.8614 H   0  0  0  0  0  0  0  0  0  0  0  0
   -1.9766   -0.4792    1.8988 H   0  0  0  0  0  0  0  0  0  0  0  0
  1 25  1  0  0  0  0
  2 15  1  0  0  0  0
  3 16  1  0  0  0  0
  4 17  1  0  0  0  0
  5 15  2  0  0  0  0
  6 16  2  0  0  0  0
  7 17  2  0  0  0  0
  8 18  1  0  0  0  0
  9 18  2  0  0  0  0
 10 19  1  0  0  0  0
 11 20  1  0  0  0  0
 12 19  2  0  0  0  0
 13 20  2  0  0  0  0
 14 18  1  0  0  0  0
 14 22  1  0  0  0  0
 14 24  1  0  0  0  0
 15 23  1  0  0  0  0
 16 23  1  0  0  0  0
 17 23  1  0  0  0  0
 19 25  1  0  0  0  0
 20 25  1  0  0  0  0
 21 22  1  0  0  0  0
 21 23  1  0  0  0  0
 21 26  1  0  0  0  0
 21 27  1  0  0  0  0
 22 28  1  0  0  0  0
 22 29  1  0  0  0  0
 24 25  1  0  0  0  0
 24 30  1  0  0  0  0
 24 31  1  0  0  0  0
M  CHG  8   2  -1   3  -1   4  -1   8  -1  10  -1  11  -1  15   1  16   1
M  CHG  4  17   1  18   1  19   1  20   1
M  END
> <PUBCHEM_COMPOUND_CID>
144917

> <PUBCHEM_CONFORMER_RMSD>
1

> <PUBCHEM_CONFORMER_DIVERSEORDER>
1
14
6
15
8
16
3
7
13
11
5
9
17
2
10
12
4
18

> <PUBCHEM_MMFF94_PARTIAL_CHARGES>
24
1 -0.34
10 -0.52
11 -0.52
12 -0.52
13 -0.52
14 -0.53
15 0.8
16 0.8
17 0.8
18 1.03
19 0.8
2 -0.52
20 0.8
22 0.27
23 0.72
24 0.27
25 0.82
3 -0.52
4 -0.52
5 -0.52
6 -0.52
7 -0.52
8 -0.52
9 -0.52

> <PUBCHEM_EFFECTIVE_ROTOR_COUNT>
11

> <PUBCHEM_PHARMACOPHORE_FEATURES>
17
1 10 acceptor
1 10 anion
1 11 acceptor
1 11 anion
1 12 acceptor
1 13 acceptor
1 2 acceptor
1 2 anion
1 3 acceptor
1 3 anion
1 4 acceptor
1 4 anion
1 5 acceptor
1 6 acceptor
1 7 acceptor
1 8 acceptor
1 9 acceptor

> <PUBCHEM_HEAVY_ATOM_COUNT>
25

> <PUBCHEM_ATOM_DEF_STEREO_COUNT>
0

> <PUBCHEM_ATOM_UDEF_STEREO_COUNT>
0

> <PUBCHEM_BOND_DEF_STEREO_COUNT>
0

> <PUBCHEM_BOND_UDEF_STEREO_COUNT>
0

> <PUBCHEM_ISOTOPIC_ATOM_COUNT>
0

> <PUBCHEM_COMPONENT_COUNT>
1

> <PUBCHEM_CACTVS_TAUTO_COUNT>
1

> <PUBCHEM_CONFORMER_ID>
0002361500000001

> <PUBCHEM_MMFF94_ENERGY>
72.1429

> <PUBCHEM_FEATURE_SELFOVERLAP>
86.796

> <PUBCHEM_SHAPE_FINGERPRINT>
12173636 292 18342458170997017017
12596599 1 17988915678689538853
12633257 1 18410288129577357776
13583140 156 17313372414537171963
18186145 218 18342454841896241589
20600515 1 18271798009072616864
21524375 3 18260823774609604843
21864079 5 18412831278534828521
22907989 373 18124034799928715583
23557571 272 17908976948116745970
23559900 14 18130237003840823830
474 4 18339079272822260675
633830 44 18201723937783924197
74978 22 18338797917993844834
7615 1 17896871248207689330
81228 2 17901664092281047675

> <PUBCHEM_SHAPE_MULTIPOLES>
401.92
8.66
2.66
1.66
0.67
1.46
-0.59
-3.34
0.13
0.78
0.3
-0.45
-0.33
-0.62

> <PUBCHEM_SHAPE_SELFOVERLAP>
809.786

> <PUBCHEM_SHAPE_VOLUME>
234

> <PUBCHEM_COORDINATE_TYPE>
2
5
10

$$$$
