145601
  -OEChem-11012401243D

 25 29  0     1  0  0  0  0  0999 V2000
    0.7081    0.7266    0.0682 C   0  0  2  0  0  0  0  0  0  0  0  0
   -0.7078    0.7265    0.0682 C   0  0  1  0  0  0  0  0  0  0  0  0
    1.8091   -0.1509   -0.0979 C   0  0  0  0  0  0  0  0  0  0  0  0
   -1.8092   -0.1507   -0.0980 C   0  0  0  0  0  0  0  0  0  0  0  0
   -0.0001    1.3837    1.1964 C   0  0  0  0  0  0  0  0  0  0  0  0
    1.8024    1.1366   -0.8445 C   0  0  0  0  0  0  0  0  0  0  0  0
   -1.8023    1.1369   -0.8441 C   0  0  0  0  0  0  0  0  0  0  0  0
    2.0596   -1.5423   -0.4492 C   0  0  0  0  0  0  0  0  0  0  0  0
    2.7778   -0.8620    0.7252 C   0  0  0  0  0  0  0  0  0  0  0  0
   -2.7775   -0.8623    0.7255 C   0  0  0  0  0  0  0  0  0  0  0  0
   -2.0601   -1.5420   -0.4497 C   0  0  0  0  0  0  0  0  0  0  0  0
    0.0000    0.8843    2.1564 H   0  0  0  0  0  0  0  0  0  0  0  0
   -0.0002    2.4649    1.2383 H   0  0  0  0  0  0  0  0  0  0  0  0
    2.4727    1.9200   -0.5164 H   0  0  0  0  0  0  0  0  0  0  0  0
    1.6155    1.1051   -1.9099 H   0  0  0  0  0  0  0  0  0  0  0  0
   -1.6156    1.1057   -1.9096 H   0  0  0  0  0  0  0  0  0  0  0  0
   -2.4724    1.9204   -0.5155 H   0  0  0  0  0  0  0  0  0  0  0  0
    2.6423   -1.7529   -1.3365 H   0  0  0  0  0  0  0  0  0  0  0  0
    1.3058   -2.2805   -0.2085 H   0  0  0  0  0  0  0  0  0  0  0  0
    2.4861   -1.1575    1.7247 H   0  0  0  0  0  0  0  0  0  0  0  0
    3.8277   -0.6305    0.6018 H   0  0  0  0  0  0  0  0  0  0  0  0
   -3.8275   -0.6306    0.6029 H   0  0  0  0  0  0  0  0  0  0  0  0
   -2.4851   -1.1584    1.7246 H   0  0  0  0  0  0  0  0  0  0  0  0
   -1.3062   -2.2803   -0.2100 H   0  0  0  0  0  0  0  0  0  0  0  0
   -2.6433   -1.7521   -1.3368 H   0  0  0  0  0  0  0  0  0  0  0  0
  1  2  1  0  0  0  0
  1  3  1  0  0  0  0
  1  5  1  0  0  0  0
  1  6  1  0  0  0  0
  2  4  1  0  0  0  0
  2  5  1  0  0  0  0
  2  7  1  0  0  0  0
  3  6  1  0  0  0  0
  3  8  1  0  0  0  0
  3  9  1  0  0  0  0
  4  7  1  0  0  0  0
  4 10  1  0  0  0  0
  4 11  1  0  0  0  0
  5 12  1  0  0  0  0
  5 13  1  0  0  0  0
  6 14  1  0  0  0  0
  6 15  1  0  0  0  0
  7 16  1  0  0  0  0
  7 17  1  0  0  0  0
  8  9  1  0  0  0  0
  8 18  1  0  0  0  0
  8 19  1  0  0  0  0
  9 20  1  0  0  0  0
  9 21  1  0  0  0  0
 10 11  1  0  0  0  0
 10 22  1  0  0  0  0
 10 23  1  0  0  0  0
 11 24  1  0  0  0  0
 11 25  1  0  0  0  0
M  END
> <PUBCHEM_COMPOUND_CID>
145601

> <PUBCHEM_CONFORMER_RMSD>
0.4

> <PUBCHEM_CONFORMER_DIVERSEORDER>
1
2
3

> <PUBCHEM_MMFF94_PARTIAL_CHARGES>
21
10 -0.2
11 -0.2
12 0.1
13 0.1
14 0.1
15 0.1
16 0.1
17 0.1
18 0.1
19 0.1
20 0.1
21 0.1
22 0.1
23 0.1
24 0.1
25 0.1
5 -0.2
6 -0.2
7 -0.2
8 -0.2
9 -0.2

> <PUBCHEM_EFFECTIVE_ROTOR_COUNT>
1.4

> <PUBCHEM_PHARMACOPHORE_FEATURES>
0

> <PUBCHEM_HEAVY_ATOM_COUNT>
11

> <PUBCHEM_ATOM_DEF_STEREO_COUNT>
0

> <PUBCHEM_ATOM_UDEF_STEREO_COUNT>
2

> <PUBCHEM_BOND_DEF_STEREO_COUNT>
0

> <PUBCHEM_BOND_UDEF_STEREO_COUNT>
0

> <PUBCHEM_ISOTOPIC_ATOM_COUNT>
0

> <PUBCHEM_COMPONENT_COUNT>
1

> <PUBCHEM_CACTVS_TAUTO_COUNT>
1

> <PUBCHEM_CONFORMER_ID>
000238C100000001

> <PUBCHEM_MMFF94_ENERGY>
61.6575

> <PUBCHEM_FEATURE_SELFOVERLAP>
0

> <PUBCHEM_SHAPE_FINGERPRINT>
12382932 28 18060700584816038963
12897270 3 17969509388210363829
13839132 238 9943537361370644673
14128692 85 18408326588011586278
15310529 11 18113905991233517437
16945 1 18413108359453585404
20201158 50 18410851040670553031
20711983 138 17914058594692349110
21061003 4 17917705825117004296
230 275 8502374399670490686
23552423 10 18186240636357929487
2748010 2 18410851044954568252
29004967 10 18060415824315726480
369184 2 16343128130875835457

> <PUBCHEM_SHAPE_MULTIPOLES>
226.37
4.07
1.69
1.01
0
0.21
-0.1
1.75
-0.12
0
0.08
0
-0.19
0

> <PUBCHEM_SHAPE_SELFOVERLAP>
495.524

> <PUBCHEM_SHAPE_VOLUME>
132

> <PUBCHEM_COORDINATE_TYPE>
2
5
10

$$$$
