138720
  -OEChem-11012401133D

 15 14  0     0  0  0  0  0  0999 V2000
   -3.2136    0.6592   -0.2487 Cl  0  0  0  0  0  0  0  0  0  0  0  0
   -1.5657   -1.4492   -1.3738 Cl  0  0  0  0  0  0  0  0  0  0  0  0
   -1.8168   -1.1620    1.5290 Cl  0  0  0  0  0  0  0  0  0  0  0  0
    0.6220   -0.1136    0.1619 O   0  0  0  0  0  0  0  0  0  0  0  0
   -0.5716    1.8268   -0.1353 O   0  0  0  0  0  0  0  0  0  0  0  0
    1.8347    0.6461    0.1937 C   0  0  0  0  0  0  0  0  0  0  0  0
   -0.5284    0.6084   -0.0110 C   0  0  0  0  0  0  0  0  0  0  0  0
   -1.7354   -0.3058   -0.0250 C   0  0  0  0  0  0  0  0  0  0  0  0
    2.9818   -0.2891    0.3874 C   0  0  0  0  0  0  0  0  0  0  0  0
    3.9929   -0.4207   -0.4783 C   0  0  0  0  0  0  0  0  0  0  0  0
    1.9337    1.2110   -0.7407 H   0  0  0  0  0  0  0  0  0  0  0  0
    1.8003    1.3485    1.0342 H   0  0  0  0  0  0  0  0  0  0  0  0
    2.9879   -0.8921    1.2916 H   0  0  0  0  0  0  0  0  0  0  0  0
    4.7994   -1.1179   -0.2788 H   0  0  0  0  0  0  0  0  0  0  0  0
    4.0353    0.1584   -1.3941 H   0  0  0  0  0  0  0  0  0  0  0  0
  1  8  1  0  0  0  0
  2  8  1  0  0  0  0
  3  8  1  0  0  0  0
  4  6  1  0  0  0  0
  4  7  1  0  0  0  0
  5  7  2  0  0  0  0
  6  9  1  0  0  0  0
  6 11  1  0  0  0  0
  6 12  1  0  0  0  0
  7  8  1  0  0  0  0
  9 10  2  0  0  0  0
  9 13  1  0  0  0  0
 10 14  1  0  0  0  0
 10 15  1  0  0  0  0
M  END
> <PUBCHEM_COMPOUND_CID>
138720

> <PUBCHEM_CONFORMER_RMSD>
0.6

> <PUBCHEM_CONFORMER_DIVERSEORDER>
1
7
12
14
11
2
10
9
3
6
13
8
4
5

> <PUBCHEM_MMFF94_PARTIAL_CHARGES>
13
1 -0.29
10 -0.3
13 0.15
14 0.15
15 0.15
2 -0.29
3 -0.29
4 -0.43
5 -0.57
6 0.42
7 0.66
8 0.93
9 -0.29

> <PUBCHEM_EFFECTIVE_ROTOR_COUNT>
4

> <PUBCHEM_PHARMACOPHORE_FEATURES>
2
1 10 hydrophobe
1 5 acceptor

> <PUBCHEM_HEAVY_ATOM_COUNT>
10

> <PUBCHEM_ATOM_DEF_STEREO_COUNT>
0

> <PUBCHEM_ATOM_UDEF_STEREO_COUNT>
0

> <PUBCHEM_BOND_DEF_STEREO_COUNT>
0

> <PUBCHEM_BOND_UDEF_STEREO_COUNT>
0

> <PUBCHEM_ISOTOPIC_ATOM_COUNT>
0

> <PUBCHEM_COMPONENT_COUNT>
1

> <PUBCHEM_CACTVS_TAUTO_COUNT>
1

> <PUBCHEM_CONFORMER_ID>
00021DE000000001

> <PUBCHEM_MMFF94_ENERGY>
12.0303

> <PUBCHEM_FEATURE_SELFOVERLAP>
10.148

> <PUBCHEM_SHAPE_FINGERPRINT>
12932764 1 18272931626929947994
13024252 1 17603585218732966443
14577589 140 18343303664920370519
15310529 11 14129327477627437393
20279233 1 17917707990128583302
20281407 28 18202002131732479770
23235685 24 17821722814882040075
23402539 116 14189571915211803273
23552423 10 18264199373943015996
3248919 1 17894905244186598114
369184 2 13758352275948602046

> <PUBCHEM_SHAPE_MULTIPOLES>
199.67
5.71
1.41
1.14
5.41
0.1
0.16
-0.6
-0.44
-0.75
-0.18
-0.7
-0.58
0.16

> <PUBCHEM_SHAPE_SELFOVERLAP>
353.515

> <PUBCHEM_SHAPE_VOLUME>
130.4

> <PUBCHEM_COORDINATE_TYPE>
2
5
10

$$$$
