643793
  -OEChem-11012401093D

 15 14  0     0  0  0  0  0  0999 V2000
    2.5020    0.0026   -0.1867 O   0  0  0  0  0  0  0  0  0  0  0  0
    0.6764    1.3532    0.0305 O   0  0  0  0  0  0  0  0  0  0  0  0
   -1.6752   -0.1626   -0.6081 C   0  0  0  0  0  0  0  0  0  0  0  0
   -2.4362    0.7713    0.3238 C   0  0  0  0  0  0  0  0  0  0  0  0
   -0.7773   -1.1838    0.0372 C   0  0  0  0  0  0  0  0  0  0  0  0
    0.5172   -1.0299    0.3485 C   0  0  0  0  0  0  0  0  0  0  0  0
    1.1932    0.2492    0.0548 C   0  0  0  0  0  0  0  0  0  0  0  0
   -2.4125   -0.7172   -1.2040 H   0  0  0  0  0  0  0  0  0  0  0  0
   -1.1239    0.4289   -1.3480 H   0  0  0  0  0  0  0  0  0  0  0  0
   -3.0666    1.4539   -0.2548 H   0  0  0  0  0  0  0  0  0  0  0  0
   -1.7587    1.3710    0.9382 H   0  0  0  0  0  0  0  0  0  0  0  0
   -3.0843    0.2011    0.9977 H   0  0  0  0  0  0  0  0  0  0  0  0
   -1.2395   -2.1409    0.2701 H   0  0  0  0  0  0  0  0  0  0  0  0
    1.0912   -1.8404    0.7825 H   0  0  0  0  0  0  0  0  0  0  0  0
    2.9994    0.8239   -0.3881 H   0  0  0  0  0  0  0  0  0  0  0  0
  1  7  1  0  0  0  0
  1 15  1  0  0  0  0
  2  7  2  0  0  0  0
  3  4  1  0  0  0  0
  3  5  1  0  0  0  0
  3  8  1  0  0  0  0
  3  9  1  0  0  0  0
  4 10  1  0  0  0  0
  4 11  1  0  0  0  0
  4 12  1  0  0  0  0
  5  6  2  0  0  0  0
  5 13  1  0  0  0  0
  6  7  1  0  0  0  0
  6 14  1  0  0  0  0
M  END
> <PUBCHEM_COMPOUND_CID>
643793

> <PUBCHEM_CONFORMER_RMSD>
0.4

> <PUBCHEM_CONFORMER_DIVERSEORDER>
1
9
8
2
3
7
4
5
6

> <PUBCHEM_MMFF94_PARTIAL_CHARGES>
9
1 -0.65
13 0.15
14 0.15
15 0.5
2 -0.57
3 0.14
5 -0.29
6 -0.14
7 0.71

> <PUBCHEM_EFFECTIVE_ROTOR_COUNT>
2

> <PUBCHEM_PHARMACOPHORE_FEATURES>
4
1 1 acceptor
1 2 acceptor
1 4 hydrophobe
3 1 2 7 anion

> <PUBCHEM_HEAVY_ATOM_COUNT>
7

> <PUBCHEM_ATOM_DEF_STEREO_COUNT>
0

> <PUBCHEM_ATOM_UDEF_STEREO_COUNT>
0

> <PUBCHEM_BOND_DEF_STEREO_COUNT>
1

> <PUBCHEM_BOND_UDEF_STEREO_COUNT>
0

> <PUBCHEM_ISOTOPIC_ATOM_COUNT>
0

> <PUBCHEM_COMPONENT_COUNT>
1

> <PUBCHEM_CACTVS_TAUTO_COUNT>
1

> <PUBCHEM_CONFORMER_ID>
0009D2D100000001

> <PUBCHEM_MMFF94_ENERGY>
9.5091

> <PUBCHEM_FEATURE_SELFOVERLAP>
20.353

> <PUBCHEM_SHAPE_FINGERPRINT>
16714656 1 18407761421622990148
20096714 4 18410007758338533995
21040471 1 18409726270297599419
24536 1 18123173856274508267
29004967 10 15502373400690694128
5084963 1 17822847701319136039

> <PUBCHEM_SHAPE_MULTIPOLES>
132.32
3.03
1.28
0.69
0.16
0.02
-0.01
-0.73
-0.07
0.08
0.09
0.15
0.03
-0.15

> <PUBCHEM_SHAPE_SELFOVERLAP>
243.802

> <PUBCHEM_SHAPE_VOLUME>
83.4

> <PUBCHEM_COORDINATE_TYPE>
2
5
10

$$$$
