107384
  -OEChem-11012401003D

 34 35  0     1  0  0  0  0  0999 V2000
   -0.6037    1.3376    0.0909 C   0  0  1  0  0  0  0  0  0  0  0  0
    0.5442    1.2893   -0.9477 C   0  0  0  0  0  0  0  0  0  0  0  0
   -1.4761    2.5903   -0.1521 C   0  0  0  0  0  0  0  0  0  0  0  0
   -1.4204    0.0529    0.0861 C   0  0  0  0  0  0  0  0  0  0  0  0
    1.7436    0.4945   -0.4855 C   0  0  0  0  0  0  0  0  0  0  0  0
   -2.5611    2.7806    0.9014 C   0  0  0  0  0  0  0  0  0  0  0  0
   -2.5132   -0.0391   -0.7511 C   0  0  0  0  0  0  0  0  0  0  0  0
   -1.0427   -0.9804    0.9188 C   0  0  0  0  0  0  0  0  0  0  0  0
    2.7586    1.1382    0.2032 C   0  0  0  0  0  0  0  0  0  0  0  0
    1.8044   -0.8620   -0.7592 C   0  0  0  0  0  0  0  0  0  0  0  0
   -3.2615   -1.2163   -0.7558 C   0  0  0  0  0  0  0  0  0  0  0  0
   -1.7909   -2.1576    0.9141 C   0  0  0  0  0  0  0  0  0  0  0  0
   -2.9003   -2.2755    0.0766 C   0  0  0  0  0  0  0  0  0  0  0  0
    3.8655    0.4048    0.6301 C   0  0  0  0  0  0  0  0  0  0  0  0
    2.9115   -1.5953   -0.3321 C   0  0  0  0  0  0  0  0  0  0  0  0
    3.9420   -0.9619    0.3624 C   0  0  0  0  0  0  0  0  0  0  0  0
   -0.1681    1.4598    1.0936 H   0  0  0  0  0  0  0  0  0  0  0  0
    0.8880    2.3088   -1.1701 H   0  0  0  0  0  0  0  0  0  0  0  0
    0.1861    0.8937   -1.9080 H   0  0  0  0  0  0  0  0  0  0  0  0
   -0.8236    3.4728   -0.1036 H   0  0  0  0  0  0  0  0  0  0  0  0
   -1.9120    2.6116   -1.1567 H   0  0  0  0  0  0  0  0  0  0  0  0
   -3.0560    3.7462    0.7520 H   0  0  0  0  0  0  0  0  0  0  0  0
   -3.3343    2.0099    0.8567 H   0  0  0  0  0  0  0  0  0  0  0  0
   -2.1323    2.7796    1.9089 H   0  0  0  0  0  0  0  0  0  0  0  0
   -2.8110    0.7461   -1.4354 H   0  0  0  0  0  0  0  0  0  0  0  0
   -0.1883   -0.8959    1.5834 H   0  0  0  0  0  0  0  0  0  0  0  0
    2.7068    2.2014    0.4190 H   0  0  0  0  0  0  0  0  0  0  0  0
    1.0150   -1.3643   -1.3105 H   0  0  0  0  0  0  0  0  0  0  0  0
   -4.1213   -1.3113   -1.4126 H   0  0  0  0  0  0  0  0  0  0  0  0
   -1.5109   -2.9816    1.5637 H   0  0  0  0  0  0  0  0  0  0  0  0
   -3.4821   -3.1926    0.0721 H   0  0  0  0  0  0  0  0  0  0  0  0
    4.6677    0.8978    1.1715 H   0  0  0  0  0  0  0  0  0  0  0  0
    2.9723   -2.6591   -0.5428 H   0  0  0  0  0  0  0  0  0  0  0  0
    4.8041   -1.5330    0.6945 H   0  0  0  0  0  0  0  0  0  0  0  0
  1  2  1  0  0  0  0
  1  3  1  0  0  0  0
  1  4  1  0  0  0  0
  1 17  1  0  0  0  0
  2  5  1  0  0  0  0
  2 18  1  0  0  0  0
  2 19  1  0  0  0  0
  3  6  1  0  0  0  0
  3 20  1  0  0  0  0
  3 21  1  0  0  0  0
  4  7  2  0  0  0  0
  4  8  1  0  0  0  0
  5  9  2  0  0  0  0
  5 10  1  0  0  0  0
  6 22  1  0  0  0  0
  6 23  1  0  0  0  0
  6 24  1  0  0  0  0
  7 11  1  0  0  0  0
  7 25  1  0  0  0  0
  8 12  2  0  0  0  0
  8 26  1  0  0  0  0
  9 14  1  0  0  0  0
  9 27  1  0  0  0  0
 10 15  2  0  0  0  0
 10 28  1  0  0  0  0
 11 13  2  0  0  0  0
 11 29  1  0  0  0  0
 12 13  1  0  0  0  0
 12 30  1  0  0  0  0
 13 31  1  0  0  0  0
 14 16  2  0  0  0  0
 14 32  1  0  0  0  0
 15 16  1  0  0  0  0
 15 33  1  0  0  0  0
 16 34  1  0  0  0  0
M  END
> <PUBCHEM_COMPOUND_CID>
107384

> <PUBCHEM_CONFORMER_RMSD>
0.6

> <PUBCHEM_CONFORMER_DIVERSEORDER>
1
4
6
15
11
14
24
16
23
18
3
8
13
9
2
20
22
12
5
17
7
19
21
10

> <PUBCHEM_MMFF94_PARTIAL_CHARGES>
24
1 0.14
10 -0.15
11 -0.15
12 -0.15
13 -0.15
14 -0.15
15 -0.15
16 -0.15
2 0.14
25 0.15
26 0.15
27 0.15
28 0.15
29 0.15
30 0.15
31 0.15
32 0.15
33 0.15
34 0.15
4 -0.14
5 -0.14
7 -0.15
8 -0.15
9 -0.15

> <PUBCHEM_EFFECTIVE_ROTOR_COUNT>
4

> <PUBCHEM_PHARMACOPHORE_FEATURES>
3
1 6 hydrophobe
6 4 7 8 11 12 13 rings
6 5 9 10 14 15 16 rings

> <PUBCHEM_HEAVY_ATOM_COUNT>
16

> <PUBCHEM_ATOM_DEF_STEREO_COUNT>
0

> <PUBCHEM_ATOM_UDEF_STEREO_COUNT>
1

> <PUBCHEM_BOND_DEF_STEREO_COUNT>
0

> <PUBCHEM_BOND_UDEF_STEREO_COUNT>
0

> <PUBCHEM_ISOTOPIC_ATOM_COUNT>
0

> <PUBCHEM_COMPONENT_COUNT>
1

> <PUBCHEM_CACTVS_TAUTO_COUNT>
1

> <PUBCHEM_CONFORMER_ID>
0001A37800000001

> <PUBCHEM_MMFF94_ENERGY>
44.4336

> <PUBCHEM_FEATURE_SELFOVERLAP>
15.223

> <PUBCHEM_SHAPE_FINGERPRINT>
10366900 7 18271801380384378568
10616163 171 18411703188299861070
10618630 7 18336548321150411246
11578080 2 16772929532993133193
12500047 106 18194681467266513516
12532896 13 18123473782826666737
12553582 1 18194138518685535375
12633257 1 18192984929667731528
14115302 16 17822292426456487663
14178342 30 18337104567166064984
14223421 5 18343302591442348944
14965852 173 18338801109265412996
15490181 7 17758675551304494493
16945 1 18337121145296917148
17834072 14 18335973272411234670
19591789 44 17400928492145716565
200 152 18201148948905361975
20201158 50 18262234546458705278
20510252 161 18412260631894115041
20524608 308 18269276755278399485
21296965 67 18339360898107041179
21339142 149 18200303330201122757
21501502 16 18409735041080013628
21524375 3 17905336130495021273
23184049 29 18409169917661780172
23402539 116 18340757196359511815
23419403 2 17976784852383264501
23557571 272 18411420652070628298
23558518 356 18334299781375516672
23559900 14 18337661010276187896
3086196 2 18411974771724152928
5104073 3 18341886347931228834
6338986 31 18266741461948281047
69090 78 18197215845747563829
7364860 26 17617940678858244489
81228 2 18335426768019692481
8809292 202 18195812864868326814
9709674 26 18341894056791109942

> <PUBCHEM_SHAPE_MULTIPOLES>
329.27
6.49
2.87
1
4.44
0.93
0.02
-1.91
0.45
-2.63
0.51
-0.21
-0.02
-0.13

> <PUBCHEM_SHAPE_SELFOVERLAP>
694.076

> <PUBCHEM_SHAPE_VOLUME>
176.9

> <PUBCHEM_COORDINATE_TYPE>
2
5
10

$$$$
