256889
  -OEChem-11012400393D

 36 38  0     0  0  0  0  0  0999 V2000
    4.0208   -2.1890   -0.1673 O   0  0  0  0  0  0  0  0  0  0  0  0
    3.3985    1.9753   -0.7173 O   0  0  0  0  0  0  0  0  0  0  0  0
    0.6783   -1.0059    2.2473 O   0  0  0  0  0  0  0  0  0  0  0  0
    5.1063   -0.3736   -1.0075 O   0  5  0  0  0  0  0  0  0  0  0  0
   -3.1615    2.7816   -0.6973 O   0  5  0  0  0  0  0  0  0  0  0  0
   -1.9342    1.8693   -2.2723 O   0  0  0  0  0  0  0  0  0  0  0  0
   -5.0478   -1.6211   -0.1809 O   0  5  0  0  0  0  0  0  0  0  0  0
   -4.1507   -1.2257    1.7832 O   0  0  0  0  0  0  0  0  0  0  0  0
    4.0601   -0.7935   -0.4649 N   0  3  0  0  0  0  0  0  0  0  0  0
    2.7903   -2.4500    0.4243 N   0  0  0  0  0  0  0  0  0  0  0  0
   -2.0740    2.3060   -1.1043 N   0  3  0  0  0  0  0  0  0  0  0  0
   -4.0446   -1.4530    0.5538 N   0  3  0  0  0  0  0  0  0  0  0  0
    2.9118   -0.2436   -0.0721 C   0  0  0  0  0  0  0  0  0  0  0  0
    2.1888   -1.2848    0.4537 C   0  0  0  0  0  0  0  0  0  0  0  0
    1.3017    1.7099    0.2413 C   0  0  0  0  0  0  0  0  0  0  0  0
    2.6102    1.1478   -0.2193 C   0  0  0  0  0  0  0  0  0  0  0  0
   -0.3470   -1.4077    0.2043 C   0  0  0  0  0  0  0  0  0  0  0  0
    0.8318   -1.2166    1.0345 C   0  0  0  0  0  0  0  0  0  0  0  0
    0.2521    1.7375   -0.6451 C   0  0  0  0  0  0  0  0  0  0  0  0
   -1.6189   -1.3391    0.7725 C   0  0  0  0  0  0  0  0  0  0  0  0
    1.2062    2.1742    1.5310 C   0  0  0  0  0  0  0  0  0  0  0  0
   -0.2052   -1.6594   -1.1603 C   0  0  0  0  0  0  0  0  0  0  0  0
   -0.9673    2.2611   -0.2157 C   0  0  0  0  0  0  0  0  0  0  0  0
   -2.7493   -1.5224   -0.0239 C   0  0  0  0  0  0  0  0  0  0  0  0
   -0.0132    2.6981    1.9605 C   0  0  0  0  0  0  0  0  0  0  0  0
   -1.0999    2.7415    1.0871 C   0  0  0  0  0  0  0  0  0  0  0  0
   -1.3356   -1.8428   -1.9567 C   0  0  0  0  0  0  0  0  0  0  0  0
   -2.6076   -1.7743   -1.3885 C   0  0  0  0  0  0  0  0  0  0  0  0
    0.3902    1.3645   -1.6561 H   0  0  0  0  0  0  0  0  0  0  0  0
   -1.7211   -1.1404    1.8366 H   0  0  0  0  0  0  0  0  0  0  0  0
    2.0496    2.1413    2.2137 H   0  0  0  0  0  0  0  0  0  0  0  0
    0.7634   -1.7215   -1.6467 H   0  0  0  0  0  0  0  0  0  0  0  0
   -0.1163    3.0710    2.9754 H   0  0  0  0  0  0  0  0  0  0  0  0
   -2.0346    3.1553    1.4566 H   0  0  0  0  0  0  0  0  0  0  0  0
   -1.2254   -2.0377   -3.0195 H   0  0  0  0  0  0  0  0  0  0  0  0
   -3.4653   -1.9211   -2.0399 H   0  0  0  0  0  0  0  0  0  0  0  0
  1  9  1  0  0  0  0
  1 10  1  0  0  0  0
  2 16  2  0  0  0  0
  3 18  2  0  0  0  0
  4  9  1  0  0  0  0
  5 11  1  0  0  0  0
  6 11  2  0  0  0  0
  7 12  1  0  0  0  0
  8 12  2  0  0  0  0
  9 13  2  0  0  0  0
 10 14  2  0  0  0  0
 11 23  1  0  0  0  0
 12 24  1  0  0  0  0
 13 14  1  0  0  0  0
 13 16  1  0  0  0  0
 14 18  1  0  0  0  0
 15 16  1  0  0  0  0
 15 19  2  0  0  0  0
 15 21  1  0  0  0  0
 17 18  1  0  0  0  0
 17 20  2  0  0  0  0
 17 22  1  0  0  0  0
 19 23  1  0  0  0  0
 19 29  1  0  0  0  0
 20 24  1  0  0  0  0
 20 30  1  0  0  0  0
 21 25  2  0  0  0  0
 21 31  1  0  0  0  0
 22 27  2  0  0  0  0
 22 32  1  0  0  0  0
 23 26  2  0  0  0  0
 24 28  2  0  0  0  0
 25 26  1  0  0  0  0
 25 33  1  0  0  0  0
 26 34  1  0  0  0  0
 27 28  1  0  0  0  0
 27 35  1  0  0  0  0
 28 36  1  0  0  0  0
M  CHG  6   4  -1   5  -1   7  -1   9   1  11   1  12   1
M  END
> <PUBCHEM_COMPOUND_CID>
256889

> <PUBCHEM_CONFORMER_RMSD>
0.8

> <PUBCHEM_CONFORMER_DIVERSEORDER>
2
323
64
7
175
321
5
433
341
411
40
380
54
124
159
299
251
358
279
171
223
272
302
430
26
52
301
25
131
434
72
300
366
355
399
58
435
345
96
217
270
382
173
232
12
431
292
36
352
125
259
338
258
263
426
308
406
31
390
287
393
290
324
307
215
357
139
50
20
356
429
49
80
237
386
427
56
361
138
224
35
262
128
405
372
13
376
46
432
318
18
208
280
68
28
428
233
261
396
117
59
367
119
423
381
236
169
276
235
9
160
309
188
73
362
63
311
78
234
353
8
340
86
16
414
221
282
227
98
69
392
6
306
412
397
331
347
75
373
134
330
189
76
346
70
205
305
359
207
195
77
152
240
14
294
34
184
385
410
11
297
360
200
388
281
10
222
337
296
304
242
416
327
51
421
148
419
4
243
413
201
15
379
368
245
303
404
199
206
167
238
260
371
403
45
256
121
332
349
116
420
66
176
387
74
339
120
181
162
113
79
336
291
348
335
99
17
213
111
19
320
164
351
377
400
257
179
100
363
312
322
103
204
313
325
81
178
67
129
170
136
285
135
365
216
329
82
126
354
418
219
364
415
137
369
29
214
350
278
108
140
187
212
53
30
424
218
112
295
106
27
122
407
220
374
180
3
1
127
254
422
284
23
265
375
110
319
425
253
48
118
286
266
130
104
197
61
247
344
268
123
298
94
163
246
317
343
203
267
158
71
244
239
47
316
55
264
289
95
90
370
383
191
144
228
333
229
293
153
241
384
342
105
84
196
132
42
283
378
277
157
315
97
417
24
252
328
133
193
57
269
255
249
314
389
115
334
91
275
288
271
166
250
114
394
226
402
32
198
155
161
182
248
190
143
186
310
145
65
41
409
225
62
408
39
194
209
326
33
177
168
156
109
146
274
174
142
92
60
395
141
149
391
107
273
88
398
44
43
147
401
89
87
231
93
21
202
22
211
154
230
192
102
101
38
172
37
165
151
210
85
83
150
185
183

> <PUBCHEM_MMFF94_PARTIAL_CHARGES>
36
1 -0.12
10 -0.41
11 0.91
12 0.91
13 -0.17
14 0.2
15 0.09
16 0.57
17 0.09
18 0.57
19 -0.15
2 -0.57
20 -0.15
21 -0.15
22 -0.15
23 0.13
24 0.13
25 -0.15
26 -0.15
27 -0.15
28 -0.15
29 0.15
3 -0.57
30 0.15
31 0.15
32 0.15
33 0.15
34 0.15
35 0.15
36 0.15
4 -0.63
5 -0.52
6 -0.52
7 -0.52
8 -0.52
9 0.95

> <PUBCHEM_EFFECTIVE_ROTOR_COUNT>
6

> <PUBCHEM_PHARMACOPHORE_FEATURES>
13
1 10 acceptor
1 2 acceptor
1 3 acceptor
1 4 anion
1 5 acceptor
1 5 anion
1 6 acceptor
1 7 acceptor
1 7 anion
1 8 acceptor
5 1 9 10 13 14 rings
6 15 19 21 23 25 26 rings
6 17 20 22 24 27 28 rings

> <PUBCHEM_HEAVY_ATOM_COUNT>
28

> <PUBCHEM_ATOM_DEF_STEREO_COUNT>
0

> <PUBCHEM_ATOM_UDEF_STEREO_COUNT>
0

> <PUBCHEM_BOND_DEF_STEREO_COUNT>
0

> <PUBCHEM_BOND_UDEF_STEREO_COUNT>
0

> <PUBCHEM_ISOTOPIC_ATOM_COUNT>
0

> <PUBCHEM_COMPONENT_COUNT>
1

> <PUBCHEM_CACTVS_TAUTO_COUNT>
1

> <PUBCHEM_CONFORMER_ID>
0003EB7900000002

> <PUBCHEM_MMFF94_ENERGY>
89.5175

> <PUBCHEM_FEATURE_SELFOVERLAP>
66.141

> <PUBCHEM_SHAPE_FINGERPRINT>
104564 63 18410294709461948053
1100329 8 17975405824293738472
11578080 2 17703205400194284512
12156800 1 17553812457431470653
12293681 4 18261399991427015994
12422481 6 18196398960537741537
12553582 1 18271518780047621678
12788726 201 18340775857992893578
13140716 1 18266446625470757048
14790565 3 17618508022189631144
16945 1 18190733335685343916
17357779 13 18335692879961286111
17492 54 18046899386031123684
20691752 17 17977367658006735937
20775438 99 17048456220417200399
20905425 154 18410293627261960909
22182313 1 18268407148944689112
23419403 2 17416946439933096248
23559900 14 18199174111128202624
23566358 2 18411703192842819804
2818148 4 18200310051751101279
469060 322 17968109615672203472
6287921 2 17257656045552667347
70251023 43 18267563841054642551
7832392 63 17841994686973251107

> <PUBCHEM_SHAPE_MULTIPOLES>
509.35
6.98
3.78
1.75
0.15
2.13
0.07
-3.98
-0.8
-0.75
0.05
-0.85
0.3
0.42

> <PUBCHEM_SHAPE_SELFOVERLAP>
1129.195

> <PUBCHEM_SHAPE_VOLUME>
273.5

> <PUBCHEM_COORDINATE_TYPE>
2
5
10

$$$$
