143221
  -OEChem-11012400303D

 46 47  0     0  0  0  0  0  0999 V2000
   -0.0244   -0.7464    0.5073 C   0  0  0  0  0  0  0  0  0  0  0  0
   -1.2399   -0.0780   -0.1325 C   0  0  0  0  0  0  0  0  0  0  0  0
    1.1964    0.1580    0.3547 C   0  0  0  0  0  0  0  0  0  0  0  0
   -2.4832   -0.9669    0.0068 C   0  0  0  0  0  0  0  0  0  0  0  0
   -1.4853    1.3053    0.4851 C   0  0  0  0  0  0  0  0  0  0  0  0
    2.4396   -0.4753    0.9838 C   0  0  0  0  0  0  0  0  0  0  0  0
    1.4420    0.4998   -1.1255 C   0  0  0  0  0  0  0  0  0  0  0  0
    0.2461   -2.1471   -0.1095 C   0  0  0  0  0  0  0  0  0  0  0  0
   -0.2959   -0.9382    2.0155 C   0  0  0  0  0  0  0  0  0  0  0  0
   -3.7239   -0.2964   -0.5788 C   0  0  0  0  0  0  0  0  0  0  0  0
   -2.7278    1.9720   -0.1011 C   0  0  0  0  0  0  0  0  0  0  0  0
    3.6442    0.4691    0.9410 C   0  0  0  0  0  0  0  0  0  0  0  0
    2.8935    0.8761   -1.4364 C   0  0  0  0  0  0  0  0  0  0  0  0
   -3.9596    1.0818    0.0312 C   0  0  0  0  0  0  0  0  0  0  0  0
    3.6072    1.4582   -0.2250 C   0  0  0  0  0  0  0  0  0  0  0  0
    0.4709   -2.1718   -1.6165 C   0  0  0  0  0  0  0  0  0  0  0  0
   -1.0918    0.0817   -1.2060 H   0  0  0  0  0  0  0  0  0  0  0  0
    1.0502    1.0939    0.9086 H   0  0  0  0  0  0  0  0  0  0  0  0
   -2.7274   -1.2007    1.0451 H   0  0  0  0  0  0  0  0  0  0  0  0
   -2.3594   -1.9165   -0.5223 H   0  0  0  0  0  0  0  0  0  0  0  0
   -0.6585    1.9976    0.3098 H   0  0  0  0  0  0  0  0  0  0  0  0
   -1.6352    1.2451    1.5678 H   0  0  0  0  0  0  0  0  0  0  0  0
    2.7327   -1.3795    0.4387 H   0  0  0  0  0  0  0  0  0  0  0  0
    2.2970   -0.7662    2.0276 H   0  0  0  0  0  0  0  0  0  0  0  0
    0.8803    1.4336   -1.2894 H   0  0  0  0  0  0  0  0  0  0  0  0
    1.0617   -0.0981   -1.9342 H   0  0  0  0  0  0  0  0  0  0  0  0
    1.0894   -2.6483    0.3792 H   0  0  0  0  0  0  0  0  0  0  0  0
   -0.5939   -2.8155    0.1175 H   0  0  0  0  0  0  0  0  0  0  0  0
    0.4606   -1.5863    2.4736 H   0  0  0  0  0  0  0  0  0  0  0  0
   -1.2329   -1.4469    2.2457 H   0  0  0  0  0  0  0  0  0  0  0  0
   -0.2720    0.0005    2.5779 H   0  0  0  0  0  0  0  0  0  0  0  0
   -4.6024   -0.9295   -0.4088 H   0  0  0  0  0  0  0  0  0  0  0  0
   -3.6077   -0.1991   -1.6654 H   0  0  0  0  0  0  0  0  0  0  0  0
   -2.5547    2.2006   -1.1601 H   0  0  0  0  0  0  0  0  0  0  0  0
   -2.9089    2.9271    0.4052 H   0  0  0  0  0  0  0  0  0  0  0  0
    4.5615   -0.1302    0.8897 H   0  0  0  0  0  0  0  0  0  0  0  0
    3.7042    1.0369    1.8777 H   0  0  0  0  0  0  0  0  0  0  0  0
    2.9216    1.5906   -2.2673 H   0  0  0  0  0  0  0  0  0  0  0  0
    3.4310   -0.0194   -1.7727 H   0  0  0  0  0  0  0  0  0  0  0  0
   -4.8149    1.5606   -0.4587 H   0  0  0  0  0  0  0  0  0  0  0  0
   -4.2186    0.9722    1.0915 H   0  0  0  0  0  0  0  0  0  0  0  0
    3.0929    2.3749    0.0903 H   0  0  0  0  0  0  0  0  0  0  0  0
    4.6294    1.7511   -0.4904 H   0  0  0  0  0  0  0  0  0  0  0  0
    1.5101   -1.9674   -1.8885 H   0  0  0  0  0  0  0  0  0  0  0  0
    0.3237   -3.2095   -1.9474 H   0  0  0  0  0  0  0  0  0  0  0  0
   -0.2516   -1.5979   -2.1994 H   0  0  0  0  0  0  0  0  0  0  0  0
  1  2  1  0  0  0  0
  1  3  1  0  0  0  0
  1  8  1  0  0  0  0
  1  9  1  0  0  0  0
  2  4  1  0  0  0  0
  2  5  1  0  0  0  0
  2 17  1  0  0  0  0
  3  6  1  0  0  0  0
  3  7  1  0  0  0  0
  3 18  1  0  0  0  0
  4 10  1  0  0  0  0
  4 19  1  0  0  0  0
  4 20  1  0  0  0  0
  5 11  1  0  0  0  0
  5 21  1  0  0  0  0
  5 22  1  0  0  0  0
  6 12  1  0  0  0  0
  6 23  1  0  0  0  0
  6 24  1  0  0  0  0
  7 13  1  0  0  0  0
  7 25  1  0  0  0  0
  7 26  1  0  0  0  0
  8 16  1  0  0  0  0
  8 27  1  0  0  0  0
  8 28  1  0  0  0  0
  9 29  1  0  0  0  0
  9 30  1  0  0  0  0
  9 31  1  0  0  0  0
 10 14  1  0  0  0  0
 10 32  1  0  0  0  0
 10 33  1  0  0  0  0
 11 14  1  0  0  0  0
 11 34  1  0  0  0  0
 11 35  1  0  0  0  0
 12 15  1  0  0  0  0
 12 36  1  0  0  0  0
 12 37  1  0  0  0  0
 13 15  1  0  0  0  0
 13 38  1  0  0  0  0
 13 39  1  0  0  0  0
 14 40  1  0  0  0  0
 14 41  1  0  0  0  0
 15 42  1  0  0  0  0
 15 43  1  0  0  0  0
 16 44  1  0  0  0  0
 16 45  1  0  0  0  0
 16 46  1  0  0  0  0
M  END
> <PUBCHEM_COMPOUND_CID>
143221

> <PUBCHEM_CONFORMER_RMSD>
0.6

> <PUBCHEM_CONFORMER_DIVERSEORDER>
2
4
1
3

> <PUBCHEM_MMFF94_PARTIAL_CHARGES>
0

> <PUBCHEM_EFFECTIVE_ROTOR_COUNT>
5.4

> <PUBCHEM_PHARMACOPHORE_FEATURES>
4
1 16 hydrophobe
1 9 hydrophobe
6 2 4 5 10 11 14 rings
6 3 6 7 12 13 15 rings

> <PUBCHEM_HEAVY_ATOM_COUNT>
16

> <PUBCHEM_ATOM_DEF_STEREO_COUNT>
0

> <PUBCHEM_ATOM_UDEF_STEREO_COUNT>
0

> <PUBCHEM_BOND_DEF_STEREO_COUNT>
0

> <PUBCHEM_BOND_UDEF_STEREO_COUNT>
0

> <PUBCHEM_ISOTOPIC_ATOM_COUNT>
0

> <PUBCHEM_COMPONENT_COUNT>
1

> <PUBCHEM_CACTVS_TAUTO_COUNT>
1

> <PUBCHEM_CONFORMER_ID>
00022F7500000002

> <PUBCHEM_MMFF94_ENERGY>
57.2908

> <PUBCHEM_FEATURE_SELFOVERLAP>
20.297

> <PUBCHEM_SHAPE_FINGERPRINT>
10498660 4 18343579616880842469
10646746 165 18341891887785262928
11132069 177 18335416859435162429
12138202 97 17417247779223318702
12423570 1 12318365830176004070
12491281 212 18260270775847027232
12788726 201 17682685378021114482
13380535 21 18129671790181057491
13380535 76 18408603643419664955
13538477 17 18116145761155172730
14181834 199 18056200159422896214
14614273 12 18410569548951693317
14787075 74 17388545079741114947
14817 1 15735972024739717890
15502722 9 18059017163899964919
15775835 57 18260830405706657284
15852999 172 17632584889655795486
15906896 17 18116718619382342586
16945 1 18335987578852365187
17357779 13 16269085021087002855
18175812 5 14056997226154231610
18186145 218 17489596670485102730
18981168 100 17608974990156314865
192875 21 18186791504721757037
19868273 293 18271528718659460182
20281475 54 10735877261658811133
20645476 183 17896608460480508022
20645477 56 18129940221384509368
20671657 53 17269488538597855998
21501502 16 18128814145304795019
21524375 3 18333168366624755000
23114952 82 17915472588120278479
23184049 59 16371000810864496728
23227448 37 17698992213571527288
23402539 116 18059282249518746676
23526113 38 16701737254263554730
23557571 272 17845651572494911105
23559900 14 18057881347166901510
298252 57 18412539946439134674
305870 269 18336262340816395034
3323516 105 15697996383464198887
465052 167 11239708747657406525
474 4 17821732714908498121
633830 44 18040718034786129695
69090 78 18342169011980811926
7364860 26 17985265175130369903
77492 1 18113890598070656946
81228 2 17411329223763360118
83771 10 11671784866261910929

> <PUBCHEM_SHAPE_MULTIPOLES>
329.27
6.33
2
1.42
0.98
0.45
0.09
-3.41
-0.38
0.36
-0.44
-0.76
0.44
-0.25

> <PUBCHEM_SHAPE_SELFOVERLAP>
660.955

> <PUBCHEM_SHAPE_VOLUME>
192.4

> <PUBCHEM_COORDINATE_TYPE>
2
5
10

$$$$
