137541
  -OEChem-11012400433D

  8  8  0     0  0  0  0  0  0999 V2000
    0.0159    1.4677    0.0001 S   0  0  0  0  0  0  0  0  0  0  0  0
    0.0159   -1.4678    0.0000 S   0  0  0  0  0  0  0  0  0  0  0  0
   -2.1785    0.0000   -0.0002 O   0  0  0  0  0  0  0  0  0  0  0  0
    1.5517    0.6680   -0.0001 C   0  0  0  0  0  0  0  0  0  0  0  0
    1.5517   -0.6680    0.0000 C   0  0  0  0  0  0  0  0  0  0  0  0
   -0.9566    0.0000    0.0003 C   0  0  0  0  0  0  0  0  0  0  0  0
    2.4664    1.2473   -0.0001 H   0  0  0  0  0  0  0  0  0  0  0  0
    2.4664   -1.2472   -0.0001 H   0  0  0  0  0  0  0  0  0  0  0  0
  1  4  1  0  0  0  0
  1  6  1  0  0  0  0
  2  5  1  0  0  0  0
  2  6  1  0  0  0  0
  3  6  2  0  0  0  0
  4  5  2  0  0  0  0
  4  7  1  0  0  0  0
  5  8  1  0  0  0  0
M  END
> <PUBCHEM_COMPOUND_CID>
137541

> <PUBCHEM_CONFORMER_RMSD>
0.4

> <PUBCHEM_CONFORMER_DIVERSEORDER>
1

> <PUBCHEM_MMFF94_PARTIAL_CHARGES>
8
1 -0.24
2 -0.24
3 -0.57
4 -0.05
5 -0.05
6 0.85
7 0.15
8 0.15

> <PUBCHEM_EFFECTIVE_ROTOR_COUNT>
0

> <PUBCHEM_PHARMACOPHORE_FEATURES>
1
5 1 2 4 5 6 rings

> <PUBCHEM_HEAVY_ATOM_COUNT>
6

> <PUBCHEM_ATOM_DEF_STEREO_COUNT>
0

> <PUBCHEM_ATOM_UDEF_STEREO_COUNT>
0

> <PUBCHEM_BOND_DEF_STEREO_COUNT>
0

> <PUBCHEM_BOND_UDEF_STEREO_COUNT>
0

> <PUBCHEM_ISOTOPIC_ATOM_COUNT>
0

> <PUBCHEM_COMPONENT_COUNT>
1

> <PUBCHEM_CACTVS_TAUTO_COUNT>
1

> <PUBCHEM_CONFORMER_ID>
0002194500000001

> <PUBCHEM_MMFF94_ENERGY>
1.0338

> <PUBCHEM_FEATURE_SELFOVERLAP>
5.074

> <PUBCHEM_SHAPE_FINGERPRINT>
139733 1 9295277348579839968
16714656 1 18410582785903398700
18185500 45 18412821382681797239
20096714 4 18338799038690197674
21040471 1 18338797947800185472
29004967 10 18334019388629857089

> <PUBCHEM_SHAPE_MULTIPOLES>
125.31
2.12
1.62
0.63
0.5
0
0
0
0
-0.17
0
-0.03
0
0

> <PUBCHEM_SHAPE_SELFOVERLAP>
225.744

> <PUBCHEM_SHAPE_VOLUME>
81

> <PUBCHEM_COORDINATE_TYPE>
2
5
10

$$$$
