142552
  -OEChem-11012401073D

 24 24  0     1  0  0  0  0  0999 V2000
    1.4139   -0.1651    0.0039 C   0  0  0  0  0  0  0  0  0  0  0  0
    0.2487    0.7288    0.2094 C   0  0  1  0  0  0  0  0  0  0  0  0
    1.3494    1.1670   -0.6839 C   0  0  0  0  0  0  0  0  0  0  0  0
   -1.0844    0.3771   -0.4310 C   0  0  0  0  0  0  0  0  0  0  0  0
    1.2865   -1.3862   -0.8402 C   0  0  0  0  0  0  0  0  0  0  0  0
    2.3558   -0.3095    1.1484 C   0  0  0  0  0  0  0  0  0  0  0  0
   -2.1226   -0.0167    0.6179 C   0  0  0  0  0  0  0  0  0  0  0  0
   -3.4473   -0.3955   -0.0246 C   0  0  0  0  0  0  0  0  0  0  0  0
    0.1378    1.2742    1.1389 H   0  0  0  0  0  0  0  0  0  0  0  0
    1.1708    1.1982   -1.7526 H   0  0  0  0  0  0  0  0  0  0  0  0
    1.9975    1.9631   -0.3353 H   0  0  0  0  0  0  0  0  0  0  0  0
   -1.0091   -0.4066   -1.1891 H   0  0  0  0  0  0  0  0  0  0  0  0
   -1.4454    1.2716   -0.9554 H   0  0  0  0  0  0  0  0  0  0  0  0
    0.8934   -1.1815   -1.8416 H   0  0  0  0  0  0  0  0  0  0  0  0
    2.2662   -1.8551   -0.9880 H   0  0  0  0  0  0  0  0  0  0  0  0
    0.6381   -2.1245   -0.3563 H   0  0  0  0  0  0  0  0  0  0  0  0
    3.3660   -0.5375    0.7915 H   0  0  0  0  0  0  0  0  0  0  0  0
    2.4213    0.6002    1.7561 H   0  0  0  0  0  0  0  0  0  0  0  0
    2.0365   -1.1238    1.8077 H   0  0  0  0  0  0  0  0  0  0  0  0
   -2.2815    0.8115    1.3186 H   0  0  0  0  0  0  0  0  0  0  0  0
   -1.7503   -0.8637    1.2062 H   0  0  0  0  0  0  0  0  0  0  0  0
   -3.8585    0.4412   -0.5981 H   0  0  0  0  0  0  0  0  0  0  0  0
   -3.3268   -1.2491   -0.6993 H   0  0  0  0  0  0  0  0  0  0  0  0
   -4.1759   -0.6712    0.7442 H   0  0  0  0  0  0  0  0  0  0  0  0
  1  2  1  0  0  0  0
  1  3  1  0  0  0  0
  1  5  1  0  0  0  0
  1  6  1  0  0  0  0
  2  3  1  0  0  0  0
  2  4  1  0  0  0  0
  2  9  1  0  0  0  0
  3 10  1  0  0  0  0
  3 11  1  0  0  0  0
  4  7  1  0  0  0  0
  4 12  1  0  0  0  0
  4 13  1  0  0  0  0
  5 14  1  0  0  0  0
  5 15  1  0  0  0  0
  5 16  1  0  0  0  0
  6 17  1  0  0  0  0
  6 18  1  0  0  0  0
  6 19  1  0  0  0  0
  7  8  1  0  0  0  0
  7 20  1  0  0  0  0
  7 21  1  0  0  0  0
  8 22  1  0  0  0  0
  8 23  1  0  0  0  0
  8 24  1  0  0  0  0
M  END
> <PUBCHEM_COMPOUND_CID>
142552

> <PUBCHEM_CONFORMER_RMSD>
0.4

> <PUBCHEM_CONFORMER_DIVERSEORDER>
1
4
7
11
6
10
2
8
9
3
5

> <PUBCHEM_MMFF94_PARTIAL_CHARGES>
9
1 -0.19
10 0.1
11 0.1
2 -0.19
3 -0.2
4 0.09
5 0.09
6 0.09
9 0.1

> <PUBCHEM_EFFECTIVE_ROTOR_COUNT>
2.6

> <PUBCHEM_PHARMACOPHORE_FEATURES>
2
1 8 hydrophobe
3 1 5 6 hydrophobe

> <PUBCHEM_HEAVY_ATOM_COUNT>
8

> <PUBCHEM_ATOM_DEF_STEREO_COUNT>
0

> <PUBCHEM_ATOM_UDEF_STEREO_COUNT>
1

> <PUBCHEM_BOND_DEF_STEREO_COUNT>
0

> <PUBCHEM_BOND_UDEF_STEREO_COUNT>
0

> <PUBCHEM_ISOTOPIC_ATOM_COUNT>
0

> <PUBCHEM_COMPONENT_COUNT>
1

> <PUBCHEM_CACTVS_TAUTO_COUNT>
1

> <PUBCHEM_CONFORMER_ID>
00022CD800000001

> <PUBCHEM_MMFF94_ENERGY>
14.2509

> <PUBCHEM_FEATURE_SELFOVERLAP>
10.149

> <PUBCHEM_SHAPE_FINGERPRINT>
10219947 1 18412820292034313256
10857977 72 13901901228996081135
12897270 3 11386370348374396619
12932764 1 17458071477805168875
14390081 3 8934993751052042503
20653091 64 18113623378159337408
20711985 344 17680436541375615021
21040471 1 17988363779391317302
23552333 60 18335146413755035633
23552449 11 18186518821416227601
29004967 10 18412825754979584136
3248919 1 18411986866758058457

> <PUBCHEM_SHAPE_MULTIPOLES>
164.64
4.2
1.15
1
3.91
0.09
0.1
0.81
0.72
-0.5
-0.3
-0.46
0.09
-0.03

> <PUBCHEM_SHAPE_SELFOVERLAP>
310.141

> <PUBCHEM_SHAPE_VOLUME>
106.4

> <PUBCHEM_COORDINATE_TYPE>
2
5
10

$$$$
