282073
  -OEChem-11012401133D

 44 46  0     1  0  0  0  0  0999 V2000
   -1.6512   -3.3829    0.7202 O   0  0  0  0  0  0  0  0  0  0  0  0
    2.4190   -2.2223   -1.2551 O   0  0  0  0  0  0  0  0  0  0  0  0
   -2.2411   -1.6411    2.1184 O   0  0  0  0  0  0  0  0  0  0  0  0
    0.3360   -3.0415   -1.8264 O   0  0  0  0  0  0  0  0  0  0  0  0
   -0.7362    0.2948    0.4063 C   0  0  2  0  0  0  0  0  0  0  0  0
    0.6133    0.1688   -0.3312 C   0  0  2  0  0  0  0  0  0  0  0  0
   -0.9885   -1.1818    0.0367 C   0  0  1  0  0  0  0  0  0  0  0  0
    0.5438   -1.3448   -0.0401 C   0  0  1  0  0  0  0  0  0  0  0  0
   -1.7368    1.3654   -0.1490 C   0  0  0  0  0  0  0  0  0  0  0  0
    1.8202    0.9714    0.2720 C   0  0  0  0  0  0  0  0  0  0  0  0
   -1.7093   -2.0764    1.1061 C   0  0  0  0  0  0  0  0  0  0  0  0
    1.0627   -2.3201   -1.1566 C   0  0  0  0  0  0  0  0  0  0  0  0
   -3.1213    1.1834   -0.0347 C   0  0  0  0  0  0  0  0  0  0  0  0
    2.8260    1.4412   -0.5726 C   0  0  0  0  0  0  0  0  0  0  0  0
   -1.2501    2.5213   -0.7734 C   0  0  0  0  0  0  0  0  0  0  0  0
    1.8878    1.2207    1.6429 C   0  0  0  0  0  0  0  0  0  0  0  0
   -4.0036    2.1402   -0.5363 C   0  0  0  0  0  0  0  0  0  0  0  0
    3.8996    2.1598   -0.0465 C   0  0  0  0  0  0  0  0  0  0  0  0
   -2.1325    3.4783   -1.2749 C   0  0  0  0  0  0  0  0  0  0  0  0
    2.9613    1.9394    2.1688 C   0  0  0  0  0  0  0  0  0  0  0  0
   -3.5092    3.2876   -1.1562 C   0  0  0  0  0  0  0  0  0  0  0  0
    3.9671    2.4089    1.3241 C   0  0  0  0  0  0  0  0  0  0  0  0
   -2.2824   -4.3140    1.6049 C   0  0  0  0  0  0  0  0  0  0  0  0
    3.0253   -3.0563   -2.2475 C   0  0  0  0  0  0  0  0  0  0  0  0
   -0.6623    0.4035    1.4960 H   0  0  0  0  0  0  0  0  0  0  0  0
    0.5125    0.3547   -1.4138 H   0  0  0  0  0  0  0  0  0  0  0  0
   -1.4772   -1.2861   -0.9445 H   0  0  0  0  0  0  0  0  0  0  0  0
    0.9778   -1.6151    0.9348 H   0  0  0  0  0  0  0  0  0  0  0  0
   -3.5230    0.2969    0.4477 H   0  0  0  0  0  0  0  0  0  0  0  0
    2.7834    1.2518   -1.6417 H   0  0  0  0  0  0  0  0  0  0  0  0
   -0.1850    2.7042   -0.8726 H   0  0  0  0  0  0  0  0  0  0  0  0
    1.1428    0.8505    2.3376 H   0  0  0  0  0  0  0  0  0  0  0  0
   -5.0755    1.9923   -0.4433 H   0  0  0  0  0  0  0  0  0  0  0  0
    4.6831    2.5248   -0.7041 H   0  0  0  0  0  0  0  0  0  0  0  0
   -1.7480    4.3730   -1.7556 H   0  0  0  0  0  0  0  0  0  0  0  0
    3.0179    2.1282    3.2370 H   0  0  0  0  0  0  0  0  0  0  0  0
   -4.1962    4.0331   -1.5460 H   0  0  0  0  0  0  0  0  0  0  0  0
    4.8037    2.9672    1.7340 H   0  0  0  0  0  0  0  0  0  0  0  0
   -2.1656   -5.3160    1.1836 H   0  0  0  0  0  0  0  0  0  0  0  0
   -1.8017   -4.2880    2.5876 H   0  0  0  0  0  0  0  0  0  0  0  0
   -3.3501   -4.0910    1.6904 H   0  0  0  0  0  0  0  0  0  0  0  0
    2.6499   -2.7957   -3.2416 H   0  0  0  0  0  0  0  0  0  0  0  0
    4.1045   -2.8834   -2.2234 H   0  0  0  0  0  0  0  0  0  0  0  0
    2.8331   -4.1103   -2.0252 H   0  0  0  0  0  0  0  0  0  0  0  0
  1 11  1  0  0  0  0
  1 23  1  0  0  0  0
  2 12  1  0  0  0  0
  2 24  1  0  0  0  0
  3 11  2  0  0  0  0
  4 12  2  0  0  0  0
  5  6  1  0  0  0  0
  5  7  1  0  0  0  0
  5  9  1  0  0  0  0
  5 25  1  0  0  0  0
  6  8  1  0  0  0  0
  6 10  1  0  0  0  0
  6 26  1  0  0  0  0
  7  8  1  0  0  0  0
  7 11  1  0  0  0  0
  7 27  1  0  0  0  0
  8 12  1  0  0  0  0
  8 28  1  0  0  0  0
  9 13  2  0  0  0  0
  9 15  1  0  0  0  0
 10 14  2  0  0  0  0
 10 16  1  0  0  0  0
 13 17  1  0  0  0  0
 13 29  1  0  0  0  0
 14 18  1  0  0  0  0
 14 30  1  0  0  0  0
 15 19  2  0  0  0  0
 15 31  1  0  0  0  0
 16 20  2  0  0  0  0
 16 32  1  0  0  0  0
 17 21  2  0  0  0  0
 17 33  1  0  0  0  0
 18 22  2  0  0  0  0
 18 34  1  0  0  0  0
 19 21  1  0  0  0  0
 19 35  1  0  0  0  0
 20 22  1  0  0  0  0
 20 36  1  0  0  0  0
 21 37  1  0  0  0  0
 22 38  1  0  0  0  0
 23 39  1  0  0  0  0
 23 40  1  0  0  0  0
 23 41  1  0  0  0  0
 24 42  1  0  0  0  0
 24 43  1  0  0  0  0
 24 44  1  0  0  0  0
M  END
> <PUBCHEM_COMPOUND_CID>
282073

> <PUBCHEM_CONFORMER_RMSD>
0.8

> <PUBCHEM_CONFORMER_DIVERSEORDER>
1
35
39
23
20
29
11
12
26
6
33
9
17
30
21
14
36
4
37
13
18
3
24
28
25
22
31
15
19
34
2
10
38
5
27
16
32
8
7

> <PUBCHEM_MMFF94_PARTIAL_CHARGES>
34
1 -0.43
10 -0.11
11 0.67
12 0.67
13 -0.15
14 -0.15
15 -0.15
16 -0.15
17 -0.15
18 -0.15
19 -0.15
2 -0.43
20 -0.15
21 -0.15
22 -0.15
23 0.28
24 0.28
29 0.15
3 -0.57
30 0.15
31 0.15
32 0.15
33 0.15
34 0.15
35 0.15
36 0.15
37 0.15
38 0.15
4 -0.57
5 0.11
6 0.11
7 0.05
8 0.05
9 -0.11

> <PUBCHEM_EFFECTIVE_ROTOR_COUNT>
6.8

> <PUBCHEM_PHARMACOPHORE_FEATURES>
5
1 3 acceptor
1 4 acceptor
4 5 6 7 8 rings
6 10 14 16 18 20 22 rings
6 9 13 15 17 19 21 rings

> <PUBCHEM_HEAVY_ATOM_COUNT>
24

> <PUBCHEM_ATOM_DEF_STEREO_COUNT>
0

> <PUBCHEM_ATOM_UDEF_STEREO_COUNT>
4

> <PUBCHEM_BOND_DEF_STEREO_COUNT>
0

> <PUBCHEM_BOND_UDEF_STEREO_COUNT>
0

> <PUBCHEM_ISOTOPIC_ATOM_COUNT>
0

> <PUBCHEM_COMPONENT_COUNT>
1

> <PUBCHEM_CACTVS_TAUTO_COUNT>
1

> <PUBCHEM_CONFORMER_ID>
00044DD900000001

> <PUBCHEM_MMFF94_ENERGY>
59.8074

> <PUBCHEM_FEATURE_SELFOVERLAP>
25.373

> <PUBCHEM_SHAPE_FINGERPRINT>
10074138 170 17973975600559068329
10165383 225 18057066763569484488
10906281 52 18262804111431752885
11578080 2 18052293731821358713
12293681 160 17618518579482488726
12553582 1 17400635421306036788
12788726 201 17751356407303982521
13004483 165 17189497272807686824
13140716 1 18192142699397712017
13149001 5 18196946465166520630
14713325 29 18264222451076740484
15775530 1 18340502104892750558
17980427 26 17903893596840157637
1813 80 17473824403912861890
20600515 1 17099188837604662915
20739085 24 17400663995554574427
21524375 3 18267559382519555161
22149856 69 18045235856444031553
22182313 1 18334872605927730115
23419403 2 18126593178823918819
23526113 38 17908154174201350527
23558518 356 18265030531587353879
23559900 14 18121496860872947069
23598288 3 18119222182015837200
238 59 17988918934016247268
2748010 2 18341063994036274502
3298306 158 18343864390745273676
352729 6 18264203776274646677
6992083 37 17262721487079122738
70251023 43 17625522507554411005
7364860 26 17913474758223458932
81228 2 16977575254366093926
90316 7 17903914805188022992
9862522 239 18198896088603766330
9925002 15 16758034702031758780
9981440 41 17914585432666273608

> <PUBCHEM_SHAPE_MULTIPOLES>
470.43
6.39
5.7
1.95
0.51
4.33
-0.17
-5.76
0.33
-1.84
0.18
1.06
1.18
4.83

> <PUBCHEM_SHAPE_SELFOVERLAP>
997.089

> <PUBCHEM_SHAPE_VOLUME>
261.4

> <PUBCHEM_COORDINATE_TYPE>
2
5
10

$$$$
