137627
  -OEChem-11012400493D

 20 20  0     0  0  0  0  0  0999 V2000
    0.9277   -0.0039    0.7132 S   0  0  0  0  0  0  0  0  0  0  0  0
    1.2106    1.2491    1.4030 O   0  0  0  0  0  0  0  0  0  0  0  0
    1.1887   -1.2647    1.3967 O   0  0  0  0  0  0  0  0  0  0  0  0
   -0.7479   -0.0006    0.2226 C   0  0  0  0  0  0  0  0  0  0  0  0
   -1.4179   -1.2074    0.0207 C   0  0  0  0  0  0  0  0  0  0  0  0
   -1.4167    1.2087    0.0324 C   0  0  0  0  0  0  0  0  0  0  0  0
   -2.7564   -1.2049   -0.3717 C   0  0  0  0  0  0  0  0  0  0  0  0
   -2.7553    1.2111   -0.3599 C   0  0  0  0  0  0  0  0  0  0  0  0
   -3.4251    0.0042   -0.5619 C   0  0  0  0  0  0  0  0  0  0  0  0
    1.7662    0.0033   -0.8034 C   0  0  0  0  0  0  0  0  0  0  0  0
    3.0640    0.0028   -0.8312 C   0  0  0  0  0  0  0  0  0  0  0  0
    4.3620    0.0024   -0.8605 C   0  0  0  0  0  0  0  0  0  0  0  0
   -0.9156   -2.1610    0.1562 H   0  0  0  0  0  0  0  0  0  0  0  0
   -0.9130    2.1602    0.1778 H   0  0  0  0  0  0  0  0  0  0  0  0
   -3.2777   -2.1444   -0.5308 H   0  0  0  0  0  0  0  0  0  0  0  0
   -3.2758    2.1524   -0.5098 H   0  0  0  0  0  0  0  0  0  0  0  0
   -4.4671    0.0062   -0.8681 H   0  0  0  0  0  0  0  0  0  0  0  0
    1.2035    0.0097   -1.7302 H   0  0  0  0  0  0  0  0  0  0  0  0
    4.9342   -0.0026    0.0597 H   0  0  0  0  0  0  0  0  0  0  0  0
    4.8928    0.0071   -1.8053 H   0  0  0  0  0  0  0  0  0  0  0  0
  1  2  2  0  0  0  0
  1  3  2  0  0  0  0
  1  4  1  0  0  0  0
  1 10  1  0  0  0  0
  4  5  2  0  0  0  0
  4  6  1  0  0  0  0
  5  7  1  0  0  0  0
  5 13  1  0  0  0  0
  6  8  2  0  0  0  0
  6 14  1  0  0  0  0
  7  9  2  0  0  0  0
  7 15  1  0  0  0  0
  8  9  1  0  0  0  0
  8 16  1  0  0  0  0
  9 17  1  0  0  0  0
 10 11  2  0  0  0  0
 10 18  1  0  0  0  0
 11 12  2  0  0  0  0
 12 19  1  0  0  0  0
 12 20  1  0  0  0  0
M  END
> <PUBCHEM_COMPOUND_CID>
137627

> <PUBCHEM_CONFORMER_RMSD>
0.6

> <PUBCHEM_CONFORMER_DIVERSEORDER>
1
4
2
3

> <PUBCHEM_MMFF94_PARTIAL_CHARGES>
20
1 1.33
10 -0.1
11 -0.13
12 -0.24
13 0.15
14 0.15
15 0.15
16 0.15
17 0.15
18 0.15
19 0.15
2 -0.65
20 0.15
3 -0.65
4 -0.01
5 -0.15
6 -0.15
7 -0.15
8 -0.15
9 -0.15

> <PUBCHEM_EFFECTIVE_ROTOR_COUNT>
2

> <PUBCHEM_PHARMACOPHORE_FEATURES>
4
1 12 hydrophobe
1 2 acceptor
1 3 acceptor
6 4 5 6 7 8 9 rings

> <PUBCHEM_HEAVY_ATOM_COUNT>
12

> <PUBCHEM_ATOM_DEF_STEREO_COUNT>
0

> <PUBCHEM_ATOM_UDEF_STEREO_COUNT>
0

> <PUBCHEM_BOND_DEF_STEREO_COUNT>
0

> <PUBCHEM_BOND_UDEF_STEREO_COUNT>
0

> <PUBCHEM_ISOTOPIC_ATOM_COUNT>
0

> <PUBCHEM_COMPONENT_COUNT>
1

> <PUBCHEM_CACTVS_TAUTO_COUNT>
1

> <PUBCHEM_CONFORMER_ID>
0002199B00000001

> <PUBCHEM_MMFF94_ENERGY>
14.0427

> <PUBCHEM_FEATURE_SELFOVERLAP>
20.315

> <PUBCHEM_SHAPE_FINGERPRINT>
10465860 250 17917426489387330610
12897270 3 18409730685566093343
12932764 1 18410562990499358209
14993402 34 18040431101285670885
15219456 202 17846210124322895024
15775835 57 17968097482273437317
16945 1 18339346518667206619
170605 34 16153429437054122544
18186145 218 18335432274473506668
20201158 50 17632583733808471894
20281407 28 16343987983518392494
20361792 2 14979958060082080624
20645476 183 17967809462188833455
20653085 51 16878805914183512420
20671657 53 17203621375940161016
20711985 344 17416690133074603233
20871999 31 18410006654959083941
21061003 4 16486982794867668098
21119208 17 18187368722619404014
21501925 9 10375863091587010133
23402539 116 18187082858581807756
23552423 10 18189607405845657421
23559900 14 18201438048403571006
2748010 2 18124580136442541547
3248919 1 17168128032346056283
528886 8 17603307059339120042
8030462 33 18261096483573511635

> <PUBCHEM_SHAPE_MULTIPOLES>
239.07
6.3
1.31
1.13
3.63
0
-0.27
-0.01
2.68
-0.8
-0.2
0.66
0
0

> <PUBCHEM_SHAPE_SELFOVERLAP>
480.699

> <PUBCHEM_SHAPE_VOLUME>
139.1

> <PUBCHEM_COORDINATE_TYPE>
2
5
10

$$$$
