5463120
  -OEChem-11012400333D

 35 36  0     0  0  0  0  0  0999 V2000
    4.8576   -0.9731    0.7670 O   0  5  0  0  0  0  0  0  0  0  0  0
    3.7443    0.4829    1.9752 O   0  0  0  0  0  0  0  0  0  0  0  0
    3.8897   -0.1906    0.9265 N   0  3  0  0  0  0  0  0  0  0  0  0
   -3.2473    3.3708   -0.1117 N   0  0  0  0  0  0  0  0  0  0  0  0
   -1.7953    0.1607    0.1629 C   0  0  0  0  0  0  0  0  0  0  0  0
   -1.5698   -0.2181    1.4762 C   0  0  0  0  0  0  0  0  0  0  0  0
   -2.3514   -0.7161   -0.7551 C   0  0  0  0  0  0  0  0  0  0  0  0
   -2.6911   -2.0063   -0.3481 C   0  0  0  0  0  0  0  0  0  0  0  0
   -1.4468    1.5186   -0.2985 C   0  0  0  0  0  0  0  0  0  0  0  0
   -1.9098   -1.5084    1.8830 C   0  0  0  0  0  0  0  0  0  0  0  0
   -2.4702   -2.4025    0.9709 C   0  0  0  0  0  0  0  0  0  0  0  0
    0.9018    0.9243   -0.9778 C   0  0  0  0  0  0  0  0  0  0  0  0
   -0.2302    1.8235   -0.8175 C   0  0  0  0  0  0  0  0  0  0  0  0
   -0.9697    0.7124    2.4805 C   0  0  0  0  0  0  0  0  0  0  0  0
   -3.2906   -2.9631   -1.3223 C   0  0  0  0  0  0  0  0  0  0  0  0
    1.8447    0.7999    0.0425 C   0  0  0  0  0  0  0  0  0  0  0  0
    1.0438    0.1856   -2.1526 C   0  0  0  0  0  0  0  0  0  0  0  0
    2.9296   -0.0632   -0.1118 C   0  0  0  0  0  0  0  0  0  0  0  0
    2.1286   -0.6774   -2.3070 C   0  0  0  0  0  0  0  0  0  0  0  0
    3.0715   -0.8020   -1.2865 C   0  0  0  0  0  0  0  0  0  0  0  0
   -2.4395    2.5419   -0.1959 C   0  0  0  0  0  0  0  0  0  0  0  0
   -2.5264   -0.4096   -1.7839 H   0  0  0  0  0  0  0  0  0  0  0  0
   -1.7414   -1.8326    2.9067 H   0  0  0  0  0  0  0  0  0  0  0  0
   -2.7317   -3.4045    1.3006 H   0  0  0  0  0  0  0  0  0  0  0  0
   -0.0303    2.8430   -1.1455 H   0  0  0  0  0  0  0  0  0  0  0  0
   -1.2854    1.7498    2.3399 H   0  0  0  0  0  0  0  0  0  0  0  0
   -1.2852    0.4408    3.4950 H   0  0  0  0  0  0  0  0  0  0  0  0
    0.1210    0.6572    2.4493 H   0  0  0  0  0  0  0  0  0  0  0  0
   -3.0533   -3.9992   -1.0584 H   0  0  0  0  0  0  0  0  0  0  0  0
   -4.3788   -2.8474   -1.3412 H   0  0  0  0  0  0  0  0  0  0  0  0
   -2.9009   -2.7927   -2.3317 H   0  0  0  0  0  0  0  0  0  0  0  0
    1.7273    1.3979    0.9433 H   0  0  0  0  0  0  0  0  0  0  0  0
    0.3175    0.2715   -2.9572 H   0  0  0  0  0  0  0  0  0  0  0  0
    2.2386   -1.2526   -3.2217 H   0  0  0  0  0  0  0  0  0  0  0  0
    3.9034   -1.4841   -1.4418 H   0  0  0  0  0  0  0  0  0  0  0  0
  1  3  1  0  0  0  0
  2  3  2  0  0  0  0
  3 18  1  0  0  0  0
  4 21  3  0  0  0  0
  5  6  2  0  0  0  0
  5  7  1  0  0  0  0
  5  9  1  0  0  0  0
  6 10  1  0  0  0  0
  6 14  1  0  0  0  0
  7  8  2  0  0  0  0
  7 22  1  0  0  0  0
  8 11  1  0  0  0  0
  8 15  1  0  0  0  0
  9 13  2  0  0  0  0
  9 21  1  0  0  0  0
 10 11  2  0  0  0  0
 10 23  1  0  0  0  0
 11 24  1  0  0  0  0
 12 13  1  0  0  0  0
 12 16  2  0  0  0  0
 12 17  1  0  0  0  0
 13 25  1  0  0  0  0
 14 26  1  0  0  0  0
 14 27  1  0  0  0  0
 14 28  1  0  0  0  0
 15 29  1  0  0  0  0
 15 30  1  0  0  0  0
 15 31  1  0  0  0  0
 16 18  1  0  0  0  0
 16 32  1  0  0  0  0
 17 19  2  0  0  0  0
 17 33  1  0  0  0  0
 18 20  2  0  0  0  0
 19 20  1  0  0  0  0
 19 34  1  0  0  0  0
 20 35  1  0  0  0  0
M  CHG  2   1  -1   3   1
M  END
> <PUBCHEM_COMPOUND_CID>
5463120

> <PUBCHEM_CONFORMER_RMSD>
0.6

> <PUBCHEM_CONFORMER_DIVERSEORDER>
1
6
10
3
8
9
11
4
7
2
5
12

> <PUBCHEM_MMFF94_PARTIAL_CHARGES>
29
1 -0.52
10 -0.15
11 -0.15
12 0.03
13 -0.18
14 0.14
15 0.14
16 -0.15
17 -0.15
18 0.13
19 -0.15
2 -0.52
20 -0.15
21 0.49
22 0.15
23 0.15
24 0.15
25 0.15
3 0.91
32 0.15
33 0.15
34 0.15
35 0.15
4 -0.56
5 0.03
6 -0.14
7 -0.15
8 -0.14
9 0.04

> <PUBCHEM_EFFECTIVE_ROTOR_COUNT>
3

> <PUBCHEM_PHARMACOPHORE_FEATURES>
6
1 1 acceptor
1 1 anion
1 2 acceptor
1 4 acceptor
6 12 16 17 18 19 20 rings
6 5 6 7 8 10 11 rings

> <PUBCHEM_HEAVY_ATOM_COUNT>
21

> <PUBCHEM_ATOM_DEF_STEREO_COUNT>
0

> <PUBCHEM_ATOM_UDEF_STEREO_COUNT>
0

> <PUBCHEM_BOND_DEF_STEREO_COUNT>
1

> <PUBCHEM_BOND_UDEF_STEREO_COUNT>
0

> <PUBCHEM_ISOTOPIC_ATOM_COUNT>
0

> <PUBCHEM_COMPONENT_COUNT>
1

> <PUBCHEM_CACTVS_TAUTO_COUNT>
1

> <PUBCHEM_CONFORMER_ID>
00535C5000000001

> <PUBCHEM_MMFF94_ENERGY>
67.569

> <PUBCHEM_FEATURE_SELFOVERLAP>
30.528

> <PUBCHEM_SHAPE_FINGERPRINT>
11578080 2 17773603900306827857
12156800 1 16623427759996114079
12346177 29 18261387819399436740
12363563 72 18263645245736700951
12403259 327 18194667186716467672
12422481 6 17980237178077925947
12553582 1 18120395377649070231
12633257 1 17560533875302406970
12788726 201 18335435594462341757
13004483 165 18267289014486306735
13083527 12 18052525857666055932
13583140 156 17988347209971998186
13764800 53 9511180690589758357
13911987 19 16452666182103362109
13931106 250 18413950585909088391
14223421 5 16342880800952613574
14468879 13 17415809510271130312
16752209 62 18187944836980130361
17492 54 11252163147049692962
17980427 23 17603591833462865164
1813 80 18125453148765134275
18981168 100 10015316667155183676
192875 21 18114738347316532326
20361792 2 18048902941414831783
20626108 58 17768522043330717391
20645476 183 16807889497008863245
21069387 34 17604419820783164686
21452121 199 18049437346915325077
21475661 188 13320730030966397259
21731516 1 18117864276027340175
23184049 29 18261680375413181852
232386 152 18040160595650315116
23419403 2 17343759733569078537
23559900 14 18114731750679353740
23598288 3 17389706013469382781
23728640 28 18115313276028207241
350125 39 10231213489379093973
3797600 57 17058376023023068464
463206 1 17971466557737584731
469060 322 15983950787747668166
57100710 210 18270385196291117310
81228 2 18335713762356517077
9981440 41 16629101171138239034

> <PUBCHEM_SHAPE_MULTIPOLES>
410.47
6.73
2.9
2.22
6.39
0.97
0.51
-2.8
1.14
-4.41
-0.64
0.74
-0.48
0.02

> <PUBCHEM_SHAPE_SELFOVERLAP>
884.677

> <PUBCHEM_SHAPE_VOLUME>
225.8

> <PUBCHEM_COORDINATE_TYPE>
2
5
10

$$$$
