142551
  -OEChem-11012401213D

 21 21  0     1  0  0  0  0  0999 V2000
   -0.9424   -0.0930   -0.0042 C   0  0  0  0  0  0  0  0  0  0  0  0
    0.3359    0.6263   -0.2240 C   0  0  1  0  0  0  0  0  0  0  0  0
   -0.7002    1.2379    0.6450 C   0  0  0  0  0  0  0  0  0  0  0  0
    1.6041    0.1155    0.4388 C   0  0  0  0  0  0  0  0  0  0  0  0
   -0.9883   -1.2940    0.8762 C   0  0  0  0  0  0  0  0  0  0  0  0
   -1.8889   -0.1418   -1.1531 C   0  0  0  0  0  0  0  0  0  0  0  0
    2.5798   -0.4510   -0.5788 C   0  0  0  0  0  0  0  0  0  0  0  0
    0.5259    1.1228   -1.1681 H   0  0  0  0  0  0  0  0  0  0  0  0
   -0.5254    1.2767    1.7141 H   0  0  0  0  0  0  0  0  0  0  0  0
   -1.2307    2.1044    0.2666 H   0  0  0  0  0  0  0  0  0  0  0  0
    1.4257   -0.6284    1.2187 H   0  0  0  0  0  0  0  0  0  0  0  0
    2.0879    0.9667    0.9342 H   0  0  0  0  0  0  0  0  0  0  0  0
   -0.5727   -1.1159    1.8736 H   0  0  0  0  0  0  0  0  0  0  0  0
   -2.0241   -1.6174    1.0314 H   0  0  0  0  0  0  0  0  0  0  0  0
   -0.4478   -2.1295    0.4185 H   0  0  0  0  0  0  0  0  0  0  0  0
   -1.6804   -1.0118   -1.7852 H   0  0  0  0  0  0  0  0  0  0  0  0
   -2.9228   -0.2186   -0.7994 H   0  0  0  0  0  0  0  0  0  0  0  0
   -1.8256    0.7495   -1.7877 H   0  0  0  0  0  0  0  0  0  0  0  0
    2.1392   -1.3035   -1.1059 H   0  0  0  0  0  0  0  0  0  0  0  0
    2.8521    0.3015   -1.3262 H   0  0  0  0  0  0  0  0  0  0  0  0
    3.4961   -0.7877   -0.0842 H   0  0  0  0  0  0  0  0  0  0  0  0
  1  2  1  0  0  0  0
  1  3  1  0  0  0  0
  1  5  1  0  0  0  0
  1  6  1  0  0  0  0
  2  3  1  0  0  0  0
  2  4  1  0  0  0  0
  2  8  1  0  0  0  0
  3  9  1  0  0  0  0
  3 10  1  0  0  0  0
  4  7  1  0  0  0  0
  4 11  1  0  0  0  0
  4 12  1  0  0  0  0
  5 13  1  0  0  0  0
  5 14  1  0  0  0  0
  5 15  1  0  0  0  0
  6 16  1  0  0  0  0
  6 17  1  0  0  0  0
  6 18  1  0  0  0  0
  7 19  1  0  0  0  0
  7 20  1  0  0  0  0
  7 21  1  0  0  0  0
M  END
> <PUBCHEM_COMPOUND_CID>
142551

> <PUBCHEM_CONFORMER_RMSD>
0.4

> <PUBCHEM_CONFORMER_DIVERSEORDER>
1
2
4
3

> <PUBCHEM_MMFF94_PARTIAL_CHARGES>
9
1 -0.19
10 0.1
2 -0.19
3 -0.2
4 0.09
5 0.09
6 0.09
8 0.1
9 0.1

> <PUBCHEM_EFFECTIVE_ROTOR_COUNT>
1.6

> <PUBCHEM_PHARMACOPHORE_FEATURES>
2
1 7 hydrophobe
3 1 5 6 hydrophobe

> <PUBCHEM_HEAVY_ATOM_COUNT>
7

> <PUBCHEM_ATOM_DEF_STEREO_COUNT>
0

> <PUBCHEM_ATOM_UDEF_STEREO_COUNT>
1

> <PUBCHEM_BOND_DEF_STEREO_COUNT>
0

> <PUBCHEM_BOND_UDEF_STEREO_COUNT>
0

> <PUBCHEM_ISOTOPIC_ATOM_COUNT>
0

> <PUBCHEM_COMPONENT_COUNT>
1

> <PUBCHEM_CACTVS_TAUTO_COUNT>
1

> <PUBCHEM_CONFORMER_ID>
00022CD700000001

> <PUBCHEM_MMFF94_ENERGY>
14.4854

> <PUBCHEM_FEATURE_SELFOVERLAP>
10.149

> <PUBCHEM_SHAPE_FINGERPRINT>
16714656 1 17240196642790514455
20653085 51 16226325898271178820
21040471 1 17459445828294871021
23552423 10 18271810086172246318
24536 1 18409733980064576072
29004967 10 17916573396675079611
369184 2 15410609242615831466
5943 1 12383100402211522113

> <PUBCHEM_SHAPE_MULTIPOLES>
144.06
2.8
1.17
1.06
1.78
0.02
0.1
0.55
0.81
-0.3
-0.32
-0.34
0.11
0.14

> <PUBCHEM_SHAPE_SELFOVERLAP>
272.218

> <PUBCHEM_SHAPE_VOLUME>
93.4

> <PUBCHEM_COORDINATE_TYPE>
2
5
10

$$$$
