138653
  -OEChem-11012401283D

 23 24  0     0  0  0  0  0  0999 V2000
    0.0000    0.0000   -1.5052 C   0  0  0  0  0  0  0  0  0  0  0  0
    0.0081    1.3089   -0.7122 C   0  0  0  0  0  0  0  0  0  0  0  0
   -0.0081   -1.3090   -0.7121 C   0  0  0  0  0  0  0  0  0  0  0  0
    1.2497    1.5711    0.0959 C   0  0  0  0  0  0  0  0  0  0  0  0
   -1.2226    1.5833    0.1082 C   0  0  0  0  0  0  0  0  0  0  0  0
    1.2227   -1.5834    0.1083 C   0  0  0  0  0  0  0  0  0  0  0  0
   -1.2497   -1.5710    0.0957 C   0  0  0  0  0  0  0  0  0  0  0  0
    2.1253    0.7081    0.6257 C   0  0  0  0  0  0  0  0  0  0  0  0
   -2.1104    0.7311    0.6350 C   0  0  0  0  0  0  0  0  0  0  0  0
    2.1105   -0.7311    0.6349 C   0  0  0  0  0  0  0  0  0  0  0  0
   -2.1253   -0.7081    0.6258 C   0  0  0  0  0  0  0  0  0  0  0  0
   -0.8725    0.0054   -2.1754 H   0  0  0  0  0  0  0  0  0  0  0  0
    0.8725   -0.0055   -2.1754 H   0  0  0  0  0  0  0  0  0  0  0  0
    0.0081    2.0870   -1.4917 H   0  0  0  0  0  0  0  0  0  0  0  0
   -0.0081   -2.0870   -1.4915 H   0  0  0  0  0  0  0  0  0  0  0  0
    1.4642    2.6284    0.2589 H   0  0  0  0  0  0  0  0  0  0  0  0
   -1.4164    2.6424    0.2852 H   0  0  0  0  0  0  0  0  0  0  0  0
    1.4164   -2.6424    0.2853 H   0  0  0  0  0  0  0  0  0  0  0  0
   -1.4644   -2.6283    0.2586 H   0  0  0  0  0  0  0  0  0  0  0  0
    2.9678    1.1364    1.1682 H   0  0  0  0  0  0  0  0  0  0  0  0
   -2.9405    1.1692    1.1887 H   0  0  0  0  0  0  0  0  0  0  0  0
    2.9406   -1.1692    1.1884 H   0  0  0  0  0  0  0  0  0  0  0  0
   -2.9678   -1.1364    1.1682 H   0  0  0  0  0  0  0  0  0  0  0  0
  1  2  1  0  0  0  0
  1  3  1  0  0  0  0
  1 12  1  0  0  0  0
  1 13  1  0  0  0  0
  2  4  1  0  0  0  0
  2  5  1  0  0  0  0
  2 14  1  0  0  0  0
  3  6  1  0  0  0  0
  3  7  1  0  0  0  0
  3 15  1  0  0  0  0
  4  8  2  0  0  0  0
  4 16  1  0  0  0  0
  5  9  2  0  0  0  0
  5 17  1  0  0  0  0
  6 10  2  0  0  0  0
  6 18  1  0  0  0  0
  7 11  2  0  0  0  0
  7 19  1  0  0  0  0
  8 10  1  0  0  0  0
  8 20  1  0  0  0  0
  9 11  1  0  0  0  0
  9 21  1  0  0  0  0
 10 22  1  0  0  0  0
 11 23  1  0  0  0  0
M  END
> <PUBCHEM_COMPOUND_CID>
138653

> <PUBCHEM_CONFORMER_RMSD>
0.4

> <PUBCHEM_CONFORMER_DIVERSEORDER>
1

> <PUBCHEM_MMFF94_PARTIAL_CHARGES>
18
10 -0.15
11 -0.15
16 0.15
17 0.15
18 0.15
19 0.15
2 0.28
20 0.15
21 0.15
22 0.15
23 0.15
3 0.28
4 -0.29
5 -0.29
6 -0.29
7 -0.29
8 -0.15
9 -0.15

> <PUBCHEM_EFFECTIVE_ROTOR_COUNT>
0.2

> <PUBCHEM_PHARMACOPHORE_FEATURES>
2
7 1 2 3 4 6 8 10 rings
7 1 2 3 5 7 9 11 rings

> <PUBCHEM_HEAVY_ATOM_COUNT>
11

> <PUBCHEM_ATOM_DEF_STEREO_COUNT>
0

> <PUBCHEM_ATOM_UDEF_STEREO_COUNT>
0

> <PUBCHEM_BOND_DEF_STEREO_COUNT>
0

> <PUBCHEM_BOND_UDEF_STEREO_COUNT>
0

> <PUBCHEM_ISOTOPIC_ATOM_COUNT>
0

> <PUBCHEM_COMPONENT_COUNT>
1

> <PUBCHEM_CACTVS_TAUTO_COUNT>
1

> <PUBCHEM_CONFORMER_ID>
00021D9D00000001

> <PUBCHEM_MMFF94_ENERGY>
26.1421

> <PUBCHEM_FEATURE_SELFOVERLAP>
10.406

> <PUBCHEM_SHAPE_FINGERPRINT>
12423570 1 13933199509763398823
13024252 1 14346620602086950624
13299463 15 8574127497559171882
14817 1 12200223168316578282
15076042 46 18343582932252411544
15775835 57 18058740254388834049
16945 1 18410573985151451226
18185500 45 17618780696677086050
241688 4 18261674779075673723
2748010 2 18050568447716229254
5084963 1 17775567541504282458
66348 1 17906452121474040041

> <PUBCHEM_SHAPE_MULTIPOLES>
226.37
2.8
2.02
1.06
0
0
0.28
0
-1.08
0
0.01
0
0
-0.01

> <PUBCHEM_SHAPE_SELFOVERLAP>
472.357

> <PUBCHEM_SHAPE_VOLUME>
121.1

> <PUBCHEM_COORDINATE_TYPE>
2
5
10

$$$$
