9428
  -OEChem-11012400343D

 36 39  0     0  0  0  0  0  0999 V2000
    0.3656    0.0198    0.0001 C   0  0  0  0  0  0  0  0  0  0  0  0
    1.7859    0.2627   -0.0001 C   0  0  0  0  0  0  0  0  0  0  0  0
   -0.1067   -1.3157    0.0001 C   0  0  0  0  0  0  0  0  0  0  0  0
   -2.0000    0.7746    0.0000 C   0  0  0  0  0  0  0  0  0  0  0  0
    2.6778   -0.8415    0.0001 C   0  0  0  0  0  0  0  0  0  0  0  0
   -2.4395   -0.5615   -0.0002 C   0  0  0  0  0  0  0  0  0  0  0  0
   -0.6177    1.0422    0.0001 C   0  0  0  0  0  0  0  0  0  0  0  0
   -1.4860   -1.5882   -0.0001 C   0  0  0  0  0  0  0  0  0  0  0  0
    0.8024   -2.3770    0.0000 C   0  0  0  0  0  0  0  0  0  0  0  0
    2.1735   -2.1439    0.0001 C   0  0  0  0  0  0  0  0  0  0  0  0
    2.3736    1.5529   -0.0004 C   0  0  0  0  0  0  0  0  0  0  0  0
    4.0686   -0.6390    0.0000 C   0  0  0  0  0  0  0  0  0  0  0  0
   -3.8180   -0.8355   -0.0003 C   0  0  0  0  0  0  0  0  0  0  0  0
   -2.9518    1.8091    0.0000 C   0  0  0  0  0  0  0  0  0  0  0  0
    4.6063    0.6440   -0.0001 C   0  0  0  0  0  0  0  0  0  0  0  0
   -4.7503    0.2018   -0.0001 C   0  0  0  0  0  0  0  0  0  0  0  0
    3.7586    1.7406   -0.0002 C   0  0  0  0  0  0  0  0  0  0  0  0
   -4.3173    1.5236    0.0002 C   0  0  0  0  0  0  0  0  0  0  0  0
    6.0844    0.8377    0.0006 C   0  0  0  0  0  0  0  0  0  0  0  0
   -6.2094   -0.1067    0.0005 C   0  0  0  0  0  0  0  0  0  0  0  0
   -0.3124    2.0872    0.0002 H   0  0  0  0  0  0  0  0  0  0  0  0
   -1.8257   -2.6246   -0.0002 H   0  0  0  0  0  0  0  0  0  0  0  0
    0.4528   -3.4079    0.0000 H   0  0  0  0  0  0  0  0  0  0  0  0
    2.8450   -3.0006    0.0000 H   0  0  0  0  0  0  0  0  0  0  0  0
    1.7600    2.4501   -0.0010 H   0  0  0  0  0  0  0  0  0  0  0  0
    4.7416   -1.4956   -0.0017 H   0  0  0  0  0  0  0  0  0  0  0  0
   -4.1653   -1.8674   -0.0022 H   0  0  0  0  0  0  0  0  0  0  0  0
   -2.6353    2.8501   -0.0003 H   0  0  0  0  0  0  0  0  0  0  0  0
    4.1561    2.7522   -0.0022 H   0  0  0  0  0  0  0  0  0  0  0  0
   -5.0313    2.3430   -0.0015 H   0  0  0  0  0  0  0  0  0  0  0  0
    6.5805    0.0662    0.5993 H   0  0  0  0  0  0  0  0  0  0  0  0
    6.4699    0.7923   -1.0228 H   0  0  0  0  0  0  0  0  0  0  0  0
    6.3598    1.8054    0.4337 H   0  0  0  0  0  0  0  0  0  0  0  0
   -6.7887    0.7084    0.4475 H   0  0  0  0  0  0  0  0  0  0  0  0
   -6.5607   -0.2628   -1.0243 H   0  0  0  0  0  0  0  0  0  0  0  0
   -6.4197   -1.0077    0.5867 H   0  0  0  0  0  0  0  0  0  0  0  0
  1  2  1  0  0  0  0
  1  3  1  0  0  0  0
  1  7  2  0  0  0  0
  2  5  2  0  0  0  0
  2 11  1  0  0  0  0
  3  8  2  0  0  0  0
  3  9  1  0  0  0  0
  4  6  2  0  0  0  0
  4  7  1  0  0  0  0
  4 14  1  0  0  0  0
  5 10  1  0  0  0  0
  5 12  1  0  0  0  0
  6  8  1  0  0  0  0
  6 13  1  0  0  0  0
  7 21  1  0  0  0  0
  8 22  1  0  0  0  0
  9 10  2  0  0  0  0
  9 23  1  0  0  0  0
 10 24  1  0  0  0  0
 11 17  2  0  0  0  0
 11 25  1  0  0  0  0
 12 15  2  0  0  0  0
 12 26  1  0  0  0  0
 13 16  2  0  0  0  0
 13 27  1  0  0  0  0
 14 18  2  0  0  0  0
 14 28  1  0  0  0  0
 15 17  1  0  0  0  0
 15 19  1  0  0  0  0
 16 18  1  0  0  0  0
 16 20  1  0  0  0  0
 17 29  1  0  0  0  0
 18 30  1  0  0  0  0
 19 31  1  0  0  0  0
 19 32  1  0  0  0  0
 19 33  1  0  0  0  0
 20 34  1  0  0  0  0
 20 35  1  0  0  0  0
 20 36  1  0  0  0  0
M  END
> <PUBCHEM_COMPOUND_CID>
9428

> <PUBCHEM_CONFORMER_RMSD>
0.6

> <PUBCHEM_CONFORMER_DIVERSEORDER>
1

> <PUBCHEM_MMFF94_PARTIAL_CHARGES>
24
10 -0.15
11 -0.15
12 -0.15
13 -0.15
14 -0.15
15 -0.14
16 -0.14
17 -0.15
18 -0.15
19 0.14
20 0.14
21 0.15
22 0.15
23 0.15
24 0.15
25 0.15
26 0.15
27 0.15
28 0.15
29 0.15
30 0.15
7 -0.15
8 -0.15
9 -0.15

> <PUBCHEM_EFFECTIVE_ROTOR_COUNT>
0

> <PUBCHEM_PHARMACOPHORE_FEATURES>
4
6 1 2 3 5 9 10 rings
6 1 3 4 6 7 8 rings
6 2 5 11 12 15 17 rings
6 4 6 13 14 16 18 rings

> <PUBCHEM_HEAVY_ATOM_COUNT>
20

> <PUBCHEM_ATOM_DEF_STEREO_COUNT>
0

> <PUBCHEM_ATOM_UDEF_STEREO_COUNT>
0

> <PUBCHEM_BOND_DEF_STEREO_COUNT>
0

> <PUBCHEM_BOND_UDEF_STEREO_COUNT>
0

> <PUBCHEM_ISOTOPIC_ATOM_COUNT>
0

> <PUBCHEM_COMPONENT_COUNT>
1

> <PUBCHEM_CACTVS_TAUTO_COUNT>
1

> <PUBCHEM_CONFORMER_ID>
000024D400000001

> <PUBCHEM_MMFF94_ENERGY>
68.1992

> <PUBCHEM_FEATURE_SELFOVERLAP>
20.37

> <PUBCHEM_SHAPE_FINGERPRINT>
10 15 18262512710896807160
10411042 1 17689997834699777674
10608611 8 18336826386202618237
10616163 171 18339926012518738647
10967382 1 18410573976608995814
11471102 20 18411417289200802342
11578080 2 16880179023575476655
12107183 9 17619632384782090073
12236239 1 17846499214656215051
12390115 104 18129114346260152569
12403259 415 18115026282293016309
12592029 89 18408040689218866482
12644460 14 18187927231677056626
12788726 201 17202771393274928177
12838862 33 18339342146232821784
13140716 1 18120940756727357041
13583140 156 16805314526744126697
138480 1 17762056540896559618
14251764 18 18260542334656738112
14528608 73 18413387644228960365
14787075 74 18412823608012874899
14790565 3 18337115656814548764
15196674 1 18410856512405731303
15536298 74 18341896246928953654
18681886 176 18341327886060616024
200 152 18131630080308678633
20645477 70 18271527489924631166
21267235 1 18411427184747527463
21279426 13 18268150851466804644
21652331 79 18409448076992459493
221357 26 18202003213716384052
23227448 37 18341893038651778359
23402539 116 18343014540459056972
23402655 69 18272367555383400972
23559900 14 18341889748754484120
3004659 81 18335144155794357854
335352 9 18410856577763950230
34797466 226 17346604105156179732
34934 24 18411415115958166391
350125 39 18410293631267109024
3545911 37 18410857667746776117
4073 2 18040723592405577250
4214541 1 18410856551155720289
42630746 31 18413108346700734222
4325135 7 18342735235189904119
474 4 18040721393513832724
474229 33 18410575106549573419
495365 180 17346308354441004144
5104073 3 18262805047512889673
59755656 215 18411706465570846254
59755656 520 17748821951392721010
6138700 20 18338803300226651014
69090 78 18412823603153586999
7364860 26 18269557148261247526
8272917 22 18342461391647788022
9709674 26 18410862031734683959

> <PUBCHEM_SHAPE_MULTIPOLES>
411.59
11.92
2.15
0.62
2.1
0.51
0
-3.98
0
-0.62
0
0
0
0

> <PUBCHEM_SHAPE_SELFOVERLAP>
936.791

> <PUBCHEM_SHAPE_VOLUME>
198.3

> <PUBCHEM_COORDINATE_TYPE>
2
5
10

$$$$
