523673
  -OEChem-11012400363D

 38 37  0     0  0  0  0  0  0999 V2000
   -0.0147    0.3081    0.1730 Si  0  0  0  0  0  0  0  0  0  0  0  0
   -1.5514    0.4753   -0.8888 C   0  0  0  0  0  0  0  0  0  0  0  0
    0.0430   -1.4096    0.9229 C   0  0  0  0  0  0  0  0  0  0  0  0
    1.5092    0.5801   -0.8854 C   0  0  0  0  0  0  0  0  0  0  0  0
   -0.0597    1.5875    1.5435 C   0  0  0  0  0  0  0  0  0  0  0  0
   -2.8809    0.2780   -0.1549 C   0  0  0  0  0  0  0  0  0  0  0  0
    0.0834   -2.5638   -0.0827 C   0  0  0  0  0  0  0  0  0  0  0  0
    2.8475    0.4737   -0.1487 C   0  0  0  0  0  0  0  0  0  0  0  0
   -0.1087    3.0398    1.0869 C   0  0  0  0  0  0  0  0  0  0  0  0
   -4.0663    0.4798   -1.0871 C   0  0  0  0  0  0  0  0  0  0  0  0
    0.1768   -3.9104    0.6192 C   0  0  0  0  0  0  0  0  0  0  0  0
    4.0217    0.6615   -1.0979 C   0  0  0  0  0  0  0  0  0  0  0  0
   -1.4843   -0.2469   -1.7112 H   0  0  0  0  0  0  0  0  0  0  0  0
   -1.5400    1.4699   -1.3507 H   0  0  0  0  0  0  0  0  0  0  0  0
   -0.8303   -1.5320    1.5747 H   0  0  0  0  0  0  0  0  0  0  0  0
    0.9233   -1.4689    1.5741 H   0  0  0  0  0  0  0  0  0  0  0  0
    1.4341    1.5696   -1.3520 H   0  0  0  0  0  0  0  0  0  0  0  0
    1.4907   -0.1484   -1.7048 H   0  0  0  0  0  0  0  0  0  0  0  0
   -0.9308    1.3901    2.1785 H   0  0  0  0  0  0  0  0  0  0  0  0
    0.8226    1.4498    2.1789 H   0  0  0  0  0  0  0  0  0  0  0  0
   -2.9339   -0.7302    0.2735 H   0  0  0  0  0  0  0  0  0  0  0  0
   -2.9668    0.9843    0.6795 H   0  0  0  0  0  0  0  0  0  0  0  0
   -0.8149   -2.5530   -0.7119 H   0  0  0  0  0  0  0  0  0  0  0  0
    0.9444   -2.4578   -0.7536 H   0  0  0  0  0  0  0  0  0  0  0  0
    2.9077    1.2291    0.6441 H   0  0  0  0  0  0  0  0  0  0  0  0
    2.9416   -0.5057    0.3358 H   0  0  0  0  0  0  0  0  0  0  0  0
   -0.1316    3.7053    1.9562 H   0  0  0  0  0  0  0  0  0  0  0  0
    0.7695    3.3033    0.4877 H   0  0  0  0  0  0  0  0  0  0  0  0
   -1.0022    3.2432    0.4871 H   0  0  0  0  0  0  0  0  0  0  0  0
   -5.0049    0.3321   -0.5438 H   0  0  0  0  0  0  0  0  0  0  0  0
   -4.0704    1.4924   -1.5030 H   0  0  0  0  0  0  0  0  0  0  0  0
   -4.0381   -0.2335   -1.9170 H   0  0  0  0  0  0  0  0  0  0  0  0
    0.2021   -4.7202   -0.1166 H   0  0  0  0  0  0  0  0  0  0  0  0
    1.0857   -3.9743    1.2260 H   0  0  0  0  0  0  0  0  0  0  0  0
   -0.6860   -4.0722    1.2731 H   0  0  0  0  0  0  0  0  0  0  0  0
    4.9668    0.5840   -0.5513 H   0  0  0  0  0  0  0  0  0  0  0  0
    4.0188   -0.1030   -1.8815 H   0  0  0  0  0  0  0  0  0  0  0  0
    3.9854    1.6454   -1.5762 H   0  0  0  0  0  0  0  0  0  0  0  0
  1  2  1  0  0  0  0
  1  3  1  0  0  0  0
  1  4  1  0  0  0  0
  1  5  1  0  0  0  0
  2  6  1  0  0  0  0
  2 13  1  0  0  0  0
  2 14  1  0  0  0  0
  3  7  1  0  0  0  0
  3 15  1  0  0  0  0
  3 16  1  0  0  0  0
  4  8  1  0  0  0  0
  4 17  1  0  0  0  0
  4 18  1  0  0  0  0
  5  9  1  0  0  0  0
  5 19  1  0  0  0  0
  5 20  1  0  0  0  0
  6 10  1  0  0  0  0
  6 21  1  0  0  0  0
  6 22  1  0  0  0  0
  7 11  1  0  0  0  0
  7 23  1  0  0  0  0
  7 24  1  0  0  0  0
  8 12  1  0  0  0  0
  8 25  1  0  0  0  0
  8 26  1  0  0  0  0
  9 27  1  0  0  0  0
  9 28  1  0  0  0  0
  9 29  1  0  0  0  0
 10 30  1  0  0  0  0
 10 31  1  0  0  0  0
 10 32  1  0  0  0  0
 11 33  1  0  0  0  0
 11 34  1  0  0  0  0
 11 35  1  0  0  0  0
 12 36  1  0  0  0  0
 12 37  1  0  0  0  0
 12 38  1  0  0  0  0
M  END
> <PUBCHEM_COMPOUND_CID>
523673

> <PUBCHEM_CONFORMER_RMSD>
0.8

> <PUBCHEM_CONFORMER_DIVERSEORDER>
2
11
7
1
4
3
10
8
12
6
9
5

> <PUBCHEM_MMFF94_PARTIAL_CHARGES>
5
1 0.32
2 -0.08
3 -0.08
4 -0.08
5 -0.08

> <PUBCHEM_EFFECTIVE_ROTOR_COUNT>
7

> <PUBCHEM_PHARMACOPHORE_FEATURES>
3
1 10 hydrophobe
1 11 hydrophobe
1 12 hydrophobe

> <PUBCHEM_HEAVY_ATOM_COUNT>
12

> <PUBCHEM_ATOM_DEF_STEREO_COUNT>
0

> <PUBCHEM_ATOM_UDEF_STEREO_COUNT>
0

> <PUBCHEM_BOND_DEF_STEREO_COUNT>
0

> <PUBCHEM_BOND_UDEF_STEREO_COUNT>
0

> <PUBCHEM_ISOTOPIC_ATOM_COUNT>
0

> <PUBCHEM_COMPONENT_COUNT>
1

> <PUBCHEM_CACTVS_TAUTO_COUNT>
1

> <PUBCHEM_CONFORMER_ID>
0007FD9900000002

> <PUBCHEM_MMFF94_ENERGY>
-6.6496

> <PUBCHEM_FEATURE_SELFOVERLAP>
15.223

> <PUBCHEM_SHAPE_FINGERPRINT>
10756046 5 17836368150871598629
12138202 97 18263374736090883718
13380536 167 17766561244314096969
13380536 261 18127129671467618657
14943834 7 17765439738037426897
15279308 132 18339073916597174161
17041 49 10303533978665422751
18186145 218 18411419535400457836
187816 3 18342461452056807572
20645476 183 18041281075181907534
20711985 344 17612019778361752530
22802520 49 17547851210286057779
228727 97 18200879474109506568
23402539 116 18202570553379615716
23419403 2 17199954671906868370
23526113 38 18272091620919783500
2748010 2 17113255001464718798
298252 57 17603584157602043180
3250762 1 17692528235781648833
353137 74 18199755747366444909
4369600 1 18272362075158306977
589210 1 17763747589642337993
68419 9 17625829257701014449
81228 2 17916609577928539488
81539 233 17967808306478614663

> <PUBCHEM_SHAPE_MULTIPOLES>
265.17
4.84
3.56
1.35
0.25
3.74
0.15
-2.03
-3.33
-0.28
1.8
0.01
-0.53
-0.15

> <PUBCHEM_SHAPE_SELFOVERLAP>
458.761

> <PUBCHEM_SHAPE_VOLUME>
175.8

> <PUBCHEM_COORDINATE_TYPE>
2
5
10

$$$$
