144789
  -OEChem-11012400543D

 34 33  0     0  0  0  0  0  0999 V2000
   -0.1822    0.7768    0.4830 N   0  0  0  0  0  0  0  0  0  0  0  0
   -1.3189    0.1802    0.0768 N   0  0  0  0  0  0  0  0  0  0  0  0
    2.3307    0.6331    0.5900 C   0  0  0  0  0  0  0  0  0  0  0  0
    0.8211   -1.1777   -0.5041 C   0  0  0  0  0  0  0  0  0  0  0  0
    0.9304    0.1534    0.2277 C   0  0  0  0  0  0  0  0  0  0  0  0
    2.9481    1.4154   -0.5664 C   0  0  0  0  0  0  0  0  0  0  0  0
    0.7622   -2.3617    0.4583 C   0  0  0  0  0  0  0  0  0  0  0  0
   -2.5334    0.9572    0.2623 C   0  0  0  0  0  0  0  0  0  0  0  0
    4.3608    1.8699   -0.2384 C   0  0  0  0  0  0  0  0  0  0  0  0
    0.6448   -3.7009   -0.2553 C   0  0  0  0  0  0  0  0  0  0  0  0
   -3.7282    0.2509   -0.3699 C   0  0  0  0  0  0  0  0  0  0  0  0
   -5.0355    1.0034   -0.1641 C   0  0  0  0  0  0  0  0  0  0  0  0
    2.2526    1.2692    1.4789 H   0  0  0  0  0  0  0  0  0  0  0  0
    2.9488   -0.2324    0.8509 H   0  0  0  0  0  0  0  0  0  0  0  0
    0.0021   -1.2073   -1.2297 H   0  0  0  0  0  0  0  0  0  0  0  0
    1.7271   -1.2813   -1.1161 H   0  0  0  0  0  0  0  0  0  0  0  0
    2.3268    2.2891   -0.7971 H   0  0  0  0  0  0  0  0  0  0  0  0
    2.9688    0.7988   -1.4724 H   0  0  0  0  0  0  0  0  0  0  0  0
    1.6644   -2.3715    1.0820 H   0  0  0  0  0  0  0  0  0  0  0  0
   -0.0805   -2.2551    1.1500 H   0  0  0  0  0  0  0  0  0  0  0  0
   -2.4156    1.9456   -0.1983 H   0  0  0  0  0  0  0  0  0  0  0  0
   -2.7143    1.1122    1.3326 H   0  0  0  0  0  0  0  0  0  0  0  0
    4.7830    2.4314   -1.0777 H   0  0  0  0  0  0  0  0  0  0  0  0
    5.0126    1.0128   -0.0408 H   0  0  0  0  0  0  0  0  0  0  0  0
    4.3692    2.5189    0.6432 H   0  0  0  0  0  0  0  0  0  0  0  0
    0.6170   -4.5180    0.4722 H   0  0  0  0  0  0  0  0  0  0  0  0
    1.4984   -3.8652   -0.9205 H   0  0  0  0  0  0  0  0  0  0  0  0
   -0.2712   -3.7450   -0.8530 H   0  0  0  0  0  0  0  0  0  0  0  0
   -3.8347   -0.7546    0.0563 H   0  0  0  0  0  0  0  0  0  0  0  0
   -3.5577    0.1241   -1.4462 H   0  0  0  0  0  0  0  0  0  0  0  0
   -1.4301   -0.7268    0.5278 H   0  0  0  0  0  0  0  0  0  0  0  0
   -5.2599    1.1124    0.9017 H   0  0  0  0  0  0  0  0  0  0  0  0
   -4.9851    2.0022   -0.6090 H   0  0  0  0  0  0  0  0  0  0  0  0
   -5.8632    0.4623   -0.6332 H   0  0  0  0  0  0  0  0  0  0  0  0
  1  2  1  0  0  0  0
  1  5  2  0  0  0  0
  2  8  1  0  0  0  0
  2 31  1  0  0  0  0
  3  5  1  0  0  0  0
  3  6  1  0  0  0  0
  3 13  1  0  0  0  0
  3 14  1  0  0  0  0
  4  5  1  0  0  0  0
  4  7  1  0  0  0  0
  4 15  1  0  0  0  0
  4 16  1  0  0  0  0
  6  9  1  0  0  0  0
  6 17  1  0  0  0  0
  6 18  1  0  0  0  0
  7 10  1  0  0  0  0
  7 19  1  0  0  0  0
  7 20  1  0  0  0  0
  8 11  1  0  0  0  0
  8 21  1  0  0  0  0
  8 22  1  0  0  0  0
  9 23  1  0  0  0  0
  9 24  1  0  0  0  0
  9 25  1  0  0  0  0
 10 26  1  0  0  0  0
 10 27  1  0  0  0  0
 10 28  1  0  0  0  0
 11 12  1  0  0  0  0
 11 29  1  0  0  0  0
 11 30  1  0  0  0  0
 12 32  1  0  0  0  0
 12 33  1  0  0  0  0
 12 34  1  0  0  0  0
M  END
> <PUBCHEM_COMPOUND_CID>
144789

> <PUBCHEM_CONFORMER_RMSD>
0.8

> <PUBCHEM_CONFORMER_DIVERSEORDER>
1
52
107
99
106
33
82
67
74
47
7
60
66
97
28
104
58
45
20
80
44
94
69
96
26
41
81
75
103
100
32
53
40
19
101
88
30
8
98
27
65
111
23
108
59
10
31
17
50
110
116
90
95
68
92
61
18
64
36
71
25
38
48
86
4
93
112
15
46
102
91
62
109
84
115
63
78
49
113
54
24
105
76
77
14
57
22
42
51
72
56
5
85
6
55
114
11
83
70
43
89
21
79
29
35
13
3
73
37
16
2
34
9
12
87
39

> <PUBCHEM_MMFF94_PARTIAL_CHARGES>
7
1 -0.5
2 -0.58
3 0.06
31 0.36
4 0.06
5 0.33
8 0.27

> <PUBCHEM_EFFECTIVE_ROTOR_COUNT>
7

> <PUBCHEM_PHARMACOPHORE_FEATURES>
5
1 1 acceptor
1 10 hydrophobe
1 12 hydrophobe
1 2 donor
1 9 hydrophobe

> <PUBCHEM_HEAVY_ATOM_COUNT>
12

> <PUBCHEM_ATOM_DEF_STEREO_COUNT>
0

> <PUBCHEM_ATOM_UDEF_STEREO_COUNT>
0

> <PUBCHEM_BOND_DEF_STEREO_COUNT>
0

> <PUBCHEM_BOND_UDEF_STEREO_COUNT>
0

> <PUBCHEM_ISOTOPIC_ATOM_COUNT>
0

> <PUBCHEM_COMPONENT_COUNT>
1

> <PUBCHEM_CACTVS_TAUTO_COUNT>
1

> <PUBCHEM_CONFORMER_ID>
0002359500000001

> <PUBCHEM_MMFF94_ENERGY>
11.0152

> <PUBCHEM_FEATURE_SELFOVERLAP>
25.373

> <PUBCHEM_SHAPE_FINGERPRINT>
12119455 92 18113610218516647004
12346645 6 18335135354214040304
12532896 13 18340205314426334662
13380535 76 18334295374765068011
14251717 144 18339921506844545154
14415576 193 18334575707243807885
17539 30 17694498548161197646
204376 136 18409169951821175393
20645476 183 18263081187945019604
20645477 70 18266171739469821871
20671657 53 17835240043531192775
20711985 344 17761763371124335154
21499 59 18409164441430927757
21524375 3 18260828237075123144
2255824 54 18268713796861975391
23402539 116 18271521009262190556
23530152 11 18411980290625636198
23532345 1 18336549318168412385
23532345 88 18195797467257544607
23552423 10 18197220239440663249
23557571 272 17023189254416501149
23598291 2 17772764766491158217
3060560 45 18408605859665027060
3071541 37 18409731724942930134
3250762 1 17756696443254216156
366044 4 18410012178070982200
449060 62 18341613690000396393
474229 33 18264492965217920411
58051976 378 18411699902597099693
6025842 7 18339356362827383207
7364860 26 18267866081796802162
81228 2 17616803770755115058
81539 233 18335699425259401583

> <PUBCHEM_SHAPE_MULTIPOLES>
236.99
7.78
3.13
0.75
7.05
4.53
-0.01
-7.37
-1.08
-2.38
-0.26
-0.15
0
-0.23

> <PUBCHEM_SHAPE_SELFOVERLAP>
425.155

> <PUBCHEM_SHAPE_VOLUME>
151.9

> <PUBCHEM_COORDINATE_TYPE>
2
5
10

$$$$
