143941
  -OEChem-11012400433D

 56 55  0     0  0  0  0  0  0999 V2000
   -0.7923    0.2470    0.3631 C   0  0  0  0  0  0  0  0  0  0  0  0
    0.8014   -0.2481    0.3621 C   0  0  0  0  0  0  0  0  0  0  0  0
   -1.1853    1.3487   -0.8070 C   0  0  0  0  0  0  0  0  0  0  0  0
   -1.9510   -0.7382    0.9225 C   0  0  0  0  0  0  0  0  0  0  0  0
    1.1937   -1.3473   -0.8105 C   0  0  0  0  0  0  0  0  0  0  0  0
    1.9605    0.7359    0.9229 C   0  0  0  0  0  0  0  0  0  0  0  0
   -0.1815    2.4981   -0.9865 C   0  0  0  0  0  0  0  0  0  0  0  0
   -1.3140    0.6436   -2.1940 C   0  0  0  0  0  0  0  0  0  0  0  0
   -2.5788    2.0094   -0.6232 C   0  0  0  0  0  0  0  0  0  0  0  0
   -3.0265   -0.1172    1.8329 C   0  0  0  0  0  0  0  0  0  0  0  0
   -1.3451   -1.9048    1.7519 C   0  0  0  0  0  0  0  0  0  0  0  0
   -2.6787   -1.4546   -0.2373 C   0  0  0  0  0  0  0  0  0  0  0  0
    0.6921   -2.7779   -0.5599 C   0  0  0  0  0  0  0  0  0  0  0  0
    2.7157   -1.4616   -1.0990 C   0  0  0  0  0  0  0  0  0  0  0  0
    0.6103   -0.9013   -2.1883 C   0  0  0  0  0  0  0  0  0  0  0  0
    3.0366    0.1128    1.8313 C   0  0  0  0  0  0  0  0  0  0  0  0
    1.3553    1.9008    1.7551 C   0  0  0  0  0  0  0  0  0  0  0  0
    2.6876    1.4547   -0.2359 C   0  0  0  0  0  0  0  0  0  0  0  0
   -0.7743    0.9179    1.2305 H   0  0  0  0  0  0  0  0  0  0  0  0
    0.7922   -0.9185    1.2287 H   0  0  0  0  0  0  0  0  0  0  0  0
   -0.1877    3.2221   -0.1753 H   0  0  0  0  0  0  0  0  0  0  0  0
   -0.5076    3.1083   -1.8441 H   0  0  0  0  0  0  0  0  0  0  0  0
    0.7945    2.1857   -1.2904 H   0  0  0  0  0  0  0  0  0  0  0  0
   -1.7949   -0.3242   -2.2109 H   0  0  0  0  0  0  0  0  0  0  0  0
   -0.5661    0.8831   -2.9501 H   0  0  0  0  0  0  0  0  0  0  0  0
   -2.1225    1.1862   -2.7229 H   0  0  0  0  0  0  0  0  0  0  0  0
   -3.4090    1.3115   -0.7421 H   0  0  0  0  0  0  0  0  0  0  0  0
   -2.6470    2.4655    0.3707 H   0  0  0  0  0  0  0  0  0  0  0  0
   -2.7461    2.8183   -1.3459 H   0  0  0  0  0  0  0  0  0  0  0  0
   -2.5637    0.3824    2.6913 H   0  0  0  0  0  0  0  0  0  0  0  0
   -3.7171   -0.8732    2.2257 H   0  0  0  0  0  0  0  0  0  0  0  0
   -3.6447    0.6176    1.3164 H   0  0  0  0  0  0  0  0  0  0  0  0
   -2.1443   -2.4629    2.2601 H   0  0  0  0  0  0  0  0  0  0  0  0
   -0.7076   -1.5223    2.5569 H   0  0  0  0  0  0  0  0  0  0  0  0
   -0.8161   -2.6632    1.2036 H   0  0  0  0  0  0  0  0  0  0  0  0
   -3.3231   -2.2549    0.1510 H   0  0  0  0  0  0  0  0  0  0  0  0
   -3.3535   -0.7865   -0.7764 H   0  0  0  0  0  0  0  0  0  0  0  0
   -2.0169   -1.9263   -0.9550 H   0  0  0  0  0  0  0  0  0  0  0  0
    1.1269   -3.4703   -1.2938 H   0  0  0  0  0  0  0  0  0  0  0  0
    1.0256   -3.1426    0.4171 H   0  0  0  0  0  0  0  0  0  0  0  0
   -0.3757   -2.9103   -0.6821 H   0  0  0  0  0  0  0  0  0  0  0  0
    3.1936   -0.5782   -1.5125 H   0  0  0  0  0  0  0  0  0  0  0  0
    3.2554   -1.7999   -0.2137 H   0  0  0  0  0  0  0  0  0  0  0  0
    2.9059   -2.2434   -1.8485 H   0  0  0  0  0  0  0  0  0  0  0  0
   -0.3597   -1.3341   -2.3810 H   0  0  0  0  0  0  0  0  0  0  0  0
    1.1703   -1.4356   -2.9766 H   0  0  0  0  0  0  0  0  0  0  0  0
    0.9138    0.1168   -2.3986 H   0  0  0  0  0  0  0  0  0  0  0  0
    3.6796   -0.5992    1.3161 H   0  0  0  0  0  0  0  0  0  0  0  0
    3.7015    0.8772    2.2523 H   0  0  0  0  0  0  0  0  0  0  0  0
    2.5722   -0.4122    2.6737 H   0  0  0  0  0  0  0  0  0  0  0  0
    0.8880    1.4953    2.6620 H   0  0  0  0  0  0  0  0  0  0  0  0
    0.6186    2.5225    1.2834 H   0  0  0  0  0  0  0  0  0  0  0  0
    2.1434    2.5818    2.1041 H   0  0  0  0  0  0  0  0  0  0  0  0
    3.7642    1.2391   -0.2146 H   0  0  0  0  0  0  0  0  0  0  0  0
    2.3614    1.1757   -1.2327 H   0  0  0  0  0  0  0  0  0  0  0  0
    2.6275    2.5482   -0.1679 H   0  0  0  0  0  0  0  0  0  0  0  0
  1  2  1  0  0  0  0
  1  3  1  0  0  0  0
  1  4  1  0  0  0  0
  1 19  1  0  0  0  0
  2  5  1  0  0  0  0
  2  6  1  0  0  0  0
  2 20  1  0  0  0  0
  3  7  1  0  0  0  0
  3  8  1  0  0  0  0
  3  9  1  0  0  0  0
  4 10  1  0  0  0  0
  4 11  1  0  0  0  0
  4 12  1  0  0  0  0
  5 13  1  0  0  0  0
  5 14  1  0  0  0  0
  5 15  1  0  0  0  0
  6 16  1  0  0  0  0
  6 17  1  0  0  0  0
  6 18  1  0  0  0  0
  7 21  1  0  0  0  0
  7 22  1  0  0  0  0
  7 23  1  0  0  0  0
  8 24  1  0  0  0  0
  8 25  1  0  0  0  0
  8 26  1  0  0  0  0
  9 27  1  0  0  0  0
  9 28  1  0  0  0  0
  9 29  1  0  0  0  0
 10 30  1  0  0  0  0
 10 31  1  0  0  0  0
 10 32  1  0  0  0  0
 11 33  1  0  0  0  0
 11 34  1  0  0  0  0
 11 35  1  0  0  0  0
 12 36  1  0  0  0  0
 12 37  1  0  0  0  0
 12 38  1  0  0  0  0
 13 39  1  0  0  0  0
 13 40  1  0  0  0  0
 13 41  1  0  0  0  0
 14 42  1  0  0  0  0
 14 43  1  0  0  0  0
 14 44  1  0  0  0  0
 15 45  1  0  0  0  0
 15 46  1  0  0  0  0
 15 47  1  0  0  0  0
 16 48  1  0  0  0  0
 16 49  1  0  0  0  0
 16 50  1  0  0  0  0
 17 51  1  0  0  0  0
 17 52  1  0  0  0  0
 17 53  1  0  0  0  0
 18 54  1  0  0  0  0
 18 55  1  0  0  0  0
 18 56  1  0  0  0  0
M  END
> <PUBCHEM_COMPOUND_CID>
143941

> <PUBCHEM_CONFORMER_RMSD>
0.6

> <PUBCHEM_CONFORMER_DIVERSEORDER>
1

> <PUBCHEM_MMFF94_PARTIAL_CHARGES>
0

> <PUBCHEM_EFFECTIVE_ROTOR_COUNT>
5

> <PUBCHEM_PHARMACOPHORE_FEATURES>
7
3 1 3 4 hydrophobe
3 2 5 6 hydrophobe
4 3 7 8 9 hydrophobe
4 4 10 11 12 hydrophobe
4 5 13 14 15 hydrophobe
4 6 16 17 18 hydrophobe
6 1 2 3 4 5 6 hydrophobe

> <PUBCHEM_HEAVY_ATOM_COUNT>
18

> <PUBCHEM_ATOM_DEF_STEREO_COUNT>
0

> <PUBCHEM_ATOM_UDEF_STEREO_COUNT>
0

> <PUBCHEM_BOND_DEF_STEREO_COUNT>
0

> <PUBCHEM_BOND_UDEF_STEREO_COUNT>
0

> <PUBCHEM_ISOTOPIC_ATOM_COUNT>
0

> <PUBCHEM_COMPONENT_COUNT>
1

> <PUBCHEM_CACTVS_TAUTO_COUNT>
1

> <PUBCHEM_CONFORMER_ID>
0002324500000001

> <PUBCHEM_MMFF94_ENERGY>
198.6251

> <PUBCHEM_FEATURE_SELFOVERLAP>
40.133

> <PUBCHEM_SHAPE_FINGERPRINT>
10863032 1 17203618098653351827
12011746 2 18265898144945534358
12423570 1 12291152818672781170
12654903 92 16810417153818453983
12716301 132 18042411226789641440
13538477 17 16081664266022986673
13898156 1 16370735798296978059
14142880 1 16328753472321384129
14251745 187 18190468159867039022
14787075 74 16123010584826236359
14817 1 12483659716805262311
15219456 202 18411986819054605612
15309172 13 18129096904149575976
15852999 172 17752736109691966535
15881359 60 17908674539448134303
16945 1 17700701923671002058
18981168 100 17846774105099901402
19930374 2 18339066211415698563
20600515 1 17603586386932604329
21061003 4 17701274524685001758
22802520 49 18191034399712550917
23419403 2 18196381307641944383
23526113 38 17833275216025224735
23557571 272 17750808816084922691
23559900 14 17902518086931532694
23598294 1 17530971254257228361
2748010 2 18409729547383955228
3286 77 17703514384378710722
430814 3 16056609780122421947
5337951 7 18123747547978183684
568465 68 18272928353880279032
5845 1 13078185595498428335
68419 9 15936985019543851158
81228 2 18113624460902383673

> <PUBCHEM_SHAPE_MULTIPOLES>
370.43
4.22
2.71
2.21
0.1
0.08
0
-0.12
-1.37
-0.02
0.45
-0.06
0.04
1.43

> <PUBCHEM_SHAPE_SELFOVERLAP>
693.28

> <PUBCHEM_SHAPE_VOLUME>
239.6

> <PUBCHEM_COORDINATE_TYPE>
2
5
10

$$$$
