79154
  -OEChem-10312420402D

 21 20  0     0  0  0  0  0  0999 V2000
    3.9894    0.1159    0.0000 Cr  0  2  0  0  0  0  0  0  0  0  0  0
    3.4016   -0.6931    0.0000 C   0  5  0  0  0  0  0  0  0  0  0  0
    3.5827    1.0295    0.0000 C   0  5  0  0  0  0  0  0  0  0  0  0
    4.2106   -1.2809    0.0000 C   0  0  0  0  0  0  0  0  0  0  0  0
    2.5926   -1.2809    0.0000 C   0  0  0  0  0  0  0  0  0  0  0  0
    3.4782    2.0240    0.0000 C   0  0  0  0  0  0  0  0  0  0  0  0
    2.6691    0.6227    0.0000 C   0  0  0  0  0  0  0  0  0  0  0  0
    3.9016   -2.2319    0.0000 C   0  0  0  0  0  0  0  0  0  0  0  0
    2.9016   -2.2319    0.0000 C   0  0  0  0  0  0  0  0  0  0  0  0
    2.5000    2.2319    0.0000 C   0  0  0  0  0  0  0  0  0  0  0  0
    2.0000    1.3659    0.0000 C   0  0  0  0  0  0  0  0  0  0  0  0
    3.0372   -0.1915    0.0000 H   0  0  0  0  0  0  0  0  0  0  0  0
    4.5772    1.1340    0.0000 H   0  0  0  0  0  0  0  0  0  0  0  0
    4.8003   -1.0893    0.0000 H   0  0  0  0  0  0  0  0  0  0  0  0
    2.0030   -1.0893    0.0000 H   0  0  0  0  0  0  0  0  0  0  0  0
    3.9389    2.4389    0.0000 H   0  0  0  0  0  0  0  0  0  0  0  0
    2.5402    0.0163    0.0000 H   0  0  0  0  0  0  0  0  0  0  0  0
    4.2660   -2.7335    0.0000 H   0  0  0  0  0  0  0  0  0  0  0  0
    2.5372   -2.7335    0.0000 H   0  0  0  0  0  0  0  0  0  0  0  0
    2.2478    2.7983    0.0000 H   0  0  0  0  0  0  0  0  0  0  0  0
    1.3834    1.3011    0.0000 H   0  0  0  0  0  0  0  0  0  0  0  0
  2  4  1  0  0  0  0
  2  5  1  0  0  0  0
  2 12  1  0  0  0  0
  3  6  1  0  0  0  0
  3  7  1  0  0  0  0
  3 13  1  0  0  0  0
  4  8  2  0  0  0  0
  4 14  1  0  0  0  0
  5  9  2  0  0  0  0
  5 15  1  0  0  0  0
  6 10  2  0  0  0  0
  6 16  1  0  0  0  0
  7 11  2  0  0  0  0
  7 17  1  0  0  0  0
  8  9  1  0  0  0  0
  8 18  1  0  0  0  0
  9 19  1  0  0  0  0
 10 11  1  0  0  0  0
 10 20  1  0  0  0  0
 11 21  1  0  0  0  0
M  CHG  3   1   2   2  -1   3  -1
M  END
> <PUBCHEM_COMPOUND_CID>
79154

> <PUBCHEM_COMPOUND_CANONICALIZED>
1

> <PUBCHEM_CACTVS_COMPLEXITY>
11.6

> <PUBCHEM_CACTVS_HBOND_ACCEPTOR>
2

> <PUBCHEM_CACTVS_HBOND_DONOR>
0

> <PUBCHEM_CACTVS_ROTATABLE_BOND>
0

> <PUBCHEM_CACTVS_SUBSKEYS>
AAADccBwAAAAAACAAAAAAAAAAAAAAYMAAAAAAAAAAAAAAAABQAAAGAAAAAAACACAEAAwAIAAAACAACBCAAACAAAgAAAIiAAAAIgIICKAERCAIAAggAAIiAYAAAAAAAAAAAAAAAAAAAAAAAAAAAAAAAAAAA==

> <PUBCHEM_IUPAC_OPENEYE_NAME>
chromous;cyclopenta-1,3-diene

> <PUBCHEM_IUPAC_CAS_NAME>
chromium(2+);cyclopenta-1,3-diene

> <PUBCHEM_IUPAC_NAME_MARKUP>
chromium(2+);cyclopenta-1,3-diene

> <PUBCHEM_IUPAC_NAME>
chromium(2+);cyclopenta-1,3-diene

> <PUBCHEM_IUPAC_SYSTEMATIC_NAME>
chromium(2+);cyclopenta-1,3-diene

> <PUBCHEM_IUPAC_TRADITIONAL_NAME>
chromous;cyclopenta-1,3-diene

> <PUBCHEM_IUPAC_INCHI>
InChI=1S/2C5H5.Cr/c2*1-2-4-5-3-1;/h2*1-5H;/q2*-1;+2

> <PUBCHEM_IUPAC_INCHIKEY>
TYYBBNOTQFVVKN-UHFFFAOYSA-N

> <PUBCHEM_EXACT_MASS>
182.018755

> <PUBCHEM_MOLECULAR_FORMULA>
C10H10Cr

> <PUBCHEM_MOLECULAR_WEIGHT>
182.18

> <PUBCHEM_OPENEYE_CAN_SMILES>
[CH-]1C=CC=C1.[CH-]1C=CC=C1.[Cr+2]

> <PUBCHEM_OPENEYE_ISO_SMILES>
[CH-]1C=CC=C1.[CH-]1C=CC=C1.[Cr+2]

> <PUBCHEM_CACTVS_TPSA>
0

> <PUBCHEM_MONOISOTOPIC_WEIGHT>
182.018755

> <PUBCHEM_TOTAL_CHARGE>
0

> <PUBCHEM_HEAVY_ATOM_COUNT>
11

> <PUBCHEM_ATOM_DEF_STEREO_COUNT>
0

> <PUBCHEM_ATOM_UDEF_STEREO_COUNT>
0

> <PUBCHEM_BOND_DEF_STEREO_COUNT>
0

> <PUBCHEM_BOND_UDEF_STEREO_COUNT>
0

> <PUBCHEM_ISOTOPIC_ATOM_COUNT>
0

> <PUBCHEM_COMPONENT_COUNT>
3

> <PUBCHEM_CACTVS_TAUTO_COUNT>
-1

> <PUBCHEM_COORDINATE_TYPE>
1
5
255

> <PUBCHEM_BONDANNOTATIONS>
10  11  8
2  4  8
2  5  8
3  6  8
3  7  8
4  8  8
5  9  8
6  10  8
7  11  8
8  9  8

$$$$
