11984628
  -OEChem-10312420542D

 43 42  0     0  0  0  0  0  0999 V2000
    3.7878   -0.0358    0.0000 Cr  0  0  0  0  0  0  0  0  0  0  0  0
    4.2085   -0.3228    0.0000 C   0  5  0  0  0  0  0  0  0  0  0  0
    4.2085   -1.7183    0.0000 C   0  5  0  0  0  0  0  0  0  0  0  0
    3.0000   -1.0205    0.0000 C   0  5  0  0  0  0  0  0  0  0  0  0
    4.2264    0.3228    0.0000 C   0  0  0  0  0  0  0  0  0  0  0  0
    4.2264    1.7183    0.0000 C   0  0  0  0  0  0  0  0  0  0  0  0
    3.0179    1.0205    0.0000 C   0  0  0  0  0  0  0  0  0  0  0  0
    4.6114   -1.0205    0.0000 C   0  5  0  0  0  0  0  0  0  0  0  0
    3.4028   -0.3228    0.0000 C   0  5  0  0  0  0  0  0  0  0  0  0
    3.4028   -1.7183    0.0000 C   0  5  0  0  0  0  0  0  0  0  0  0
    4.6293    1.0205    0.0000 C   0  0  0  0  0  0  0  0  0  0  0  0
    3.4207    0.3228    0.0000 C   0  0  0  0  0  0  0  0  0  0  0  0
    3.4207    1.7183    0.0000 C   0  0  0  0  0  0  0  0  0  0  0  0
    4.9416    0.3573    0.0000 C   0  0  0  0  0  0  0  0  0  0  0  0
    4.7085   -2.5843    0.0000 C   0  0  0  0  0  0  0  0  0  0  0  0
    2.0000   -1.0205    0.0000 C   0  0  0  0  0  0  0  0  0  0  0  0
    4.9883   -0.3249    0.0000 C   0  0  0  0  0  0  0  0  0  0  0  0
    4.7264    2.5843    0.0000 C   0  0  0  0  0  0  0  0  0  0  0  0
    2.0179    1.0205    0.0000 C   0  0  0  0  0  0  0  0  0  0  0  0
    5.2314   -1.0205    0.0000 H   0  0  0  0  0  0  0  0  0  0  0  0
    2.7831   -0.3050    0.0000 H   0  0  0  0  0  0  0  0  0  0  0  0
    3.0928   -2.2552    0.0000 H   0  0  0  0  0  0  0  0  0  0  0  0
    5.2493    1.0205    0.0000 H   0  0  0  0  0  0  0  0  0  0  0  0
    2.8012    0.3463    0.0000 H   0  0  0  0  0  0  0  0  0  0  0  0
    3.1107    2.2552    0.0000 H   0  0  0  0  0  0  0  0  0  0  0  0
    5.3633   -0.0972    0.0000 H   0  0  0  0  0  0  0  0  0  0  0  0
    5.3962    0.7790    0.0000 H   0  0  0  0  0  0  0  0  0  0  0  0
    4.5200    0.8118    0.0000 H   0  0  0  0  0  0  0  0  0  0  0  0
    4.1716   -2.8943    0.0000 H   0  0  0  0  0  0  0  0  0  0  0  0
    5.0185   -3.1212    0.0000 H   0  0  0  0  0  0  0  0  0  0  0  0
    5.2455   -2.2743    0.0000 H   0  0  0  0  0  0  0  0  0  0  0  0
    2.0000   -0.4005    0.0000 H   0  0  0  0  0  0  0  0  0  0  0  0
    1.3800   -1.0205    0.0000 H   0  0  0  0  0  0  0  0  0  0  0  0
    2.0000   -1.6405    0.0000 H   0  0  0  0  0  0  0  0  0  0  0  0
    4.5868   -0.7973    0.0000 H   0  0  0  0  0  0  0  0  0  0  0  0
    5.4607   -0.7265    0.0000 H   0  0  0  0  0  0  0  0  0  0  0  0
    5.3899    0.1475    0.0000 H   0  0  0  0  0  0  0  0  0  0  0  0
    5.2634    2.2743    0.0000 H   0  0  0  0  0  0  0  0  0  0  0  0
    5.0364    3.1212    0.0000 H   0  0  0  0  0  0  0  0  0  0  0  0
    4.1895    2.8943    0.0000 H   0  0  0  0  0  0  0  0  0  0  0  0
    2.0179    1.6405    0.0000 H   0  0  0  0  0  0  0  0  0  0  0  0
    1.3979    1.0205    0.0000 H   0  0  0  0  0  0  0  0  0  0  0  0
    2.0179    0.4005    0.0000 H   0  0  0  0  0  0  0  0  0  0  0  0
  2  8  1  0  0  0  0
  2  9  1  0  0  0  0
  2 14  1  0  0  0  0
  3  8  1  0  0  0  0
  3 10  1  0  0  0  0
  3 15  1  0  0  0  0
  4  9  1  0  0  0  0
  4 10  1  0  0  0  0
  4 16  1  0  0  0  0
  5 11  2  0  0  0  0
  5 12  1  0  0  0  0
  5 17  1  0  0  0  0
  6 11  1  0  0  0  0
  6 13  2  0  0  0  0
  6 18  1  0  0  0  0
  7 12  2  0  0  0  0
  7 13  1  0  0  0  0
  7 19  1  0  0  0  0
  8 20  1  0  0  0  0
  9 21  1  0  0  0  0
 10 22  1  0  0  0  0
 11 23  1  0  0  0  0
 12 24  1  0  0  0  0
 13 25  1  0  0  0  0
 14 26  1  0  0  0  0
 14 27  1  0  0  0  0
 14 28  1  0  0  0  0
 15 29  1  0  0  0  0
 15 30  1  0  0  0  0
 15 31  1  0  0  0  0
 16 32  1  0  0  0  0
 16 33  1  0  0  0  0
 16 34  1  0  0  0  0
 17 35  1  0  0  0  0
 17 36  1  0  0  0  0
 17 37  1  0  0  0  0
 18 38  1  0  0  0  0
 18 39  1  0  0  0  0
 18 40  1  0  0  0  0
 19 41  1  0  0  0  0
 19 42  1  0  0  0  0
 19 43  1  0  0  0  0
M  CHG  6   2  -1   3  -1   4  -1   8  -1   9  -1  10  -1
M  END
> <PUBCHEM_COMPOUND_CID>
11984628

> <PUBCHEM_COMPOUND_CANONICALIZED>
1

> <PUBCHEM_CACTVS_COMPLEXITY>
227

> <PUBCHEM_CACTVS_HBOND_ACCEPTOR>
6

> <PUBCHEM_CACTVS_HBOND_DONOR>
0

> <PUBCHEM_CACTVS_ROTATABLE_BOND>
0

> <PUBCHEM_CACTVS_SUBSKEYS>
AAADceB4AAAAAACAAAAAAAAAEiRIkSJEiBAAAAAAAAAAAAAAAAAAGAAAAAAADACAAAACAAAAAACAAiBCAAAAAAAgAAAACAAAAAgIAAIAAQAAAAAAAAAIgAMAgEAOAAAAAAAAAAAAAAQAAAAAAAAAAAAAAA==

> <PUBCHEM_IUPAC_OPENEYE_NAME>
chromium;mesitylene;1,3,5-trimethylcyclohexane

> <PUBCHEM_IUPAC_CAS_NAME>
chromium;1,3,5-trimethylbenzene;1,3,5-trimethylcyclohexane

> <PUBCHEM_IUPAC_NAME_MARKUP>
chromium;1,3,5-trimethylbenzene;1,3,5-trimethylcyclohexane

> <PUBCHEM_IUPAC_NAME>
chromium;1,3,5-trimethylbenzene;1,3,5-trimethylcyclohexane

> <PUBCHEM_IUPAC_SYSTEMATIC_NAME>
chromium;1,3,5-trimethylbenzene;1,3,5-trimethylcyclohexane

> <PUBCHEM_IUPAC_TRADITIONAL_NAME>
chromium;mesitylene;1,3,5-trimethylcyclohexane

> <PUBCHEM_IUPAC_INCHI>
InChI=1S/2C9H12.Cr/c2*1-7-4-8(2)6-9(3)5-7;/h2*4-6H,1-3H3;/q;-6;

> <PUBCHEM_IUPAC_INCHIKEY>
MNSOCXKWAXLGOU-UHFFFAOYSA-N

> <PUBCHEM_EXACT_MASS>
292.128305

> <PUBCHEM_MOLECULAR_FORMULA>
C18H24Cr-6

> <PUBCHEM_MOLECULAR_WEIGHT>
292.4

> <PUBCHEM_OPENEYE_CAN_SMILES>
C[C-]1[CH-][C-]([CH-][C-]([CH-]1)C)C.CC1=CC(=CC(=C1)C)C.[Cr]

> <PUBCHEM_OPENEYE_ISO_SMILES>
C[C-]1[CH-][C-]([CH-][C-]([CH-]1)C)C.CC1=CC(=CC(=C1)C)C.[Cr]

> <PUBCHEM_CACTVS_TPSA>
0

> <PUBCHEM_MONOISOTOPIC_WEIGHT>
292.128305

> <PUBCHEM_TOTAL_CHARGE>
-6

> <PUBCHEM_HEAVY_ATOM_COUNT>
19

> <PUBCHEM_ATOM_DEF_STEREO_COUNT>
0

> <PUBCHEM_ATOM_UDEF_STEREO_COUNT>
0

> <PUBCHEM_BOND_DEF_STEREO_COUNT>
0

> <PUBCHEM_BOND_UDEF_STEREO_COUNT>
0

> <PUBCHEM_ISOTOPIC_ATOM_COUNT>
0

> <PUBCHEM_COMPONENT_COUNT>
3

> <PUBCHEM_CACTVS_TAUTO_COUNT>
-1

> <PUBCHEM_NONSTANDARDBOND>
1  10  6
1  11  6
1  12  6
1  13  6
1  2  6
1  3  6
1  4  6
1  5  6
1  6  6
1  7  6
1  8  6
1  9  6

> <PUBCHEM_COORDINATE_TYPE>
1
5
255

> <PUBCHEM_BONDANNOTATIONS>
5  11  8
5  12  8
6  11  8
6  13  8
7  12  8
7  13  8

$$$$
