137157
  -OEChem-11012401253D

 37 37  0     0  0  0  0  0  0999 V2000
   -1.9293   -2.7380    0.6493 Cl  0  0  0  0  0  0  0  0  0  0  0  0
   -1.8481    2.6977    0.7681 Cl  0  0  0  0  0  0  0  0  0  0  0  0
   -0.7391   -0.0468    1.1418 O   0  0  0  0  0  0  0  0  0  0  0  0
    0.0111   -0.0344   -1.0728 O   0  0  0  0  0  0  0  0  0  0  0  0
   -7.0494    0.0993   -1.2385 N   0  0  0  0  0  0  0  0  0  0  0  0
    5.2754   -0.0731   -0.5439 C   0  0  0  0  0  0  0  0  0  0  0  0
    4.1084   -0.1176    0.4474 C   0  0  0  0  0  0  0  0  0  0  0  0
    6.6475   -0.0194    0.1311 C   0  0  0  0  0  0  0  0  0  0  0  0
    2.7338   -0.0954   -0.2301 C   0  0  0  0  0  0  0  0  0  0  0  0
    7.7682    0.0975   -0.9031 C   0  0  0  0  0  0  0  0  0  0  0  0
    1.5881   -0.0735    0.7826 C   0  0  0  0  0  0  0  0  0  0  0  0
    9.1325    0.1895   -0.2382 C   0  0  0  0  0  0  0  0  0  0  0  0
    0.2213   -0.0390    0.1325 C   0  0  0  0  0  0  0  0  0  0  0  0
   -2.0462   -0.0165    0.6497 C   0  0  0  0  0  0  0  0  0  0  0  0
   -2.6871   -1.2096    0.3886 C   0  0  0  0  0  0  0  0  0  0  0  0
   -2.6508    1.2055    0.4410 C   0  0  0  0  0  0  0  0  0  0  0  0
   -3.9920   -1.1794   -0.1034 C   0  0  0  0  0  0  0  0  0  0  0  0
   -3.9557    1.2358   -0.0510 C   0  0  0  0  0  0  0  0  0  0  0  0
   -4.6262    0.0434   -0.3231 C   0  0  0  0  0  0  0  0  0  0  0  0
   -5.9625    0.0741   -0.8280 C   0  0  0  0  0  0  0  0  0  0  0  0
    5.2253   -0.9524   -1.1979 H   0  0  0  0  0  0  0  0  0  0  0  0
    5.1583    0.8071   -1.1885 H   0  0  0  0  0  0  0  0  0  0  0  0
    4.1941   -1.0196    1.0656 H   0  0  0  0  0  0  0  0  0  0  0  0
    4.1854    0.7406    1.1266 H   0  0  0  0  0  0  0  0  0  0  0  0
    6.7935   -0.9206    0.7386 H   0  0  0  0  0  0  0  0  0  0  0  0
    6.6858    0.8396    0.8119 H   0  0  0  0  0  0  0  0  0  0  0  0
    2.6334   -0.9723   -0.8817 H   0  0  0  0  0  0  0  0  0  0  0  0
    2.6611    0.7859   -0.8796 H   0  0  0  0  0  0  0  0  0  0  0  0
    7.7498   -0.7714   -1.5712 H   0  0  0  0  0  0  0  0  0  0  0  0
    7.6123    0.9877   -1.5235 H   0  0  0  0  0  0  0  0  0  0  0  0
    1.6415   -0.9694    1.4116 H   0  0  0  0  0  0  0  0  0  0  0  0
    1.6800    0.8133    1.4199 H   0  0  0  0  0  0  0  0  0  0  0  0
    9.3343   -0.7000    0.3673 H   0  0  0  0  0  0  0  0  0  0  0  0
    9.9186    0.2706   -0.9954 H   0  0  0  0  0  0  0  0  0  0  0  0
    9.1942    1.0687    0.4110 H   0  0  0  0  0  0  0  0  0  0  0  0
   -4.5157   -2.1095   -0.3164 H   0  0  0  0  0  0  0  0  0  0  0  0
   -4.4511    2.1896   -0.2229 H   0  0  0  0  0  0  0  0  0  0  0  0
  1 15  1  0  0  0  0
  2 16  1  0  0  0  0
  3 13  1  0  0  0  0
  3 14  1  0  0  0  0
  4 13  2  0  0  0  0
  5 20  3  0  0  0  0
  6  7  1  0  0  0  0
  6  8  1  0  0  0  0
  6 21  1  0  0  0  0
  6 22  1  0  0  0  0
  7  9  1  0  0  0  0
  7 23  1  0  0  0  0
  7 24  1  0  0  0  0
  8 10  1  0  0  0  0
  8 25  1  0  0  0  0
  8 26  1  0  0  0  0
  9 11  1  0  0  0  0
  9 27  1  0  0  0  0
  9 28  1  0  0  0  0
 10 12  1  0  0  0  0
 10 29  1  0  0  0  0
 10 30  1  0  0  0  0
 11 13  1  0  0  0  0
 11 31  1  0  0  0  0
 11 32  1  0  0  0  0
 12 33  1  0  0  0  0
 12 34  1  0  0  0  0
 12 35  1  0  0  0  0
 14 15  2  0  0  0  0
 14 16  1  0  0  0  0
 15 17  1  0  0  0  0
 16 18  2  0  0  0  0
 17 19  2  0  0  0  0
 17 36  1  0  0  0  0
 18 19  1  0  0  0  0
 18 37  1  0  0  0  0
 19 20  1  0  0  0  0
M  END
> <PUBCHEM_COMPOUND_CID>
137157

> <PUBCHEM_CONFORMER_RMSD>
0.8

> <PUBCHEM_CONFORMER_DIVERSEORDER>
1
135
166
115
30
178
26
185
110
191
192
221
147
28
77
222
153
15
196
112
189
172
174
177
91
21
93
163
60
65
190
158
131
116
184
56
74
92
68
5
132
230
155
210
203
223
144
179
39
204
12
84
145
86
45
193
195
106
96
217
98
100
169
83
17
233
234
206
41
73
162
9
136
66
102
138
108
44
76
148
123
127
38
235
207
161
133
95
150
201
58
134
104
25
3
188
120
85
63
81
55
13
165
187
130
114
198
82
80
32
212
151
111
224
11
42
79
75
4
213
89
197
219
2
220
225
105
10
205
122
149
59
40
186
202
53
113
118
7
126
160
33
67
72
6
14
78
156
57
142
152
208
180
94
107
146
61
109
173
50
90
140
101
200
129
194
117
49
34
183
69
54
159
157
46
229
232
20
154
211
143
168
209
171
43
227
215
36
19
170
62
88
128
199
216
51
167
137
16
226
64
164
48
124
103
175
35
87
31
228
29
24
218
37
70
121
71
27
139
22
52
176
231
8
125
23
18
182
99
181
141
47
97
214
119

> <PUBCHEM_MMFF94_PARTIAL_CHARGES>
16
1 -0.18
11 0.06
13 0.66
14 0.08
15 0.18
16 0.18
17 -0.15
18 -0.15
19 0.07
2 -0.18
20 0.48
3 -0.23
36 0.15
37 0.15
4 -0.57
5 -0.56

> <PUBCHEM_EFFECTIVE_ROTOR_COUNT>
8

> <PUBCHEM_PHARMACOPHORE_FEATURES>
6
1 12 hydrophobe
1 4 acceptor
1 5 acceptor
3 6 8 10 hydrophobe
3 7 9 11 hydrophobe
6 14 15 16 17 18 19 rings

> <PUBCHEM_HEAVY_ATOM_COUNT>
20

> <PUBCHEM_ATOM_DEF_STEREO_COUNT>
0

> <PUBCHEM_ATOM_UDEF_STEREO_COUNT>
0

> <PUBCHEM_BOND_DEF_STEREO_COUNT>
0

> <PUBCHEM_BOND_UDEF_STEREO_COUNT>
0

> <PUBCHEM_ISOTOPIC_ATOM_COUNT>
0

> <PUBCHEM_COMPONENT_COUNT>
1

> <PUBCHEM_CACTVS_TAUTO_COUNT>
1

> <PUBCHEM_CONFORMER_ID>
000217C500000001

> <PUBCHEM_MMFF94_ENERGY>
29.1183

> <PUBCHEM_FEATURE_SELFOVERLAP>
30.46

> <PUBCHEM_SHAPE_FINGERPRINT>
10 15 9223226356581859814
10299344 5 11672063048022072388
10366900 7 18059853960941740570
106641 1 10953744379149907181
10968037 39 18410855464882123527
11315181 36 18260272966428164584
12091667 2 18334300872787281114
12236239 1 17603579717043507859
13288520 33 18201719565828820705
13533116 47 18339633434956739602
13668630 136 15985108505310056612
14123256 10 18201719552611551174
14251764 46 17313104155269646131
14849402 71 10735574918486432442
14933364 13 8142082053700473534
15183329 4 18408603643857417626
155225 1 16588298359857919717
15716309 27 11959729365860194628
17093844 174 15502380049511363896
18335252 98 17748834020878291203
187816 3 18411414012873770739
19489759 90 18341897381164160800
21150785 3 17846497037355787484
21267235 1 18342458175465947249
21315759 40 14692574329996727468
22224240 67 11386367028982069597
2297311 6 18202284701477685689
23035841 295 12031784773285190820
23402539 116 18342733014649659237
23559900 14 18340762749267195296
246663 6 15339119056744256236
249057 3 18334013925679363484
300161 21 17749106695355982274
335352 9 18411693293449325373
4325135 7 16702301256478526796
59755656 215 18341613694474789910
8209 1 18411136940159430140

> <PUBCHEM_SHAPE_MULTIPOLES>
398.61
21.02
1.75
1
46.93
0.03
0.06
-1.1
7.72
-2.62
-0.61
-0.44
-0.03
-0.02

> <PUBCHEM_SHAPE_SELFOVERLAP>
787.244

> <PUBCHEM_SHAPE_VOLUME>
238.1

> <PUBCHEM_COORDINATE_TYPE>
2
5
10

$$$$
