11890242
  -OEChem-11012401223D

 29 30  0     1  0  0  0  0  0999 V2000
   -1.6791   -2.2350    0.2197 O   0  0  0  0  0  0  0  0  0  0  0  0
    0.0119   -0.5041    0.2021 C   0  0  1  0  0  0  0  0  0  0  0  0
    0.3213    0.9400   -0.2438 C   0  0  1  0  0  0  0  0  0  0  0  0
   -1.3769   -0.9408   -0.2953 C   0  0  2  0  0  0  0  0  0  0  0  0
   -0.7709    1.9060    0.2331 C   0  0  0  0  0  0  0  0  0  0  0  0
    1.1149   -1.4643   -0.2746 C   0  0  0  0  0  0  0  0  0  0  0  0
    1.7019    1.3829    0.2573 C   0  0  0  0  0  0  0  0  0  0  0  0
   -2.4633    0.0362    0.1578 C   0  0  0  0  0  0  0  0  0  0  0  0
   -2.1506    1.4696   -0.2531 C   0  0  0  0  0  0  0  0  0  0  0  0
    2.4948   -1.0146    0.2020 C   0  0  0  0  0  0  0  0  0  0  0  0
    2.7959    0.4239   -0.2052 C   0  0  0  0  0  0  0  0  0  0  0  0
    0.0087   -0.5419    1.3017 H   0  0  0  0  0  0  0  0  0  0  0  0
    0.3379    0.9682   -1.3431 H   0  0  0  0  0  0  0  0  0  0  0  0
   -1.3812   -1.0132   -1.3893 H   0  0  0  0  0  0  0  0  0  0  0  0
   -0.5624    2.9179   -0.1340 H   0  0  0  0  0  0  0  0  0  0  0  0
   -0.7721    1.9588    1.3292 H   0  0  0  0  0  0  0  0  0  0  0  0
    1.1107   -1.5210   -1.3706 H   0  0  0  0  0  0  0  0  0  0  0  0
    0.9249   -2.4779    0.0969 H   0  0  0  0  0  0  0  0  0  0  0  0
    1.7040    1.4345    1.3535 H   0  0  0  0  0  0  0  0  0  0  0  0
    1.9276    2.3913   -0.1091 H   0  0  0  0  0  0  0  0  0  0  0  0
   -2.5797   -0.0180    1.2482 H   0  0  0  0  0  0  0  0  0  0  0  0
   -3.4310   -0.2710   -0.2569 H   0  0  0  0  0  0  0  0  0  0  0  0
   -2.9138    2.1441    0.1510 H   0  0  0  0  0  0  0  0  0  0  0  0
   -2.1962    1.5542   -1.3458 H   0  0  0  0  0  0  0  0  0  0  0  0
    3.2612   -1.6816   -0.2088 H   0  0  0  0  0  0  0  0  0  0  0  0
    2.5483   -1.1024    1.2942 H   0  0  0  0  0  0  0  0  0  0  0  0
    3.7589    0.7325    0.2172 H   0  0  0  0  0  0  0  0  0  0  0  0
    2.8932    0.4809   -1.2964 H   0  0  0  0  0  0  0  0  0  0  0  0
   -1.6686   -2.1821    1.1906 H   0  0  0  0  0  0  0  0  0  0  0  0
  1  4  1  0  0  0  0
  1 29  1  0  0  0  0
  2  3  1  0  0  0  0
  2  4  1  0  0  0  0
  2  6  1  0  0  0  0
  2 12  1  0  0  0  0
  3  5  1  0  0  0  0
  3  7  1  0  0  0  0
  3 13  1  0  0  0  0
  4  8  1  0  0  0  0
  4 14  1  0  0  0  0
  5  9  1  0  0  0  0
  5 15  1  0  0  0  0
  5 16  1  0  0  0  0
  6 10  1  0  0  0  0
  6 17  1  0  0  0  0
  6 18  1  0  0  0  0
  7 11  1  0  0  0  0
  7 19  1  0  0  0  0
  7 20  1  0  0  0  0
  8  9  1  0  0  0  0
  8 21  1  0  0  0  0
  8 22  1  0  0  0  0
  9 23  1  0  0  0  0
  9 24  1  0  0  0  0
 10 11  1  0  0  0  0
 10 25  1  0  0  0  0
 10 26  1  0  0  0  0
 11 27  1  0  0  0  0
 11 28  1  0  0  0  0
M  END
> <PUBCHEM_COMPOUND_CID>
11890242

> <PUBCHEM_CONFORMER_RMSD>
0.4

> <PUBCHEM_CONFORMER_DIVERSEORDER>
1

> <PUBCHEM_MMFF94_PARTIAL_CHARGES>
3
1 -0.68
29 0.4
4 0.28

> <PUBCHEM_EFFECTIVE_ROTOR_COUNT>
1.6

> <PUBCHEM_PHARMACOPHORE_FEATURES>
4
1 1 acceptor
1 1 donor
6 2 3 4 5 8 9 rings
6 2 3 6 7 10 11 rings

> <PUBCHEM_HEAVY_ATOM_COUNT>
11

> <PUBCHEM_ATOM_DEF_STEREO_COUNT>
3

> <PUBCHEM_ATOM_UDEF_STEREO_COUNT>
0

> <PUBCHEM_BOND_DEF_STEREO_COUNT>
0

> <PUBCHEM_BOND_UDEF_STEREO_COUNT>
0

> <PUBCHEM_ISOTOPIC_ATOM_COUNT>
0

> <PUBCHEM_COMPONENT_COUNT>
1

> <PUBCHEM_CACTVS_TAUTO_COUNT>
1

> <PUBCHEM_CONFORMER_ID>
00B56E4200000001

> <PUBCHEM_MMFF94_ENERGY>
12.2

> <PUBCHEM_FEATURE_SELFOVERLAP>
20.314

> <PUBCHEM_SHAPE_FINGERPRINT>
12423570 1 15880083489294809853
12524768 44 18341616979570649519
12897270 3 18411699928208446396
13380535 76 18340481162579084598
14325111 11 18338234856044609444
15775835 57 18263371299811156428
16945 1 18411418384417404292
17844478 74 18114196228254826257
193761 8 18194401323571337557
19973954 147 18410575110622812772
20201158 50 18341046315908640606
20871998 184 18272936058946119327
21040471 1 18338797793223671292
21501502 16 18410572894372202310
2334 1 18123188171400473364
23552423 10 18261113040456120948
23559900 14 18271249306058446598
241688 4 15312377409153735001
2748010 2 18196087974202500780
5084963 1 17914607263742055753
528886 8 18412258462814161650
66348 1 18339641255991308772

> <PUBCHEM_SHAPE_MULTIPOLES>
220.51
3.74
2.15
0.66
0.78
0.28
0.01
-0.07
0.01
-0.55
-0.09
0.01
-0.02
0.08

> <PUBCHEM_SHAPE_SELFOVERLAP>
444.326

> <PUBCHEM_SHAPE_VOLUME>
127.2

> <PUBCHEM_COORDINATE_TYPE>
2
5
10

$$$$
