146413
  -OEChem-11012401283D

 20 19  0     0  0  0  0  0  0999 V2000
   -0.0981   -0.7614   -0.0001 O   0  0  0  0  0  0  0  0  0  0  0  0
    0.9852    0.2113    0.0001 O   0  0  0  0  0  0  0  0  0  0  0  0
    3.3270    0.2770    0.0001 O   0  0  0  0  0  0  0  0  0  0  0  0
   -1.2952    0.0174    0.0000 C   0  0  0  0  0  0  0  0  0  0  0  0
   -1.3078    0.8897   -1.2545 C   0  0  0  0  0  0  0  0  0  0  0  0
   -2.4749   -0.9523   -0.0080 C   0  0  0  0  0  0  0  0  0  0  0  0
   -1.3157    0.8781    1.2623 C   0  0  0  0  0  0  0  0  0  0  0  0
    2.1796   -0.5597    0.0000 C   0  0  0  0  0  0  0  0  0  0  0  0
   -0.5162    1.6471   -1.2469 H   0  0  0  0  0  0  0  0  0  0  0  0
   -1.1515    0.2816   -2.1529 H   0  0  0  0  0  0  0  0  0  0  0  0
   -2.2621    1.4175   -1.3583 H   0  0  0  0  0  0  0  0  0  0  0  0
   -2.4424   -1.6123    0.8665 H   0  0  0  0  0  0  0  0  0  0  0  0
   -2.4373   -1.6040   -0.8886 H   0  0  0  0  0  0  0  0  0  0  0  0
   -3.4340   -0.4244   -0.0083 H   0  0  0  0  0  0  0  0  0  0  0  0
   -0.5213    1.6324    1.2683 H   0  0  0  0  0  0  0  0  0  0  0  0
   -2.2692    1.4080    1.3633 H   0  0  0  0  0  0  0  0  0  0  0  0
   -1.1686    0.2610    2.1562 H   0  0  0  0  0  0  0  0  0  0  0  0
    2.2110   -1.2120   -0.8793 H   0  0  0  0  0  0  0  0  0  0  0  0
    2.2114   -1.1733    0.9057 H   0  0  0  0  0  0  0  0  0  0  0  0
    3.5131    0.5071   -0.9260 H   0  0  0  0  0  0  0  0  0  0  0  0
  1  2  1  0  0  0  0
  1  4  1  0  0  0  0
  2  8  1  0  0  0  0
  3  8  1  0  0  0  0
  3 20  1  0  0  0  0
  4  5  1  0  0  0  0
  4  6  1  0  0  0  0
  4  7  1  0  0  0  0
  5  9  1  0  0  0  0
  5 10  1  0  0  0  0
  5 11  1  0  0  0  0
  6 12  1  0  0  0  0
  6 13  1  0  0  0  0
  6 14  1  0  0  0  0
  7 15  1  0  0  0  0
  7 16  1  0  0  0  0
  7 17  1  0  0  0  0
  8 18  1  0  0  0  0
  8 19  1  0  0  0  0
M  END
> <PUBCHEM_COMPOUND_CID>
146413

> <PUBCHEM_CONFORMER_RMSD>
0.6

> <PUBCHEM_CONFORMER_DIVERSEORDER>
1
2
3

> <PUBCHEM_MMFF94_PARTIAL_CHARGES>
6
1 -0.28
2 -0.28
20 0.4
3 -0.68
4 0.28
8 0.56

> <PUBCHEM_EFFECTIVE_ROTOR_COUNT>
3

> <PUBCHEM_PHARMACOPHORE_FEATURES>
3
1 3 acceptor
1 3 donor
4 4 5 6 7 hydrophobe

> <PUBCHEM_HEAVY_ATOM_COUNT>
8

> <PUBCHEM_ATOM_DEF_STEREO_COUNT>
0

> <PUBCHEM_ATOM_UDEF_STEREO_COUNT>
0

> <PUBCHEM_BOND_DEF_STEREO_COUNT>
0

> <PUBCHEM_BOND_UDEF_STEREO_COUNT>
0

> <PUBCHEM_ISOTOPIC_ATOM_COUNT>
0

> <PUBCHEM_COMPONENT_COUNT>
1

> <PUBCHEM_CACTVS_TAUTO_COUNT>
1

> <PUBCHEM_CONFORMER_ID>
00023BED00000001

> <PUBCHEM_MMFF94_ENERGY>
11.1038

> <PUBCHEM_FEATURE_SELFOVERLAP>
15.223

> <PUBCHEM_SHAPE_FINGERPRINT>
12932764 1 18041565741493275402
14390081 3 17676481727210623460
24536 1 18059005060592232690
29004967 10 17489871556866125043
3248919 1 18059570240092623062
369184 2 18113334184978338914
5084963 1 18334857233791358690
5460574 1 9223234048456849698
5943 1 12040578568837420933

> <PUBCHEM_SHAPE_MULTIPOLES>
147.03
4
1.04
1.02
3.75
0.02
-0.01
0.41
0
-0.48
0
-0.57
-0.38
0

> <PUBCHEM_SHAPE_SELFOVERLAP>
262.705

> <PUBCHEM_SHAPE_VOLUME>
96.7

> <PUBCHEM_COORDINATE_TYPE>
2
5
10

$$$$
