57353416
  -OEChem-11012401133D

 25 26  0     1  0  0  0  0  0999 V2000
   -0.2047    0.5883   -1.6946 F   0  0  0  0  0  0  0  0  0  0  0  0
   -0.3232   -0.6434    1.6187 F   0  0  0  0  0  0  0  0  0  0  0  0
   -2.1550    1.9690   -1.0428 F   0  0  0  0  0  0  0  0  0  0  0  0
   -1.7260    1.9797    1.0872 F   0  0  0  0  0  0  0  0  0  0  0  0
   -1.6745   -1.3663   -1.5580 F   0  0  0  0  0  0  0  0  0  0  0  0
   -2.0368   -2.3686    0.3397 F   0  0  0  0  0  0  0  0  0  0  0  0
    0.9328    2.7108   -0.4184 F   0  0  0  0  0  0  0  0  0  0  0  0
    0.8620    1.6578    1.4847 F   0  0  0  0  0  0  0  0  0  0  0  0
    0.9871   -1.6508   -1.4903 F   0  0  0  0  0  0  0  0  0  0  0  0
    0.9507   -2.7165    0.4055 F   0  0  0  0  0  0  0  0  0  0  0  0
   -3.7191   -0.0146   -0.4563 F   0  0  0  0  0  0  0  0  0  0  0  0
   -2.8239   -0.1509    1.5175 F   0  0  0  0  0  0  0  0  0  0  0  0
    2.3378    0.7056   -1.5672 F   0  0  0  0  0  0  0  0  0  0  0  0
    3.2733    1.3877    0.2741 F   0  0  0  0  0  0  0  0  0  0  0  0
    3.3088   -1.3523   -0.1150 F   0  0  0  0  0  0  0  0  0  0  0  0
    2.2377   -0.6881    1.6582 F   0  0  0  0  0  0  0  0  0  0  0  0
   -0.2918    0.6982   -0.3293 C   0  0  2  0  0  0  0  0  0  0  0  0
   -0.2976   -0.7238    0.2553 C   0  0  2  0  0  0  0  0  0  0  0  0
   -1.6960    1.2128   -0.0245 C   0  0  0  0  0  0  0  0  0  0  0  0
   -1.6575   -1.2082   -0.2151 C   0  0  0  0  0  0  0  0  0  0  0  0
    0.9187    1.4796    0.1414 C   0  0  0  0  0  0  0  0  0  0  0  0
    0.9526   -1.4810   -0.1456 C   0  0  0  0  0  0  0  0  0  0  0  0
   -2.5447   -0.0424    0.1902 C   0  0  0  0  0  0  0  0  0  0  0  0
    2.1977    0.7264   -0.2154 C   0  0  0  0  0  0  0  0  0  0  0  0
    2.1917   -0.7091    0.3001 C   0  0  0  0  0  0  0  0  0  0  0  0
  1 17  1  0  0  0  0
  2 18  1  0  0  0  0
  3 19  1  0  0  0  0
  4 19  1  0  0  0  0
  5 20  1  0  0  0  0
  6 20  1  0  0  0  0
  7 21  1  0  0  0  0
  8 21  1  0  0  0  0
  9 22  1  0  0  0  0
 10 22  1  0  0  0  0
 11 23  1  0  0  0  0
 12 23  1  0  0  0  0
 13 24  1  0  0  0  0
 14 24  1  0  0  0  0
 15 25  1  0  0  0  0
 16 25  1  0  0  0  0
 17 18  1  0  0  0  0
 17 19  1  0  0  0  0
 17 21  1  0  0  0  0
 18 20  1  0  0  0  0
 18 22  1  0  0  0  0
 19 23  1  0  0  0  0
 20 23  1  0  0  0  0
 21 24  1  0  0  0  0
 22 25  1  0  0  0  0
 24 25  1  0  0  0  0
M  END
> <PUBCHEM_COMPOUND_CID>
57353416

> <PUBCHEM_CONFORMER_RMSD>
0.6

> <PUBCHEM_CONFORMER_DIVERSEORDER>
1

> <PUBCHEM_MMFF94_PARTIAL_CHARGES>
25
1 -0.34
10 -0.34
11 -0.34
12 -0.34
13 -0.34
14 -0.34
15 -0.34
16 -0.34
17 0.34
18 0.34
19 0.68
2 -0.34
20 0.68
21 0.68
22 0.68
23 0.68
24 0.68
25 0.68
3 -0.34
4 -0.34
5 -0.34
6 -0.34
7 -0.34
8 -0.34
9 -0.34

> <PUBCHEM_EFFECTIVE_ROTOR_COUNT>
1.4

> <PUBCHEM_PHARMACOPHORE_FEATURES>
2
5 17 18 19 20 23 rings
6 17 18 21 22 24 25 rings

> <PUBCHEM_HEAVY_ATOM_COUNT>
25

> <PUBCHEM_ATOM_DEF_STEREO_COUNT>
2

> <PUBCHEM_ATOM_UDEF_STEREO_COUNT>
0

> <PUBCHEM_BOND_DEF_STEREO_COUNT>
0

> <PUBCHEM_BOND_UDEF_STEREO_COUNT>
0

> <PUBCHEM_ISOTOPIC_ATOM_COUNT>
0

> <PUBCHEM_COMPONENT_COUNT>
1

> <PUBCHEM_CACTVS_TAUTO_COUNT>
1

> <PUBCHEM_CONFORMER_ID>
036B24C800000001

> <PUBCHEM_MMFF94_ENERGY>
62.5429

> <PUBCHEM_FEATURE_SELFOVERLAP>
10.215

> <PUBCHEM_SHAPE_FINGERPRINT>
10863032 1 18272092750680850458
10948715 1 18342457088275095600
10967382 1 18409728486479501671
11132069 177 18410007766986400080
12011746 2 18337951186465893135
12382932 28 18196365923137584168
12423570 1 18272089383410867467
12491281 212 18268727033776835689
13140716 1 18196374934089669705
13172582 1 18341338790343984675
13221675 6 18409453612999406763
14223421 5 18336267958633345459
144361 1 18334287669514591497
15775835 57 18341896350060812224
16945 1 18409455794916659157
19868273 325 18409728422244941852
20525323 117 18342170055431108955
21501502 16 18409729568848183567
2334 1 17908142431902772237
23419403 2 16106892684554377807
23559900 14 18271245994612482318
2748010 2 18123472670245170103
528886 8 18338794636285480843

> <PUBCHEM_SHAPE_MULTIPOLES>
398.11
4.17
2.39
1.32
0.25
0.01
0
0
0.13
-0.18
-0.03
0.02
-0.01
-0.07

> <PUBCHEM_SHAPE_SELFOVERLAP>
921.044

> <PUBCHEM_SHAPE_VOLUME>
202.5

> <PUBCHEM_COORDINATE_TYPE>
2
5
10

$$$$
