139969
  -OEChem-11012400403D

 25 25  0     0  0  0  0  0  0999 V2000
    1.6432    0.0206   -0.8078 O   0  0  0  0  0  0  0  0  0  0  0  0
   -4.3886   -1.2161    0.2836 O   0  0  0  0  0  0  0  0  0  0  0  0
    2.0289   -0.0245    1.4888 O   0  0  0  0  0  0  0  0  0  0  0  0
   -4.5646    1.0486    0.3653 O   0  0  0  0  0  0  0  0  0  0  0  0
    0.3055    0.0251   -0.5584 C   0  0  0  0  0  0  0  0  0  0  0  0
   -2.4377    0.0349   -0.0499 C   0  0  0  0  0  0  0  0  0  0  0  0
   -0.3718    1.2353   -0.4073 C   0  0  0  0  0  0  0  0  0  0  0  0
   -0.3891   -1.1802   -0.4553 C   0  0  0  0  0  0  0  0  0  0  0  0
   -1.7433    1.2401   -0.1530 C   0  0  0  0  0  0  0  0  0  0  0  0
   -1.7606   -1.1753   -0.2010 C   0  0  0  0  0  0  0  0  0  0  0  0
    3.9044   -0.0109    0.0119 C   0  0  0  0  0  0  0  0  0  0  0  0
    2.4478   -0.0071    0.3379 C   0  0  0  0  0  0  0  0  0  0  0  0
   -3.8677    0.0398    0.2149 C   0  0  0  0  0  0  0  0  0  0  0  0
    4.8418   -0.0386    1.1827 C   0  0  0  0  0  0  0  0  0  0  0  0
    4.3517    0.0083   -1.2524 C   0  0  0  0  0  0  0  0  0  0  0  0
    0.1632    2.1777   -0.4874 H   0  0  0  0  0  0  0  0  0  0  0  0
    0.1327   -2.1262   -0.5729 H   0  0  0  0  0  0  0  0  0  0  0  0
   -2.2522    2.1937   -0.0387 H   0  0  0  0  0  0  0  0  0  0  0  0
   -2.2619   -2.1364   -0.1286 H   0  0  0  0  0  0  0  0  0  0  0  0
    4.6744   -0.9375    1.7853 H   0  0  0  0  0  0  0  0  0  0  0  0
    4.6872    0.8404    1.8171 H   0  0  0  0  0  0  0  0  0  0  0  0
    5.8915   -0.0406    0.8699 H   0  0  0  0  0  0  0  0  0  0  0  0
    5.4165    0.0047   -1.4646 H   0  0  0  0  0  0  0  0  0  0  0  0
    3.6915    0.0281   -2.1120 H   0  0  0  0  0  0  0  0  0  0  0  0
   -5.3531   -1.2019    0.4619 H   0  0  0  0  0  0  0  0  0  0  0  0
  1  5  1  0  0  0  0
  1 12  1  0  0  0  0
  2 13  1  0  0  0  0
  2 25  1  0  0  0  0
  3 12  2  0  0  0  0
  4 13  2  0  0  0  0
  5  7  2  0  0  0  0
  5  8  1  0  0  0  0
  6  9  2  0  0  0  0
  6 10  1  0  0  0  0
  6 13  1  0  0  0  0
  7  9  1  0  0  0  0
  7 16  1  0  0  0  0
  8 10  2  0  0  0  0
  8 17  1  0  0  0  0
  9 18  1  0  0  0  0
 10 19  1  0  0  0  0
 11 12  1  0  0  0  0
 11 14  1  0  0  0  0
 11 15  2  0  0  0  0
 14 20  1  0  0  0  0
 14 21  1  0  0  0  0
 14 22  1  0  0  0  0
 15 23  1  0  0  0  0
 15 24  1  0  0  0  0
M  END
> <PUBCHEM_COMPOUND_CID>
139969

> <PUBCHEM_CONFORMER_RMSD>
0.6

> <PUBCHEM_CONFORMER_DIVERSEORDER>
1
15
22
20
17
18
7
3
14
12
16
19
10
9
6
13
2
21
5
8
4
11

> <PUBCHEM_MMFF94_PARTIAL_CHARGES>
22
1 -0.23
10 -0.15
11 -0.12
12 0.71
13 0.63
14 0.14
15 -0.3
16 0.15
17 0.15
18 0.15
19 0.15
2 -0.65
23 0.15
24 0.15
25 0.5
3 -0.57
4 -0.57
5 0.08
6 0.09
7 -0.15
8 -0.15
9 -0.15

> <PUBCHEM_EFFECTIVE_ROTOR_COUNT>
4

> <PUBCHEM_PHARMACOPHORE_FEATURES>
5
1 2 acceptor
1 3 acceptor
1 4 acceptor
3 2 4 13 anion
6 5 6 7 8 9 10 rings

> <PUBCHEM_HEAVY_ATOM_COUNT>
15

> <PUBCHEM_ATOM_DEF_STEREO_COUNT>
0

> <PUBCHEM_ATOM_UDEF_STEREO_COUNT>
0

> <PUBCHEM_BOND_DEF_STEREO_COUNT>
0

> <PUBCHEM_BOND_UDEF_STEREO_COUNT>
0

> <PUBCHEM_ISOTOPIC_ATOM_COUNT>
0

> <PUBCHEM_COMPONENT_COUNT>
1

> <PUBCHEM_CACTVS_TAUTO_COUNT>
1

> <PUBCHEM_CONFORMER_ID>
000222C100000001

> <PUBCHEM_MMFF94_ENERGY>
45.9097

> <PUBCHEM_FEATURE_SELFOVERLAP>
25.429

> <PUBCHEM_SHAPE_FINGERPRINT>
11132069 177 18273213105642489269
11401426 45 18413105052993373365
11471102 20 16056880226219156848
12119455 92 16845852373561561133
12236239 1 17821732736847253212
12251169 10 18413103982997961668
13214271 11 18272650143437123453
13581323 91 18408321081826570102
13675066 3 17989208161255647215
13760787 5 17167861975906448670
14943859 89 15769772459438573406
15219456 202 17845940627988763702
15375462 189 17603578634405794128
17804303 29 18341896320186010201
17834072 33 17458349683763381502
18186145 218 16056874719617454846
187816 3 9295287252969525565
19422 9 17749388122934850768
200 152 15791726395399600108
20279233 1 17489869349922783206
20510252 161 18272089340361175865
20645477 56 17632568375385164152
20645477 70 14562805530985426520
22485316 2 13623527973959666401
22854114 59 17561081410522704738
2297311 6 18342186544496432348
23402539 116 18273206500341510333
23532345 42 18413389860300320077
23559900 14 18271539597917350534
26918003 58 16443064993266361833
42 15 18261390027371420290
43471831 8 18262234417583657051
449060 50 17275386529432660140
474 4 13901034843930314098
5374978 207 18333446556500233816
69090 78 17274818064804742671

> <PUBCHEM_SHAPE_MULTIPOLES>
285.22
9.57
1.15
1.03
2.08
0
-0.1
0.1
-1.68
-1.07
0.08
1.19
0
-0.04

> <PUBCHEM_SHAPE_SELFOVERLAP>
596.905

> <PUBCHEM_SHAPE_VOLUME>
159.4

> <PUBCHEM_COORDINATE_TYPE>
2
5
10

$$$$
