129684352
  -OEChem-11012400533D

 49 52  0     0  0  0  0  0  0999 V2000
   -1.9215   -0.2043   -2.7164 O   0  0  0  0  0  0  0  0  0  0  0  0
    0.0792   -0.0750   -1.1132 N   0  0  0  0  0  0  0  0  0  0  0  0
   -1.0437   -0.0437   -0.5707 N   0  0  0  0  0  0  0  0  0  0  0  0
    1.1560    0.0048   -0.1277 C   0  0  0  0  0  0  0  0  0  0  0  0
    0.6149   -0.6515    1.1744 C   0  0  0  0  0  0  0  0  0  0  0  0
    2.3678   -0.7828   -0.7005 C   0  0  0  0  0  0  0  0  0  0  0  0
    1.4876    1.5083    0.0872 C   0  0  0  0  0  0  0  0  0  0  0  0
    0.6005    0.0729    2.3663 C   0  0  0  0  0  0  0  0  0  0  0  0
    2.6055   -0.7935   -2.0748 C   0  0  0  0  0  0  0  0  0  0  0  0
    0.5092    2.4768   -0.1363 C   0  0  0  0  0  0  0  0  0  0  0  0
    0.1438   -1.9641    1.1503 C   0  0  0  0  0  0  0  0  0  0  0  0
    3.2172   -1.4788    0.1597 C   0  0  0  0  0  0  0  0  0  0  0  0
    2.7633    1.8888    0.5037 C   0  0  0  0  0  0  0  0  0  0  0  0
    0.1153   -0.5154    3.5341 C   0  0  0  0  0  0  0  0  0  0  0  0
    3.6927   -1.5000   -2.5890 C   0  0  0  0  0  0  0  0  0  0  0  0
    0.8064    3.8259    0.0564 C   0  0  0  0  0  0  0  0  0  0  0  0
   -0.3416   -2.5526    2.3182 C   0  0  0  0  0  0  0  0  0  0  0  0
    4.3044   -2.1853   -0.3545 C   0  0  0  0  0  0  0  0  0  0  0  0
    3.0606    3.2379    0.6966 C   0  0  0  0  0  0  0  0  0  0  0  0
   -0.3559   -1.8282    3.5101 C   0  0  0  0  0  0  0  0  0  0  0  0
    4.5422   -2.1958   -1.7289 C   0  0  0  0  0  0  0  0  0  0  0  0
    2.0821    4.2065    0.4729 C   0  0  0  0  0  0  0  0  0  0  0  0
   -2.0958   -0.1168   -1.4848 C   0  0  0  0  0  0  0  0  0  0  0  0
   -3.4410   -0.0863   -0.9336 C   0  0  0  0  0  0  0  0  0  0  0  0
   -3.6283    0.0116    0.4451 C   0  0  0  0  0  0  0  0  0  0  0  0
   -4.5444   -0.1537   -1.7842 C   0  0  0  0  0  0  0  0  0  0  0  0
   -4.9190    0.0423    0.9734 C   0  0  0  0  0  0  0  0  0  0  0  0
   -5.8351   -0.1230   -1.2562 C   0  0  0  0  0  0  0  0  0  0  0  0
   -6.0223   -0.0250    0.1226 C   0  0  0  0  0  0  0  0  0  0  0  0
    0.9524    1.0936    2.4553 H   0  0  0  0  0  0  0  0  0  0  0  0
    1.9707   -0.2478   -2.7672 H   0  0  0  0  0  0  0  0  0  0  0  0
   -0.5018    2.2545   -0.4519 H   0  0  0  0  0  0  0  0  0  0  0  0
    0.1490   -2.5489    0.2340 H   0  0  0  0  0  0  0  0  0  0  0  0
    3.0831   -1.4737    1.2371 H   0  0  0  0  0  0  0  0  0  0  0  0
    3.5473    1.1678    0.7072 H   0  0  0  0  0  0  0  0  0  0  0  0
    0.1039    0.0477    4.4628 H   0  0  0  0  0  0  0  0  0  0  0  0
    3.8805   -1.5051   -3.6588 H   0  0  0  0  0  0  0  0  0  0  0  0
    0.0446    4.5809   -0.1153 H   0  0  0  0  0  0  0  0  0  0  0  0
   -0.7079   -3.5748    2.2996 H   0  0  0  0  0  0  0  0  0  0  0  0
    4.9698   -2.7220    0.3154 H   0  0  0  0  0  0  0  0  0  0  0  0
    4.0524    3.5343    1.0253 H   0  0  0  0  0  0  0  0  0  0  0  0
   -0.7338   -2.2862    4.4195 H   0  0  0  0  0  0  0  0  0  0  0  0
    5.3901   -2.7439   -2.1291 H   0  0  0  0  0  0  0  0  0  0  0  0
    2.3131    5.2568    0.6246 H   0  0  0  0  0  0  0  0  0  0  0  0
   -2.7959    0.0675    1.1407 H   0  0  0  0  0  0  0  0  0  0  0  0
   -4.4259   -0.2302   -2.8618 H   0  0  0  0  0  0  0  0  0  0  0  0
   -5.0652    0.1188    2.0469 H   0  0  0  0  0  0  0  0  0  0  0  0
   -6.6944   -0.1753   -1.9183 H   0  0  0  0  0  0  0  0  0  0  0  0
   -7.0273   -0.0011    0.5337 H   0  0  0  0  0  0  0  0  0  0  0  0
  1 23  2  0  0  0  0
  2  3  2  0  0  0  0
  2  4  1  0  0  0  0
  3 23  1  0  0  0  0
  4  5  1  0  0  0  0
  4  6  1  0  0  0  0
  4  7  1  0  0  0  0
  5  8  2  0  0  0  0
  5 11  1  0  0  0  0
  6  9  2  0  0  0  0
  6 12  1  0  0  0  0
  7 10  2  0  0  0  0
  7 13  1  0  0  0  0
  8 14  1  0  0  0  0
  8 30  1  0  0  0  0
  9 15  1  0  0  0  0
  9 31  1  0  0  0  0
 10 16  1  0  0  0  0
 10 32  1  0  0  0  0
 11 17  2  0  0  0  0
 11 33  1  0  0  0  0
 12 18  2  0  0  0  0
 12 34  1  0  0  0  0
 13 19  2  0  0  0  0
 13 35  1  0  0  0  0
 14 20  2  0  0  0  0
 14 36  1  0  0  0  0
 15 21  2  0  0  0  0
 15 37  1  0  0  0  0
 16 22  2  0  0  0  0
 16 38  1  0  0  0  0
 17 20  1  0  0  0  0
 17 39  1  0  0  0  0
 18 21  1  0  0  0  0
 18 40  1  0  0  0  0
 19 22  1  0  0  0  0
 19 41  1  0  0  0  0
 20 42  1  0  0  0  0
 21 43  1  0  0  0  0
 22 44  1  0  0  0  0
 23 24  1  0  0  0  0
 24 25  2  0  0  0  0
 24 26  1  0  0  0  0
 25 27  1  0  0  0  0
 25 45  1  0  0  0  0
 26 28  2  0  0  0  0
 26 46  1  0  0  0  0
 27 29  2  0  0  0  0
 27 47  1  0  0  0  0
 28 29  1  0  0  0  0
 28 48  1  0  0  0  0
 29 49  1  0  0  0  0
M  END
> <PUBCHEM_COMPOUND_CID>
129684352

> <PUBCHEM_CONFORMER_RMSD>
0.8

> <PUBCHEM_CONFORMER_DIVERSEORDER>
1
11
4
3
9
2
10
8
5
12
6
7
13

> <PUBCHEM_MMFF94_PARTIAL_CHARGES>
49
1 -0.57
10 -0.15
11 -0.15
12 -0.15
13 -0.15
14 -0.15
15 -0.15
16 -0.15
17 -0.15
18 -0.15
19 -0.15
2 -0.25
20 -0.15
21 -0.15
22 -0.15
23 0.69
24 0.09
25 -0.15
26 -0.15
27 -0.15
28 -0.15
29 -0.15
3 -0.21
30 0.15
31 0.15
32 0.15
33 0.15
34 0.15
35 0.15
36 0.15
37 0.15
38 0.15
39 0.15
4 0.68
40 0.15
41 0.15
42 0.15
43 0.15
44 0.15
45 0.15
46 0.15
47 0.15
48 0.15
49 0.15
5 -0.14
6 -0.14
7 -0.14
8 -0.15
9 -0.15

> <PUBCHEM_EFFECTIVE_ROTOR_COUNT>
6

> <PUBCHEM_PHARMACOPHORE_FEATURES>
6
1 1 acceptor
1 3 donor
6 24 25 26 27 28 29 rings
6 5 8 11 14 17 20 rings
6 6 9 12 15 18 21 rings
6 7 10 13 16 19 22 rings

> <PUBCHEM_HEAVY_ATOM_COUNT>
29

> <PUBCHEM_ATOM_DEF_STEREO_COUNT>
0

> <PUBCHEM_ATOM_UDEF_STEREO_COUNT>
0

> <PUBCHEM_BOND_DEF_STEREO_COUNT>
0

> <PUBCHEM_BOND_UDEF_STEREO_COUNT>
0

> <PUBCHEM_ISOTOPIC_ATOM_COUNT>
0

> <PUBCHEM_COMPONENT_COUNT>
1

> <PUBCHEM_CACTVS_TAUTO_COUNT>
1

> <PUBCHEM_CONFORMER_ID>
07BAD38000000001

> <PUBCHEM_MMFF94_ENERGY>
106.4046

> <PUBCHEM_FEATURE_SELFOVERLAP>
30.448

> <PUBCHEM_SHAPE_FINGERPRINT>
10366900 7 17676482814380596773
10906281 52 18337113483745817248
11421498 54 17751645342860451333
11578080 2 17754772577283846548
12107698 1 18271534100601992561
12166972 35 17346884425008058471
12597179 24 18117557542817564168
12788726 201 18120107091376350534
13004483 165 15553599578773365278
13009979 54 17417822712008797657
13149001 5 18115603645966681138
133893 2 17843149093047503260
13590594 115 18270690752965158689
13911987 19 18193305012422315270
14068700 675 16630255701645321238
14347329 18 16371302094525724275
14955137 171 17752736113865965986
15775530 1 17755037610957144682
17980427 23 17053917310025075768
1813 80 18059860498156063822
18336668 15 17203610337373037559
19319366 153 17320158419878684521
20602899 9 17024331651187433458
20832881 197 18262802860889270943
21120745 212 17179374717585529194
22393880 68 17968086539435543919
23352939 185 17846225432140187076
23419403 2 17974041562576732624
23559900 14 17846202372745709175
244849 19 18190760801669009842
266924 78 17698475400013809566
3380486 77 17774459203977443222
376196 1 17832964406633398425
394222 165 17631170982090113316
427121 178 17604416518021820945
469060 322 17843422690975221398
474 4 18124868208247003973
497634 4 16342308944176089254
57527452 28 16589128460940088504
6669772 16 18114169883115395522
9658208 31 17676494994533718107
9981440 41 17622713641269968720

> <PUBCHEM_SHAPE_MULTIPOLES>
580.98
9.48
3.6
3.07
14.04
4.56
-1.73
-2.55
5.85
-5.35
-1.22
-0.11
-2.29
1.95

> <PUBCHEM_SHAPE_SELFOVERLAP>
1285.292

> <PUBCHEM_SHAPE_VOLUME>
307.7

> <PUBCHEM_COORDINATE_TYPE>
2
5
10

$$$$
