6432777
  -OEChem-11012400413D

 24 24  0     1  0  0  0  0  0999 V2000
    0.3384   -0.5634   -0.3021 C   0  0  2  0  0  0  0  0  0  0  0  0
   -0.2280    0.8633   -0.3791 C   0  0  1  0  0  0  0  0  0  0  0  0
   -0.7430   -1.3542    0.4392 C   0  0  0  0  0  0  0  0  0  0  0  0
   -1.7024    0.5937   -0.6906 C   0  0  0  0  0  0  0  0  0  0  0  0
   -2.0637   -0.6573    0.1082 C   0  0  0  0  0  0  0  0  0  0  0  0
    1.7132   -0.6968    0.3335 C   0  0  0  0  0  0  0  0  0  0  0  0
   -0.0686    1.6894    0.8976 C   0  0  0  0  0  0  0  0  0  0  0  0
    2.7540    0.1253   -0.4067 C   0  0  0  0  0  0  0  0  0  0  0  0
    0.3937   -0.9583   -1.3274 H   0  0  0  0  0  0  0  0  0  0  0  0
    0.2283    1.4189   -1.2067 H   0  0  0  0  0  0  0  0  0  0  0  0
   -0.5794   -1.3376    1.5233 H   0  0  0  0  0  0  0  0  0  0  0  0
   -0.7538   -2.4043    0.1287 H   0  0  0  0  0  0  0  0  0  0  0  0
   -1.8171    0.3818   -1.7612 H   0  0  0  0  0  0  0  0  0  0  0  0
   -2.3577    1.4375   -0.4526 H   0  0  0  0  0  0  0  0  0  0  0  0
   -2.5862   -0.3880    1.0330 H   0  0  0  0  0  0  0  0  0  0  0  0
   -2.7307   -1.3089   -0.4658 H   0  0  0  0  0  0  0  0  0  0  0  0
    2.0166   -1.7508    0.3177 H   0  0  0  0  0  0  0  0  0  0  0  0
    1.6942   -0.3973    1.3876 H   0  0  0  0  0  0  0  0  0  0  0  0
    0.9794    1.9193    1.1065 H   0  0  0  0  0  0  0  0  0  0  0  0
   -0.5936    2.6458    0.7972 H   0  0  0  0  0  0  0  0  0  0  0  0
   -0.4808    1.1776    1.7732 H   0  0  0  0  0  0  0  0  0  0  0  0
    2.8047   -0.1657   -1.4611 H   0  0  0  0  0  0  0  0  0  0  0  0
    2.5548    1.1987   -0.3593 H   0  0  0  0  0  0  0  0  0  0  0  0
    3.7427   -0.0440    0.0327 H   0  0  0  0  0  0  0  0  0  0  0  0
  1  2  1  0  0  0  0
  1  3  1  0  0  0  0
  1  6  1  0  0  0  0
  1  9  1  0  0  0  0
  2  4  1  0  0  0  0
  2  7  1  0  0  0  0
  2 10  1  0  0  0  0
  3  5  1  0  0  0  0
  3 11  1  0  0  0  0
  3 12  1  0  0  0  0
  4  5  1  0  0  0  0
  4 13  1  0  0  0  0
  4 14  1  0  0  0  0
  5 15  1  0  0  0  0
  5 16  1  0  0  0  0
  6  8  1  0  0  0  0
  6 17  1  0  0  0  0
  6 18  1  0  0  0  0
  7 19  1  0  0  0  0
  7 20  1  0  0  0  0
  7 21  1  0  0  0  0
  8 22  1  0  0  0  0
  8 23  1  0  0  0  0
  8 24  1  0  0  0  0
M  END
> <PUBCHEM_COMPOUND_CID>
6432777

> <PUBCHEM_CONFORMER_RMSD>
0.4

> <PUBCHEM_CONFORMER_DIVERSEORDER>
2
4
1
5
3

> <PUBCHEM_MMFF94_PARTIAL_CHARGES>
0

> <PUBCHEM_EFFECTIVE_ROTOR_COUNT>
2

> <PUBCHEM_PHARMACOPHORE_FEATURES>
2
1 8 hydrophobe
5 1 2 3 4 5 rings

> <PUBCHEM_HEAVY_ATOM_COUNT>
8

> <PUBCHEM_ATOM_DEF_STEREO_COUNT>
2

> <PUBCHEM_ATOM_UDEF_STEREO_COUNT>
0

> <PUBCHEM_BOND_DEF_STEREO_COUNT>
0

> <PUBCHEM_BOND_UDEF_STEREO_COUNT>
0

> <PUBCHEM_ISOTOPIC_ATOM_COUNT>
0

> <PUBCHEM_COMPONENT_COUNT>
1

> <PUBCHEM_CACTVS_TAUTO_COUNT>
1

> <PUBCHEM_CONFORMER_ID>
0062280900000002

> <PUBCHEM_MMFF94_ENERGY>
12.1723

> <PUBCHEM_FEATURE_SELFOVERLAP>
10.148

> <PUBCHEM_SHAPE_FINGERPRINT>
10857977 72 18339632455745789786
12423570 1 8790306902565331997
13024252 1 13118290273557594406
137420 1 13250845432649817311
14128692 85 18117289257189521470
16714656 1 18408042918016625398
16945 1 18187645837977533511
20653085 51 17168716210742221588
21040471 1 18118676630373297903
23552423 10 18042124258814003170
24536 1 18125716790720756998
29004967 10 17989205957969248190
369184 2 14201399399881895566
5084963 1 18118116979271387878

> <PUBCHEM_SHAPE_MULTIPOLES>
164.64
2.92
1.5
0.87
1.48
0.3
0.05
-0.37
-0.43
-0.28
0.37
-0.05
0.17
0.1

> <PUBCHEM_SHAPE_SELFOVERLAP>
315.065

> <PUBCHEM_SHAPE_VOLUME>
100.2

> <PUBCHEM_COORDINATE_TYPE>
2
5
10

$$$$
