1474
  -OEChem-11012401233D

 20 21  0     0  0  0  0  0  0999 V2000
   -1.3152   -1.1589    0.3036 N   0  0  0  0  0  0  0  0  0  0  0  0
    1.3151    1.1590    0.3035 N   0  0  0  0  0  0  0  0  0  0  0  0
   -0.7217    0.0137   -0.0136 C   0  0  0  0  0  0  0  0  0  0  0  0
    0.7217   -0.0137   -0.0136 C   0  0  0  0  0  0  0  0  0  0  0  0
   -1.4129    1.1746   -0.3209 C   0  0  0  0  0  0  0  0  0  0  0  0
    1.4129   -1.1746   -0.3209 C   0  0  0  0  0  0  0  0  0  0  0  0
   -2.8024    1.1292   -0.3015 C   0  0  0  0  0  0  0  0  0  0  0  0
    2.8025   -1.1292   -0.3014 C   0  0  0  0  0  0  0  0  0  0  0  0
   -3.4493   -0.0589    0.0202 C   0  0  0  0  0  0  0  0  0  0  0  0
    3.4493    0.0590    0.0202 C   0  0  0  0  0  0  0  0  0  0  0  0
   -2.6671   -1.1647    0.3121 C   0  0  0  0  0  0  0  0  0  0  0  0
    2.6670    1.1647    0.3122 C   0  0  0  0  0  0  0  0  0  0  0  0
   -0.9153    2.1030   -0.5821 H   0  0  0  0  0  0  0  0  0  0  0  0
    0.9154   -2.1030   -0.5821 H   0  0  0  0  0  0  0  0  0  0  0  0
   -3.3805    2.0172   -0.5386 H   0  0  0  0  0  0  0  0  0  0  0  0
    3.3806   -2.0173   -0.5386 H   0  0  0  0  0  0  0  0  0  0  0  0
   -4.5314   -0.1177    0.0409 H   0  0  0  0  0  0  0  0  0  0  0  0
    4.5315    0.1178    0.0409 H   0  0  0  0  0  0  0  0  0  0  0  0
   -3.1228   -2.1153    0.5688 H   0  0  0  0  0  0  0  0  0  0  0  0
    3.1228    2.1153    0.5688 H   0  0  0  0  0  0  0  0  0  0  0  0
  1  3  1  0  0  0  0
  1 11  2  0  0  0  0
  2  4  1  0  0  0  0
  2 12  2  0  0  0  0
  3  4  1  0  0  0  0
  3  5  2  0  0  0  0
  4  6  2  0  0  0  0
  5  7  1  0  0  0  0
  5 13  1  0  0  0  0
  6  8  1  0  0  0  0
  6 14  1  0  0  0  0
  7  9  2  0  0  0  0
  7 15  1  0  0  0  0
  8 10  2  0  0  0  0
  8 16  1  0  0  0  0
  9 11  1  0  0  0  0
  9 17  1  0  0  0  0
 10 12  1  0  0  0  0
 10 18  1  0  0  0  0
 11 19  1  0  0  0  0
 12 20  1  0  0  0  0
M  END
> <PUBCHEM_COMPOUND_CID>
1474

> <PUBCHEM_CONFORMER_RMSD>
0.4

> <PUBCHEM_CONFORMER_DIVERSEORDER>
1
3
2
4

> <PUBCHEM_MMFF94_PARTIAL_CHARGES>
20
1 -0.62
10 -0.15
11 0.16
12 0.16
13 0.15
14 0.15
15 0.15
16 0.15
17 0.15
18 0.15
19 0.15
2 -0.62
20 0.15
3 0.31
4 0.31
5 -0.15
6 -0.15
7 -0.15
8 -0.15
9 -0.15

> <PUBCHEM_EFFECTIVE_ROTOR_COUNT>
1

> <PUBCHEM_PHARMACOPHORE_FEATURES>
4
1 1 acceptor
1 2 acceptor
6 1 3 5 7 9 11 rings
6 2 4 6 8 10 12 rings

> <PUBCHEM_HEAVY_ATOM_COUNT>
12

> <PUBCHEM_ATOM_DEF_STEREO_COUNT>
0

> <PUBCHEM_ATOM_UDEF_STEREO_COUNT>
0

> <PUBCHEM_BOND_DEF_STEREO_COUNT>
0

> <PUBCHEM_BOND_UDEF_STEREO_COUNT>
0

> <PUBCHEM_ISOTOPIC_ATOM_COUNT>
0

> <PUBCHEM_COMPONENT_COUNT>
1

> <PUBCHEM_CACTVS_TAUTO_COUNT>
1

> <PUBCHEM_CONFORMER_ID>
000005C200000001

> <PUBCHEM_MMFF94_ENERGY>
35.0599

> <PUBCHEM_FEATURE_SELFOVERLAP>
20.297

> <PUBCHEM_SHAPE_FINGERPRINT>
10608611 8 18410569587110689012
11471102 20 18342735200086477332
12032990 46 18410580582231903735
12932764 1 17603862260955358969
13296908 3 18412266125020207742
13380535 76 18410852161598975478
14144814 61 18410573959381647555
14325111 11 18410855460138860725
15219456 202 18412262835017009320
15775835 57 17895757288019448057
16945 1 18338517443380510758
17844478 74 18334304171016280641
18175812 5 18410856581114632847
18186145 218 18339644421424520949
19973954 147 18410857659157042892
200 152 17846769716023081231
20201158 50 18413389808671152094
20279233 1 18410572885645215063
20528008 55 18410569600359074655
20645477 70 18201435818371637119
20871998 184 18270406113061599199
21501502 16 18410575088958046229
23402539 116 18411688894906922687
23402655 69 18271799082524420165
23552423 10 18114465642620419743
23559900 14 18266736892746929006
2748010 2 18410855468718096567
369184 2 18341894091219120971
57812782 119 18410570686621855573
6333449 129 18408882936663596615
69090 78 18342170073128144375
8809292 202 18334300867938815618

> <PUBCHEM_SHAPE_MULTIPOLES>
236.99
5.93
1.48
0.67
0
0
0.01
0
-0.02
0
0
0
0
0.49

> <PUBCHEM_SHAPE_SELFOVERLAP>
515.874

> <PUBCHEM_SHAPE_VOLUME>
127

> <PUBCHEM_COORDINATE_TYPE>
2
5
10

$$$$
