137154
  -OEChem-11012400463D

 30 31  0     1  0  0  0  0  0999 V2000
    1.9733    0.6614   -0.5069 C   0  0  1  0  0  0  0  0  0  0  0  0
    0.8272   -0.2672   -0.2475 C   0  0  0  0  0  0  0  0  0  0  0  0
    3.0461    0.6713    0.6130 C   0  0  0  0  0  0  0  0  0  0  0  0
   -0.4958    0.1931   -0.1465 C   0  0  0  0  0  0  0  0  0  0  0  0
    2.6607    0.3439   -1.8492 C   0  0  0  0  0  0  0  0  0  0  0  0
   -1.5346   -0.7358    0.0999 C   0  0  0  0  0  0  0  0  0  0  0  0
    1.1219   -1.6238   -0.1076 C   0  0  0  0  0  0  0  0  0  0  0  0
    2.4726    1.0383    1.9763 C   0  0  0  0  0  0  0  0  0  0  0  0
   -0.8107    1.5548   -0.2845 C   0  0  0  0  0  0  0  0  0  0  0  0
   -1.2200   -2.0977    0.2376 C   0  0  0  0  0  0  0  0  0  0  0  0
    0.1001   -2.5374    0.1343 C   0  0  0  0  0  0  0  0  0  0  0  0
   -2.8577   -0.2759    0.2008 C   0  0  0  0  0  0  0  0  0  0  0  0
   -2.1307    1.9943   -0.1809 C   0  0  0  0  0  0  0  0  0  0  0  0
   -3.1524    1.0807    0.0613 C   0  0  0  0  0  0  0  0  0  0  0  0
    1.6670    1.7019   -0.6017 H   0  0  0  0  0  0  0  0  0  0  0  0
    3.8258    1.3997    0.3564 H   0  0  0  0  0  0  0  0  0  0  0  0
    3.5455   -0.3021    0.6883 H   0  0  0  0  0  0  0  0  0  0  0  0
    1.9354    0.3570   -2.6707 H   0  0  0  0  0  0  0  0  0  0  0  0
    3.4304    1.0910   -2.0734 H   0  0  0  0  0  0  0  0  0  0  0  0
    3.1471   -0.6374   -1.8457 H   0  0  0  0  0  0  0  0  0  0  0  0
    2.1397   -1.9962   -0.1816 H   0  0  0  0  0  0  0  0  0  0  0  0
    3.2797    1.1185    2.7116 H   0  0  0  0  0  0  0  0  0  0  0  0
    1.9551    2.0021    1.9375 H   0  0  0  0  0  0  0  0  0  0  0  0
    1.7704    0.2817    2.3387 H   0  0  0  0  0  0  0  0  0  0  0  0
   -0.0841    2.3346   -0.4733 H   0  0  0  0  0  0  0  0  0  0  0  0
   -2.0025   -2.8294    0.4272 H   0  0  0  0  0  0  0  0  0  0  0  0
    0.3297   -3.5933    0.2433 H   0  0  0  0  0  0  0  0  0  0  0  0
   -3.6721   -0.9722    0.3896 H   0  0  0  0  0  0  0  0  0  0  0  0
   -2.3622    3.0501   -0.2892 H   0  0  0  0  0  0  0  0  0  0  0  0
   -4.1799    1.4235    0.1418 H   0  0  0  0  0  0  0  0  0  0  0  0
  1  2  1  0  0  0  0
  1  3  1  0  0  0  0
  1  5  1  0  0  0  0
  1 15  1  0  0  0  0
  2  4  1  0  0  0  0
  2  7  2  0  0  0  0
  3  8  1  0  0  0  0
  3 16  1  0  0  0  0
  3 17  1  0  0  0  0
  4  6  1  0  0  0  0
  4  9  2  0  0  0  0
  5 18  1  0  0  0  0
  5 19  1  0  0  0  0
  5 20  1  0  0  0  0
  6 10  1  0  0  0  0
  6 12  2  0  0  0  0
  7 11  1  0  0  0  0
  7 21  1  0  0  0  0
  8 22  1  0  0  0  0
  8 23  1  0  0  0  0
  8 24  1  0  0  0  0
  9 13  1  0  0  0  0
  9 25  1  0  0  0  0
 10 11  2  0  0  0  0
 10 26  1  0  0  0  0
 11 27  1  0  0  0  0
 12 14  1  0  0  0  0
 12 28  1  0  0  0  0
 13 14  2  0  0  0  0
 13 29  1  0  0  0  0
 14 30  1  0  0  0  0
M  END
> <PUBCHEM_COMPOUND_CID>
137154

> <PUBCHEM_CONFORMER_RMSD>
0.6

> <PUBCHEM_CONFORMER_DIVERSEORDER>
2
5
3
1
4

> <PUBCHEM_MMFF94_PARTIAL_CHARGES>
16
1 0.14
10 -0.15
11 -0.15
12 -0.15
13 -0.15
14 -0.15
2 -0.14
21 0.15
25 0.15
26 0.15
27 0.15
28 0.15
29 0.15
30 0.15
7 -0.15
9 -0.15

> <PUBCHEM_EFFECTIVE_ROTOR_COUNT>
2

> <PUBCHEM_PHARMACOPHORE_FEATURES>
4
1 5 hydrophobe
1 8 hydrophobe
6 2 4 6 7 10 11 rings
6 4 6 9 12 13 14 rings

> <PUBCHEM_HEAVY_ATOM_COUNT>
14

> <PUBCHEM_ATOM_DEF_STEREO_COUNT>
0

> <PUBCHEM_ATOM_UDEF_STEREO_COUNT>
1

> <PUBCHEM_BOND_DEF_STEREO_COUNT>
0

> <PUBCHEM_BOND_UDEF_STEREO_COUNT>
0

> <PUBCHEM_ISOTOPIC_ATOM_COUNT>
0

> <PUBCHEM_COMPONENT_COUNT>
1

> <PUBCHEM_CACTVS_TAUTO_COUNT>
1

> <PUBCHEM_CONFORMER_ID>
000217C200000002

> <PUBCHEM_MMFF94_ENERGY>
41.935

> <PUBCHEM_FEATURE_SELFOVERLAP>
20.324

> <PUBCHEM_SHAPE_FINGERPRINT>
11578080 2 13540780761043143754
13140716 1 18048885392268001331
13380535 76 18408601431411397559
13538477 17 17823417274207014722
13898156 1 17678170697445899198
14614273 12 18260820476100790133
14817 1 12134889973020336242
15375462 175 18336281118460684508
15775835 57 18342738490004993848
15852999 172 17826761825375253117
16945 1 18336833090604284815
17804303 29 18338229367730409690
18186145 218 18059863826624011345
20510252 161 18268999858662915105
20511035 2 18264487291154763078
20645476 183 17386862762051217758
21501502 16 18192718839047492839
21524375 3 18340767057198669887
21947302 44 17632291289801778784
22802520 49 18199494162652249358
230 275 18335701589817384708
2334 1 18336551508379933887
23388829 49 16327364819104697815
23402539 116 18055052505543557799
23419403 2 15959429135954088352
23493267 7 17531831098109182609
23526113 38 17773901756335654422
23552423 10 18045228128815508407
23559900 14 18270978882000745524
23598294 1 18044104676723546042
25610 171 18194119857073655626
27216 239 16910278459560884784
2748010 2 18263933146295391567
305870 269 18263915558066704322
3071541 158 17613444345893753790
3071541 236 18188198926923731971
53812653 166 18342738490057871384
7364860 26 18054786174373521727
77492 1 17386284415009123348
81228 2 18052543458574053035

> <PUBCHEM_SHAPE_MULTIPOLES>
288.11
4.6
2.32
1.21
0.1
1.11
-0.11
-2.08
-0.3
-0.83
-0.16
1.44
-0.4
0.43

> <PUBCHEM_SHAPE_SELFOVERLAP>
614.942

> <PUBCHEM_SHAPE_VOLUME>
153.9

> <PUBCHEM_COORDINATE_TYPE>
2
5
10

$$$$
