10867700
  -OEChem-11012400593D

 34 33  0     0  0  0  0  0  0999 V2000
   -1.2233   -2.1787   -0.9624 S   0  0  0  0  0  0  0  0  0  0  0  0
    1.6672   -2.0989    0.1677 O   0  0  0  0  0  0  0  0  0  0  0  0
   -2.0733    0.2677   -0.0440 N   0  0  0  0  0  0  0  0  0  0  0  0
    0.1971   -0.2709    0.3856 N   0  0  0  0  0  0  0  0  0  0  0  0
    3.2380    0.8137    0.1390 C   0  0  0  0  0  0  0  0  0  0  0  0
    2.4753   -0.0450    1.1591 C   0  0  0  0  0  0  0  0  0  0  0  0
    2.2816    1.6784   -0.6863 C   0  0  0  0  0  0  0  0  0  0  0  0
    4.0577   -0.0818   -0.7923 C   0  0  0  0  0  0  0  0  0  0  0  0
    1.4244   -0.9528    0.5323 C   0  0  0  0  0  0  0  0  0  0  0  0
   -1.8852    1.5520    0.6338 C   0  0  0  0  0  0  0  0  0  0  0  0
   -3.4349    0.0372   -0.5306 C   0  0  0  0  0  0  0  0  0  0  0  0
   -1.0323   -0.6880   -0.1896 C   0  0  0  0  0  0  0  0  0  0  0  0
   -1.4044    2.6208   -0.3258 C   0  0  0  0  0  0  0  0  0  0  0  0
   -4.2877   -0.6536    0.5135 C   0  0  0  0  0  0  0  0  0  0  0  0
    3.9251    1.4699    0.6868 H   0  0  0  0  0  0  0  0  0  0  0  0
    3.1735   -0.6823    1.7159 H   0  0  0  0  0  0  0  0  0  0  0  0
    1.9982    0.6022    1.9057 H   0  0  0  0  0  0  0  0  0  0  0  0
    1.6617    2.2986   -0.0323 H   0  0  0  0  0  0  0  0  0  0  0  0
    2.8552    2.3599   -1.3250 H   0  0  0  0  0  0  0  0  0  0  0  0
    1.6420    1.0887   -1.3494 H   0  0  0  0  0  0  0  0  0  0  0  0
    4.7271   -0.7325   -0.2200 H   0  0  0  0  0  0  0  0  0  0  0  0
    3.4232   -0.7127   -1.4231 H   0  0  0  0  0  0  0  0  0  0  0  0
    4.6785    0.5287   -1.4573 H   0  0  0  0  0  0  0  0  0  0  0  0
   -2.8444    1.8650    1.0649 H   0  0  0  0  0  0  0  0  0  0  0  0
   -1.2182    1.4573    1.4948 H   0  0  0  0  0  0  0  0  0  0  0  0
   -3.8833    0.9983   -0.8088 H   0  0  0  0  0  0  0  0  0  0  0  0
   -3.4174   -0.5612   -1.4460 H   0  0  0  0  0  0  0  0  0  0  0  0
    0.2333    0.6822    0.7185 H   0  0  0  0  0  0  0  0  0  0  0  0
   -0.5045    2.3140   -0.8624 H   0  0  0  0  0  0  0  0  0  0  0  0
   -2.1688    2.8378   -1.0797 H   0  0  0  0  0  0  0  0  0  0  0  0
   -1.1902    3.5493    0.2119 H   0  0  0  0  0  0  0  0  0  0  0  0
   -3.8743   -1.6256    0.7989 H   0  0  0  0  0  0  0  0  0  0  0  0
   -4.3657   -0.0498    1.4236 H   0  0  0  0  0  0  0  0  0  0  0  0
   -5.2996   -0.8161    0.1292 H   0  0  0  0  0  0  0  0  0  0  0  0
  1 12  2  0  0  0  0
  2  9  2  0  0  0  0
  3 10  1  0  0  0  0
  3 11  1  0  0  0  0
  3 12  1  0  0  0  0
  4  9  1  0  0  0  0
  4 12  1  0  0  0  0
  4 28  1  0  0  0  0
  5  6  1  0  0  0  0
  5  7  1  0  0  0  0
  5  8  1  0  0  0  0
  5 15  1  0  0  0  0
  6  9  1  0  0  0  0
  6 16  1  0  0  0  0
  6 17  1  0  0  0  0
  7 18  1  0  0  0  0
  7 19  1  0  0  0  0
  7 20  1  0  0  0  0
  8 21  1  0  0  0  0
  8 22  1  0  0  0  0
  8 23  1  0  0  0  0
 10 13  1  0  0  0  0
 10 24  1  0  0  0  0
 10 25  1  0  0  0  0
 11 14  1  0  0  0  0
 11 26  1  0  0  0  0
 11 27  1  0  0  0  0
 13 29  1  0  0  0  0
 13 30  1  0  0  0  0
 13 31  1  0  0  0  0
 14 32  1  0  0  0  0
 14 33  1  0  0  0  0
 14 34  1  0  0  0  0
M  END
> <PUBCHEM_COMPOUND_CID>
10867700

> <PUBCHEM_CONFORMER_RMSD>
0.8

> <PUBCHEM_CONFORMER_DIVERSEORDER>
2
9
32
28
42
40
22
35
19
26
45
48
11
36
47
43
37
16
13
46
14
29
34
10
44
5
15
31
23
41
49
33
1
18
27
17
38
20
8
24
12
25
7
4
21
3
39
6
30

> <PUBCHEM_MMFF94_PARTIAL_CHARGES>
10
1 -0.38
10 0.3
11 0.3
12 0.5
2 -0.57
28 0.37
3 -0.66
4 -0.49
6 0.06
9 0.57

> <PUBCHEM_EFFECTIVE_ROTOR_COUNT>
7

> <PUBCHEM_PHARMACOPHORE_FEATURES>
4
1 1 acceptor
1 2 acceptor
1 4 donor
3 5 7 8 hydrophobe

> <PUBCHEM_HEAVY_ATOM_COUNT>
14

> <PUBCHEM_ATOM_DEF_STEREO_COUNT>
0

> <PUBCHEM_ATOM_UDEF_STEREO_COUNT>
0

> <PUBCHEM_BOND_DEF_STEREO_COUNT>
0

> <PUBCHEM_BOND_UDEF_STEREO_COUNT>
0

> <PUBCHEM_ISOTOPIC_ATOM_COUNT>
0

> <PUBCHEM_COMPONENT_COUNT>
1

> <PUBCHEM_CACTVS_TAUTO_COUNT>
3

> <PUBCHEM_CONFORMER_ID>
00A5D3F400000002

> <PUBCHEM_MMFF94_ENERGY>
31.4983

> <PUBCHEM_FEATURE_SELFOVERLAP>
20.298

> <PUBCHEM_SHAPE_FINGERPRINT>
11132069 177 18271234027693800945
11715629 250 18341322349515351488
12932764 1 17703493429122302523
13221675 6 18410855485908515080
13618510 140 18335698287219857052
14144814 61 18409163277552754336
14787075 74 17896606274653579451
14993402 34 18270954743730718495
15375462 6 18337108964949091615
15775835 57 18341613758608953976
16945 1 18341597235595316779
17802600 8 18410287012986282592
19973954 147 18193271901611879801
20559304 39 18335693919401426656
20645477 56 18130782408488714200
20671657 1 18338231570906331050
21486144 27 16916773141211468906
21501502 16 18194119620713167705
22959321 28 18334582351494508617
22959321 54 18334013929863905040
23402539 116 18201712977027170725
23419403 2 14598783410508239747
23598291 2 18044934571916439874
25610 137 18335422374489395905
2748010 2 18125149433893383229
44154327 71 18410577331120917949
537710 114 18410292553636421665
58051976 378 18413386527337438559
81228 2 17626921403629202623

> <PUBCHEM_SHAPE_MULTIPOLES>
276.13
6.88
2.35
0.98
0.01
0.43
-0.01
0.24
0.18
0.63
0.47
-0.25
-0.08
-0.4

> <PUBCHEM_SHAPE_SELFOVERLAP>
504.65

> <PUBCHEM_SHAPE_VOLUME>
177.7

> <PUBCHEM_COORDINATE_TYPE>
2
5
10

$$$$
