78481
  -OEChem-11012401003D

 33 33  0     0  0  0  0  0  0999 V2000
   -0.2400   -1.7116   -1.1962 O   0  0  0  0  0  0  0  0  0  0  0  0
    0.1663    1.5536    1.2938 O   0  0  0  0  0  0  0  0  0  0  0  0
   -2.3289    1.8145   -1.2125 O   0  0  0  0  0  0  0  0  0  0  0  0
   -2.8499   -1.3484    1.2814 O   0  0  0  0  0  0  0  0  0  0  0  0
    2.7051    1.7753    0.3971 O   0  0  0  0  0  0  0  0  0  0  0  0
    2.9353   -1.5361    0.5284 O   0  0  0  0  0  0  0  0  0  0  0  0
   -1.3434    0.0634    0.0784 C   0  0  0  0  0  0  0  0  0  0  0  0
    1.2695   -0.0173   -0.2613 C   0  0  0  0  0  0  0  0  0  0  0  0
    0.0088    0.8362    0.0712 C   0  0  0  0  0  0  0  0  0  0  0  0
   -1.3951   -0.8751   -1.1401 C   0  0  0  0  0  0  0  0  0  0  0  0
    0.9465   -0.9568   -1.4390 C   0  0  0  0  0  0  0  0  0  0  0  0
   -2.5037    1.0783   -0.0232 C   0  0  0  0  0  0  0  0  0  0  0  0
   -1.5755   -0.7493    1.3686 C   0  0  0  0  0  0  0  0  0  0  0  0
    2.4273    0.9148   -0.6845 C   0  0  0  0  0  0  0  0  0  0  0  0
    1.7778   -0.8416    0.9382 C   0  0  0  0  0  0  0  0  0  0  0  0
   -0.0389    1.6001   -0.7160 H   0  0  0  0  0  0  0  0  0  0  0  0
   -2.2722   -1.5303   -1.1110 H   0  0  0  0  0  0  0  0  0  0  0  0
   -1.4631   -0.3231   -2.0856 H   0  0  0  0  0  0  0  0  0  0  0  0
    0.8120   -0.3850   -2.3670 H   0  0  0  0  0  0  0  0  0  0  0  0
    1.7551   -1.6649   -1.6438 H   0  0  0  0  0  0  0  0  0  0  0  0
   -2.5272    1.7677    0.8267 H   0  0  0  0  0  0  0  0  0  0  0  0
   -3.4788    0.5856   -0.0918 H   0  0  0  0  0  0  0  0  0  0  0  0
   -1.5305   -0.1315    2.2717 H   0  0  0  0  0  0  0  0  0  0  0  0
   -0.8697   -1.5683    1.4816 H   0  0  0  0  0  0  0  0  0  0  0  0
    2.1602    1.5229   -1.5566 H   0  0  0  0  0  0  0  0  0  0  0  0
    3.3396    0.3683   -0.9435 H   0  0  0  0  0  0  0  0  0  0  0  0
    1.0676   -1.5878    1.2868 H   0  0  0  0  0  0  0  0  0  0  0  0
    2.0403   -0.2139    1.7953 H   0  0  0  0  0  0  0  0  0  0  0  0
   -0.5024    2.2578    1.3192 H   0  0  0  0  0  0  0  0  0  0  0  0
   -3.0603    2.4529   -1.2680 H   0  0  0  0  0  0  0  0  0  0  0  0
   -3.4981   -0.7306    1.6600 H   0  0  0  0  0  0  0  0  0  0  0  0
    1.9822    2.4214    0.4650 H   0  0  0  0  0  0  0  0  0  0  0  0
    2.6589   -2.3864    0.1472 H   0  0  0  0  0  0  0  0  0  0  0  0
  1 10  1  0  0  0  0
  1 11  1  0  0  0  0
  2  9  1  0  0  0  0
  2 29  1  0  0  0  0
  3 12  1  0  0  0  0
  3 30  1  0  0  0  0
  4 13  1  0  0  0  0
  4 31  1  0  0  0  0
  5 14  1  0  0  0  0
  5 32  1  0  0  0  0
  6 15  1  0  0  0  0
  6 33  1  0  0  0  0
  7  9  1  0  0  0  0
  7 10  1  0  0  0  0
  7 12  1  0  0  0  0
  7 13  1  0  0  0  0
  8  9  1  0  0  0  0
  8 11  1  0  0  0  0
  8 14  1  0  0  0  0
  8 15  1  0  0  0  0
  9 16  1  0  0  0  0
 10 17  1  0  0  0  0
 10 18  1  0  0  0  0
 11 19  1  0  0  0  0
 11 20  1  0  0  0  0
 12 21  1  0  0  0  0
 12 22  1  0  0  0  0
 13 23  1  0  0  0  0
 13 24  1  0  0  0  0
 14 25  1  0  0  0  0
 14 26  1  0  0  0  0
 15 27  1  0  0  0  0
 15 28  1  0  0  0  0
M  END
> <PUBCHEM_COMPOUND_CID>
78481

> <PUBCHEM_CONFORMER_RMSD>
0.6

> <PUBCHEM_CONFORMER_DIVERSEORDER>
5
13
24
22
25
41
35
34
27
4
32
15
42
43
2
38
8
39
19
16
37
33
28
26
18
1
30
7
12
40
29
14
36
9
31
11
20
10
6
23
21
3
17

> <PUBCHEM_MMFF94_PARTIAL_CHARGES>
18
1 -0.56
10 0.28
11 0.28
12 0.28
13 0.28
14 0.28
15 0.28
2 -0.68
29 0.4
3 -0.68
30 0.4
31 0.4
32 0.4
33 0.4
4 -0.68
5 -0.68
6 -0.68
9 0.28

> <PUBCHEM_EFFECTIVE_ROTOR_COUNT>
5.2

> <PUBCHEM_PHARMACOPHORE_FEATURES>
12
1 1 acceptor
1 2 acceptor
1 2 donor
1 3 acceptor
1 3 donor
1 4 acceptor
1 4 donor
1 5 acceptor
1 5 donor
1 6 acceptor
1 6 donor
6 1 7 8 9 10 11 rings

> <PUBCHEM_HEAVY_ATOM_COUNT>
15

> <PUBCHEM_ATOM_DEF_STEREO_COUNT>
0

> <PUBCHEM_ATOM_UDEF_STEREO_COUNT>
0

> <PUBCHEM_BOND_DEF_STEREO_COUNT>
0

> <PUBCHEM_BOND_UDEF_STEREO_COUNT>
0

> <PUBCHEM_ISOTOPIC_ATOM_COUNT>
0

> <PUBCHEM_COMPONENT_COUNT>
1

> <PUBCHEM_CACTVS_TAUTO_COUNT>
1

> <PUBCHEM_CONFORMER_ID>
0001329100000005

> <PUBCHEM_MMFF94_ENERGY>
64.5484

> <PUBCHEM_FEATURE_SELFOVERLAP>
60.915

> <PUBCHEM_SHAPE_FINGERPRINT>
12423570 1 15407273221099669333
12932764 1 18342460391183872644
13024252 1 17314497330637858597
13172582 1 17917996074474439034
15310529 11 18334015033480225761
15557651 10 18053118490111845608
15775835 57 18200312254958398148
16945 1 18118126002812943604
17844478 74 18263939901988817209
18511873 20 18045767997134548610
20082192 1 17917996104576139982
20511035 2 18336818711006376620
21501502 16 18334580135549859497
22344851 262 17699260223403271798
23235685 24 17203063974546221187
23419403 2 14603285940952341055
23493267 7 18264508212071947340
241688 4 16758327665882312744
2748010 2 18272093785657316180
369184 2 18187366519243119521
430814 3 16269994179468631707
5084963 1 18118152309630167004

> <PUBCHEM_SHAPE_MULTIPOLES>
273.48
3.98
1.86
1.44
0.39
0.27
-0.04
0.33
0.57
0.08
-0.04
-0.35
-0.32
0.42

> <PUBCHEM_SHAPE_SELFOVERLAP>
551.082

> <PUBCHEM_SHAPE_VOLUME>
157.1

> <PUBCHEM_COORDINATE_TYPE>
2
5
10

$$$$
