3642925
  -OEChem-11012401283D

 40 43  0     0  0  0  0  0  0999 V2000
   -1.7962   -2.4885   -0.8494 O   0  0  0  0  0  0  0  0  0  0  0  0
   -1.2403    2.5689    1.2854 O   0  5  0  0  0  0  0  0  0  0  0  0
    1.3192    0.6235    2.3549 O   0  0  0  0  0  0  0  0  0  0  0  0
   -1.6437   -1.3188   -0.3497 N   0  3  0  0  0  0  0  0  0  0  0  0
   -1.3909    1.2600    0.7318 N   0  0  0  0  0  0  0  0  0  0  0  0
   -0.3427   -0.8629    0.1670 C   0  0  0  0  0  0  0  0  0  0  0  0
   -0.2969    0.3902    0.6725 C   0  0  0  0  0  0  0  0  0  0  0  0
   -2.8102   -0.4383   -0.3055 C   0  0  0  0  0  0  0  0  0  0  0  0
   -2.6631    0.8484    0.2395 C   0  0  0  0  0  0  0  0  0  0  0  0
    0.7664   -1.8038    0.0811 C   0  0  0  0  0  0  0  0  0  0  0  0
    1.0217    0.8363    1.1905 C   0  0  0  0  0  0  0  0  0  0  0  0
   -4.0419   -0.8879   -0.8025 C   0  0  0  0  0  0  0  0  0  0  0  0
   -3.8046    1.6734    0.2680 C   0  0  0  0  0  0  0  0  0  0  0  0
    1.9526    1.5104    0.2635 C   0  0  0  0  0  0  0  0  0  0  0  0
    1.0156   -2.6837    1.1325 C   0  0  0  0  0  0  0  0  0  0  0  0
    1.5742   -1.8221   -1.0543 C   0  0  0  0  0  0  0  0  0  0  0  0
   -5.1522   -0.0498   -0.7607 C   0  0  0  0  0  0  0  0  0  0  0  0
   -5.0343    1.2285   -0.2266 C   0  0  0  0  0  0  0  0  0  0  0  0
    2.0764   -3.5854    1.0482 C   0  0  0  0  0  0  0  0  0  0  0  0
    2.6351   -2.7239   -1.1385 C   0  0  0  0  0  0  0  0  0  0  0  0
    1.5631    1.7280   -1.0466 C   0  0  0  0  0  0  0  0  0  0  0  0
    3.1936    1.9107    0.7267 C   0  0  0  0  0  0  0  0  0  0  0  0
    2.8861   -3.6056   -0.0873 C   0  0  0  0  0  0  0  0  0  0  0  0
    2.4426    2.3663   -1.9211 C   0  0  0  0  0  0  0  0  0  0  0  0
    4.0730    2.5491   -0.1478 C   0  0  0  0  0  0  0  0  0  0  0  0
    3.6976    2.7769   -1.4717 C   0  0  0  0  0  0  0  0  0  0  0  0
   -4.1583   -1.8821   -1.2243 H   0  0  0  0  0  0  0  0  0  0  0  0
   -3.7652    2.6809    0.6749 H   0  0  0  0  0  0  0  0  0  0  0  0
    0.3928   -2.6802    2.0238 H   0  0  0  0  0  0  0  0  0  0  0  0
    1.3856   -1.1523   -1.8891 H   0  0  0  0  0  0  0  0  0  0  0  0
   -6.1084   -0.3934   -1.1443 H   0  0  0  0  0  0  0  0  0  0  0  0
   -5.8997    1.8844   -0.1931 H   0  0  0  0  0  0  0  0  0  0  0  0
    2.2718   -4.2720    1.8667 H   0  0  0  0  0  0  0  0  0  0  0  0
    3.2638   -2.7413   -2.0239 H   0  0  0  0  0  0  0  0  0  0  0  0
    0.5974    1.4348   -1.4441 H   0  0  0  0  0  0  0  0  0  0  0  0
    3.5053    1.7427    1.7534 H   0  0  0  0  0  0  0  0  0  0  0  0
    3.7117   -4.3081   -0.1532 H   0  0  0  0  0  0  0  0  0  0  0  0
    2.1502    2.5452   -2.9517 H   0  0  0  0  0  0  0  0  0  0  0  0
    5.0503    2.8688    0.2020 H   0  0  0  0  0  0  0  0  0  0  0  0
    4.3823    3.2741   -2.1525 H   0  0  0  0  0  0  0  0  0  0  0  0
  1  4  2  0  0  0  0
  2  5  1  0  0  0  0
  3 11  2  0  0  0  0
  4  6  1  0  0  0  0
  4  8  1  0  0  0  0
  5  7  1  0  0  0  0
  5  9  1  0  0  0  0
  6  7  2  0  0  0  0
  6 10  1  0  0  0  0
  7 11  1  0  0  0  0
  8  9  1  0  0  0  0
  8 12  2  0  0  0  0
  9 13  2  0  0  0  0
 10 15  2  0  0  0  0
 10 16  1  0  0  0  0
 11 14  1  0  0  0  0
 12 17  1  0  0  0  0
 12 27  1  0  0  0  0
 13 18  1  0  0  0  0
 13 28  1  0  0  0  0
 14 21  2  0  0  0  0
 14 22  1  0  0  0  0
 15 19  1  0  0  0  0
 15 29  1  0  0  0  0
 16 20  2  0  0  0  0
 16 30  1  0  0  0  0
 17 18  2  0  0  0  0
 17 31  1  0  0  0  0
 18 32  1  0  0  0  0
 19 23  2  0  0  0  0
 19 33  1  0  0  0  0
 20 23  1  0  0  0  0
 20 34  1  0  0  0  0
 21 24  1  0  0  0  0
 21 35  1  0  0  0  0
 22 25  2  0  0  0  0
 22 36  1  0  0  0  0
 23 37  1  0  0  0  0
 24 26  2  0  0  0  0
 24 38  1  0  0  0  0
 25 26  1  0  0  0  0
 25 39  1  0  0  0  0
 26 40  1  0  0  0  0
M  CHG  2   2  -1   4   1
M  END
> <PUBCHEM_COMPOUND_CID>
3642925

> <PUBCHEM_CONFORMER_RMSD>
0.6

> <PUBCHEM_CONFORMER_DIVERSEORDER>
1
2

> <PUBCHEM_MMFF94_PARTIAL_CHARGES>
40
1 -0.63
10 0.03
11 0.47
12 -0.15
13 -0.15
14 0.09
15 -0.15
16 -0.15
17 -0.15
18 -0.15
19 -0.15
2 -0.86
20 -0.15
21 -0.15
22 -0.15
23 -0.15
24 -0.15
25 -0.15
26 -0.15
27 0.15
28 0.15
29 0.15
3 -0.57
30 0.15
31 0.15
32 0.15
33 0.15
34 0.15
35 0.15
36 0.15
37 0.15
38 0.15
39 0.15
4 0.7
40 0.15
5 -0.08
6 -0.06
7 -0.02
8 -0.03
9 -0.03

> <PUBCHEM_EFFECTIVE_ROTOR_COUNT>
3

> <PUBCHEM_PHARMACOPHORE_FEATURES>
6
1 2 anion
1 3 acceptor
6 10 15 16 19 20 23 rings
6 14 21 22 24 25 26 rings
6 4 5 6 7 8 9 rings
6 8 9 12 13 17 18 rings

> <PUBCHEM_HEAVY_ATOM_COUNT>
26

> <PUBCHEM_ATOM_DEF_STEREO_COUNT>
0

> <PUBCHEM_ATOM_UDEF_STEREO_COUNT>
0

> <PUBCHEM_BOND_DEF_STEREO_COUNT>
0

> <PUBCHEM_BOND_UDEF_STEREO_COUNT>
0

> <PUBCHEM_ISOTOPIC_ATOM_COUNT>
0

> <PUBCHEM_COMPONENT_COUNT>
1

> <PUBCHEM_CACTVS_TAUTO_COUNT>
1

> <PUBCHEM_CONFORMER_ID>
0037962D00000001

> <PUBCHEM_MMFF94_ENERGY>
101.7107

> <PUBCHEM_FEATURE_SELFOVERLAP>
30.47

> <PUBCHEM_SHAPE_FINGERPRINT>
10190108 129 17906189691259026731
11045515 52 17757838823140223878
11370993 70 18267589194283078900
11578080 2 17172130258728718889
11582403 64 15694296591466938450
11963148 33 18121768702628863475
12156800 1 15624503953081035838
12173636 292 17976537543944850148
12236239 1 17969490692550566304
12293681 160 18058460974457533568
12422481 6 18049124862701914946
13004483 165 17253430102739177298
13257819 37 17974022930992797974
133893 2 18266193759102387048
13540713 5 18201155456619338449
14181834 199 18341336569977806798
15163728 17 17970364795577639380
15439362 3 18334580131408250036
15463212 79 17902505218676361060
15664445 248 18125729976360813046
16752209 62 17906727356084977994
17492 54 18189355510720483262
1813 80 17972305227505660610
19591789 44 17547007893848112163
20554085 129 17987499563574120128
20567600 347 18339077219601318982
20600515 1 17481984532669699546
20642791 178 18197787596241663337
20691752 17 17968376741358168435
20905425 154 18202285800936358030
2255824 54 18336826386197720243
22907989 373 17252885243229919294
23366157 5 18261390009838266227
23419403 2 17825367601818652198
23559900 14 18199740363141776243
23598288 3 17465377921666353096
244849 19 17605016757202949593
25147074 1 18130508531657485137
298252 57 18117840125711429024
312423 11 18272373032321375587
350125 39 18125724491929889449
4017518 198 18200882877015965654
4409770 3 17615418386273006566
469060 322 17903096743484669931
474 4 18259983807549051231
5081480 168 18191019002428862725
59755656 215 18412263930618993420
6138700 20 18411422779160868014
7364860 26 18343016662236386266
90316 7 17399794904448205778
9981440 41 18191868031463760594

> <PUBCHEM_SHAPE_MULTIPOLES>
507.5
8.04
4.47
1.48
9.29
2.6
0.14
-3.67
-2.31
-5.96
-0.37
-0.93
-0.39
-1.2

> <PUBCHEM_SHAPE_SELFOVERLAP>
1129.888

> <PUBCHEM_SHAPE_VOLUME>
267.3

> <PUBCHEM_COORDINATE_TYPE>
2
5
10

$$$$
