144814
  -OEChem-11012400533D

 56 56  0     0  0  0  0  0  0999 V2000
    4.7343   -0.6858   -0.1391 O   0  0  0  0  0  0  0  0  0  0  0  0
   -4.7457    0.6882   -0.1383 O   0  0  0  0  0  0  0  0  0  0  0  0
    3.2980   -0.4648   -0.2297 O   0  0  0  0  0  0  0  0  0  0  0  0
   -3.3070    0.4671   -0.2270 O   0  0  0  0  0  0  0  0  0  0  0  0
    3.4945   -0.5081    2.0671 O   0  0  0  0  0  0  0  0  0  0  0  0
   -3.5027    0.5008    2.0702 O   0  0  0  0  0  0  0  0  0  0  0  0
    1.1414    3.3430    0.4255 O   0  0  0  0  0  0  0  0  0  0  0  0
   -1.1231   -3.3476    0.4118 O   0  0  0  0  0  0  0  0  0  0  0  0
    2.8404    2.3420    1.5560 O   0  0  0  0  0  0  0  0  0  0  0  0
   -2.8219   -2.3513    1.5468 O   0  0  0  0  0  0  0  0  0  0  0  0
    5.1862   -0.7435   -1.4937 C   0  0  0  0  0  0  0  0  0  0  0  0
   -5.1997    0.7517   -1.4829 C   0  0  0  0  0  0  0  0  0  0  0  0
    4.8085    0.5653   -2.2154 C   0  0  0  0  0  0  0  0  0  0  0  0
   -4.8246   -0.5535   -2.2121 C   0  0  0  0  0  0  0  0  0  0  0  0
    6.6976   -0.9753   -1.4622 C   0  0  0  0  0  0  0  0  0  0  0  0
    4.4952   -1.9314   -2.1707 C   0  0  0  0  0  0  0  0  0  0  0  0
   -6.7110    0.9836   -1.4448 C   0  0  0  0  0  0  0  0  0  0  0  0
   -4.5111    1.9428   -2.1568 C   0  0  0  0  0  0  0  0  0  0  0  0
    5.3942    1.8252   -1.5883 C   0  0  0  0  0  0  0  0  0  0  0  0
   -5.4083   -1.8163   -1.5886 C   0  0  0  0  0  0  0  0  0  0  0  0
    1.3655   -0.1796    1.0467 C   0  0  0  0  0  0  0  0  0  0  0  0
   -1.3740    0.1765    1.0475 C   0  0  0  0  0  0  0  0  0  0  0  0
    0.8567    1.1042    1.0492 C   0  0  0  0  0  0  0  0  0  0  0  0
   -0.8384   -1.1114    1.0449 C   0  0  0  0  0  0  0  0  0  0  0  0
    0.5449   -1.2916    1.0445 C   0  0  0  0  0  0  0  0  0  0  0  0
   -0.5265    1.2843    1.0497 C   0  0  0  0  0  0  0  0  0  0  0  0
    2.8328   -0.4046    1.0458 C   0  0  0  0  0  0  0  0  0  0  0  0
   -2.8145    0.3975    1.0482 C   0  0  0  0  0  0  0  0  0  0  0  0
    1.7158    2.2814    1.0525 C   0  0  0  0  0  0  0  0  0  0  0  0
   -1.6974   -2.2885    1.0434 C   0  0  0  0  0  0  0  0  0  0  0  0
    5.1474    0.5124   -3.2583 H   0  0  0  0  0  0  0  0  0  0  0  0
    3.7197    0.6908   -2.2606 H   0  0  0  0  0  0  0  0  0  0  0  0
   -5.1674   -0.4957   -3.2533 H   0  0  0  0  0  0  0  0  0  0  0  0
   -3.7361   -0.6790   -2.2620 H   0  0  0  0  0  0  0  0  0  0  0  0
    6.9309   -1.9395   -0.9952 H   0  0  0  0  0  0  0  0  0  0  0  0
    7.2069   -0.2196   -0.8550 H   0  0  0  0  0  0  0  0  0  0  0  0
    7.1285   -0.9682   -2.4686 H   0  0  0  0  0  0  0  0  0  0  0  0
    4.8967   -2.1013   -3.1757 H   0  0  0  0  0  0  0  0  0  0  0  0
    4.6324   -2.8479   -1.5853 H   0  0  0  0  0  0  0  0  0  0  0  0
    3.4141   -1.7844   -2.2712 H   0  0  0  0  0  0  0  0  0  0  0  0
   -6.9426    1.9457   -0.9728 H   0  0  0  0  0  0  0  0  0  0  0  0
   -7.2185    0.2251   -0.8395 H   0  0  0  0  0  0  0  0  0  0  0  0
   -7.1453    0.9811   -2.4497 H   0  0  0  0  0  0  0  0  0  0  0  0
   -3.4303    1.7964   -2.2618 H   0  0  0  0  0  0  0  0  0  0  0  0
   -4.6464    2.8569   -1.5670 H   0  0  0  0  0  0  0  0  0  0  0  0
   -4.9162    2.1171   -3.1597 H   0  0  0  0  0  0  0  0  0  0  0  0
    5.0314    2.7097   -2.1222 H   0  0  0  0  0  0  0  0  0  0  0  0
    6.4863    1.8331   -1.6463 H   0  0  0  0  0  0  0  0  0  0  0  0
    5.0998    1.9244   -0.5392 H   0  0  0  0  0  0  0  0  0  0  0  0
   -5.0480   -2.6983   -2.1284 H   0  0  0  0  0  0  0  0  0  0  0  0
   -6.5006   -1.8236   -1.6421 H   0  0  0  0  0  0  0  0  0  0  0  0
   -5.1095   -1.9208   -0.5413 H   0  0  0  0  0  0  0  0  0  0  0  0
    0.9868   -2.2846    1.0557 H   0  0  0  0  0  0  0  0  0  0  0  0
   -0.9642    2.2801    1.0654 H   0  0  0  0  0  0  0  0  0  0  0  0
    1.7264    4.1305    0.4312 H   0  0  0  0  0  0  0  0  0  0  0  0
   -1.7080   -4.1352    0.4143 H   0  0  0  0  0  0  0  0  0  0  0  0
  1  3  1  0  0  0  0
  1 11  1  0  0  0  0
  2  4  1  0  0  0  0
  2 12  1  0  0  0  0
  3 27  1  0  0  0  0
  4 28  1  0  0  0  0
  5 27  2  0  0  0  0
  6 28  2  0  0  0  0
  7 29  1  0  0  0  0
  7 55  1  0  0  0  0
  8 30  1  0  0  0  0
  8 56  1  0  0  0  0
  9 29  2  0  0  0  0
 10 30  2  0  0  0  0
 11 13  1  0  0  0  0
 11 15  1  0  0  0  0
 11 16  1  0  0  0  0
 12 14  1  0  0  0  0
 12 17  1  0  0  0  0
 12 18  1  0  0  0  0
 13 19  1  0  0  0  0
 13 31  1  0  0  0  0
 13 32  1  0  0  0  0
 14 20  1  0  0  0  0
 14 33  1  0  0  0  0
 14 34  1  0  0  0  0
 15 35  1  0  0  0  0
 15 36  1  0  0  0  0
 15 37  1  0  0  0  0
 16 38  1  0  0  0  0
 16 39  1  0  0  0  0
 16 40  1  0  0  0  0
 17 41  1  0  0  0  0
 17 42  1  0  0  0  0
 17 43  1  0  0  0  0
 18 44  1  0  0  0  0
 18 45  1  0  0  0  0
 18 46  1  0  0  0  0
 19 47  1  0  0  0  0
 19 48  1  0  0  0  0
 19 49  1  0  0  0  0
 20 50  1  0  0  0  0
 20 51  1  0  0  0  0
 20 52  1  0  0  0  0
 21 23  2  0  0  0  0
 21 25  1  0  0  0  0
 21 27  1  0  0  0  0
 22 24  1  0  0  0  0
 22 26  2  0  0  0  0
 22 28  1  0  0  0  0
 23 26  1  0  0  0  0
 23 29  1  0  0  0  0
 24 25  2  0  0  0  0
 24 30  1  0  0  0  0
 25 53  1  0  0  0  0
 26 54  1  0  0  0  0
M  END
> <PUBCHEM_COMPOUND_CID>
144814

> <PUBCHEM_CONFORMER_RMSD>
1

> <PUBCHEM_CONFORMER_DIVERSEORDER>
1
111
102
57
16
10
114
79
108
60
65
13
99
70
35
98
113
71
62
55
106
22
107
89
52
109
30
117
38
110
104
23
58
85
103
115
3
63
78
17
53
80
27
96
101
44
105
5
73
28
90
118
54
41
33
66
61
92
51
86
49
37
93
47
67
69
45
95
84
39
112
116
32
100
31
68
81
97
74
48
87
77
91
42
56
59
82
75
26
83
43
88
46
76
12
20
19
94
6
72
36
40
50
8
7
25
64
11
4
24
18
9
21
29
15
2
14
34

> <PUBCHEM_MMFF94_PARTIAL_CHARGES>
26
1 -0.28
10 -0.57
11 0.28
12 0.28
2 -0.28
21 0.09
22 0.09
23 0.09
24 0.09
25 -0.15
26 -0.15
27 0.63
28 0.63
29 0.63
3 -0.15
30 0.63
4 -0.15
5 -0.57
53 0.15
54 0.15
55 0.5
56 0.5
6 -0.57
7 -0.65
8 -0.65
9 -0.57

> <PUBCHEM_EFFECTIVE_ROTOR_COUNT>
12

> <PUBCHEM_PHARMACOPHORE_FEATURES>
13
1 10 acceptor
1 19 hydrophobe
1 20 hydrophobe
1 5 acceptor
1 6 acceptor
1 7 acceptor
1 8 acceptor
1 9 acceptor
3 11 15 16 hydrophobe
3 12 17 18 hydrophobe
3 7 9 29 anion
3 8 10 30 anion
6 21 22 23 24 25 26 rings

> <PUBCHEM_HEAVY_ATOM_COUNT>
30

> <PUBCHEM_ATOM_DEF_STEREO_COUNT>
0

> <PUBCHEM_ATOM_UDEF_STEREO_COUNT>
0

> <PUBCHEM_BOND_DEF_STEREO_COUNT>
0

> <PUBCHEM_BOND_UDEF_STEREO_COUNT>
0

> <PUBCHEM_ISOTOPIC_ATOM_COUNT>
0

> <PUBCHEM_COMPONENT_COUNT>
1

> <PUBCHEM_CACTVS_TAUTO_COUNT>
1

> <PUBCHEM_CONFORMER_ID>
000235AE00000001

> <PUBCHEM_MMFF94_ENERGY>
93.3848

> <PUBCHEM_FEATURE_SELFOVERLAP>
66.093

> <PUBCHEM_SHAPE_FINGERPRINT>
10006869 2 13913142588127817479
105312 117 17967537848325353959
10693767 8 17916012478278905671
11135609 201 15357979022587388741
11578080 2 18041554875347686980
11763715 3 15841285817186239016
11796584 16 15051452652563650133
11961588 58 17603864532993058645
12892183 10 11170186494251720005
13533116 47 15841258324820956202
13540713 4 18266741483233090770
13690498 29 18117571840363571531
13911987 19 18261397711273478795
14251751 18 15051731971625228885
14347329 18 17603580781868817245
14739800 52 14923935773704681836
15183329 4 17988640770501383367
17349148 13 15625949771520451199
17913733 40 11746926599053222816
18222031 100 17989201517358082424
19784866 240 16128658548097502035
20775438 99 17270003432425875055
21069387 34 17489590073309873777
21307412 95 18130236977512383734
21315764 371 14764358089725650206
21344244 181 17917138499125405543
22182313 1 18194402418513419338
22393880 68 18334573589708724107
23379529 103 17487885921098891175
23559900 14 18270969050224863112
23569914 2 15360478281025525933
25122255 55 15913328000670459821
2838139 119 17167857534983988189
4015057 19 18131077060335548360
46194498 28 18049459320131502570
463206 1 15625928889801012855
465052 167 12895067423287600040
513532 50 18340474673385088948
6608658 132 17022893563071485477

> <PUBCHEM_SHAPE_MULTIPOLES>
558.69
15.14
2.78
2.56
0.23
0.01
-0.84
-0.09
-14.34
0.01
0.32
-0.03
0
1.52

> <PUBCHEM_SHAPE_SELFOVERLAP>
1156.384

> <PUBCHEM_SHAPE_VOLUME>
321.1

> <PUBCHEM_COORDINATE_TYPE>
2
5
10

$$$$
