66640
  -OEChem-11012400403D

 21 21  0     0  0  0  0  0  0999 V2000
   -2.3955    1.2979   -0.3321 O   0  0  0  0  0  0  0  0  0  0  0  0
    3.8235    0.8170    0.0547 O   0  0  0  0  0  0  0  0  0  0  0  0
   -1.4294   -2.6470    0.0464 O   0  5  0  0  0  0  0  0  0  0  0  0
   -2.9703   -1.0980   -0.1669 O   0  0  0  0  0  0  0  0  0  0  0  0
    3.3870   -1.4081    0.2143 O   0  0  0  0  0  0  0  0  0  0  0  0
   -1.7695   -1.4460   -0.0714 N   0  3  0  0  0  0  0  0  0  0  0  0
   -0.7598   -0.4450   -0.0971 C   0  0  0  0  0  0  0  0  0  0  0  0
   -1.0948    0.9028   -0.2266 C   0  0  0  0  0  0  0  0  0  0  0  0
    1.5816    0.1451   -0.0145 C   0  0  0  0  0  0  0  0  0  0  0  0
    0.5785   -0.8239    0.0090 C   0  0  0  0  0  0  0  0  0  0  0  0
   -0.0917    1.8717   -0.2499 C   0  0  0  0  0  0  0  0  0  0  0  0
    1.2466    1.4928   -0.1440 C   0  0  0  0  0  0  0  0  0  0  0  0
    2.9774   -0.2486    0.0961 C   0  0  0  0  0  0  0  0  0  0  0  0
   -3.0837    1.5892    0.8821 C   0  0  0  0  0  0  0  0  0  0  0  0
    0.8590   -1.8699    0.1106 H   0  0  0  0  0  0  0  0  0  0  0  0
   -0.3456    2.9235   -0.3512 H   0  0  0  0  0  0  0  0  0  0  0  0
    1.9949    2.2799   -0.1669 H   0  0  0  0  0  0  0  0  0  0  0  0
   -2.8122    2.5930    1.2235 H   0  0  0  0  0  0  0  0  0  0  0  0
   -2.8562    0.8628    1.6694 H   0  0  0  0  0  0  0  0  0  0  0  0
   -4.1586    1.5684    0.6826 H   0  0  0  0  0  0  0  0  0  0  0  0
    4.7619    0.5408    0.1294 H   0  0  0  0  0  0  0  0  0  0  0  0
  1  8  1  0  0  0  0
  1 14  1  0  0  0  0
  2 13  1  0  0  0  0
  2 21  1  0  0  0  0
  3  6  1  0  0  0  0
  4  6  2  0  0  0  0
  5 13  2  0  0  0  0
  6  7  1  0  0  0  0
  7  8  2  0  0  0  0
  7 10  1  0  0  0  0
  8 11  1  0  0  0  0
  9 10  2  0  0  0  0
  9 12  1  0  0  0  0
  9 13  1  0  0  0  0
 10 15  1  0  0  0  0
 11 12  2  0  0  0  0
 11 16  1  0  0  0  0
 12 17  1  0  0  0  0
 14 18  1  0  0  0  0
 14 19  1  0  0  0  0
 14 20  1  0  0  0  0
M  CHG  2   3  -1   6   1
M  END
> <PUBCHEM_COMPOUND_CID>
66640

> <PUBCHEM_CONFORMER_RMSD>
0.6

> <PUBCHEM_CONFORMER_DIVERSEORDER>
1
2

> <PUBCHEM_MMFF94_PARTIAL_CHARGES>
18
1 -0.36
10 -0.15
11 -0.15
12 -0.15
13 0.63
14 0.28
15 0.15
16 0.15
17 0.15
2 -0.65
21 0.5
3 -0.52
4 -0.52
5 -0.57
6 0.91
7 0.13
8 0.08
9 0.09

> <PUBCHEM_EFFECTIVE_ROTOR_COUNT>
3

> <PUBCHEM_PHARMACOPHORE_FEATURES>
8
1 1 acceptor
1 2 acceptor
1 3 acceptor
1 3 anion
1 4 acceptor
1 5 acceptor
3 2 5 13 anion
6 7 8 9 10 11 12 rings

> <PUBCHEM_HEAVY_ATOM_COUNT>
14

> <PUBCHEM_ATOM_DEF_STEREO_COUNT>
0

> <PUBCHEM_ATOM_UDEF_STEREO_COUNT>
0

> <PUBCHEM_BOND_DEF_STEREO_COUNT>
0

> <PUBCHEM_BOND_UDEF_STEREO_COUNT>
0

> <PUBCHEM_ISOTOPIC_ATOM_COUNT>
0

> <PUBCHEM_COMPONENT_COUNT>
1

> <PUBCHEM_CACTVS_TAUTO_COUNT>
1

> <PUBCHEM_CONFORMER_ID>
0001045000000001

> <PUBCHEM_MMFF94_ENERGY>
57.2006

> <PUBCHEM_FEATURE_SELFOVERLAP>
40.76

> <PUBCHEM_SHAPE_FINGERPRINT>
10967382 1 18266176119624138286
11132069 177 18337665335128640608
12251169 10 18411706503703409689
12382932 28 18341052925863387144
12932764 1 17604142632558075684
13380535 21 18411427193738115876
13380535 76 18270679757990805567
14144814 61 18409165510914571218
14325111 11 18410854339437304540
15001771 113 18192434301527049985
15309172 13 18265902354298593817
15442244 35 18410855430427426656
16945 1 18194403530931177229
193761 8 18193839477218945453
20510252 161 18272934920758589561
20588541 1 18270120089376444116
20871998 184 18272652371950345095
21501502 16 18338239370187028460
2334 1 18337670927022994668
23402539 116 18199735960594517893
23463225 33 18335984190397267262
23552423 10 18044376256032296604
23557571 272 18200606886037115228
23559900 14 18342455899471020286
2748010 2 18410851105247790052
6333449 129 18412259527902831909
69090 78 18411696548195869349
7364860 26 18052256486086760588
75552 356 18411981377235998636

> <PUBCHEM_SHAPE_MULTIPOLES>
253.79
5.24
2.23
0.66
2.43
0.72
-0.05
-0.11
-0.72
-1.17
-0.02
-0.18
-0.13
-0.35

> <PUBCHEM_SHAPE_SELFOVERLAP>
537.255

> <PUBCHEM_SHAPE_VOLUME>
142.5

> <PUBCHEM_COORDINATE_TYPE>
2
5
10

$$$$
