70109
  -OEChem-11012401093D

 20 20  0     0  0  0  0  0  0999 V2000
    1.2427    1.1880   -0.1673 O   0  0  0  0  0  0  0  0  0  0  0  0
    1.2428   -1.1879   -0.1674 O   0  0  0  0  0  0  0  0  0  0  0  0
   -0.8860    0.0000    0.0203 C   0  0  0  0  0  0  0  0  0  0  0  0
   -0.0679    1.2500    0.3978 C   0  0  0  0  0  0  0  0  0  0  0  0
   -0.0679   -1.2500    0.3977 C   0  0  0  0  0  0  0  0  0  0  0  0
   -1.1560    0.0001   -1.4968 C   0  0  0  0  0  0  0  0  0  0  0  0
   -2.2233   -0.0001    0.7702 C   0  0  0  0  0  0  0  0  0  0  0  0
    1.9156    0.0000    0.2455 C   0  0  0  0  0  0  0  0  0  0  0  0
   -0.5493    2.1616    0.0265 H   0  0  0  0  0  0  0  0  0  0  0  0
    0.0249    1.3527    1.4863 H   0  0  0  0  0  0  0  0  0  0  0  0
    0.0249   -1.3528    1.4863 H   0  0  0  0  0  0  0  0  0  0  0  0
   -0.5491   -2.1615    0.0263 H   0  0  0  0  0  0  0  0  0  0  0  0
   -1.7318    0.8843   -1.7927 H   0  0  0  0  0  0  0  0  0  0  0  0
   -0.2285    0.0001   -2.0793 H   0  0  0  0  0  0  0  0  0  0  0  0
   -1.7318   -0.8842   -1.7926 H   0  0  0  0  0  0  0  0  0  0  0  0
   -2.0691   -0.0001    1.8551 H   0  0  0  0  0  0  0  0  0  0  0  0
   -2.8176    0.8854    0.5187 H   0  0  0  0  0  0  0  0  0  0  0  0
   -2.8176   -0.8856    0.5186 H   0  0  0  0  0  0  0  0  0  0  0  0
    2.9038    0.0000   -0.2233 H   0  0  0  0  0  0  0  0  0  0  0  0
    2.0631    0.0000    1.3326 H   0  0  0  0  0  0  0  0  0  0  0  0
  1  4  1  0  0  0  0
  1  8  1  0  0  0  0
  2  5  1  0  0  0  0
  2  8  1  0  0  0  0
  3  4  1  0  0  0  0
  3  5  1  0  0  0  0
  3  6  1  0  0  0  0
  3  7  1  0  0  0  0
  4  9  1  0  0  0  0
  4 10  1  0  0  0  0
  5 11  1  0  0  0  0
  5 12  1  0  0  0  0
  6 13  1  0  0  0  0
  6 14  1  0  0  0  0
  6 15  1  0  0  0  0
  7 16  1  0  0  0  0
  7 17  1  0  0  0  0
  7 18  1  0  0  0  0
  8 19  1  0  0  0  0
  8 20  1  0  0  0  0
M  END
> <PUBCHEM_COMPOUND_CID>
70109

> <PUBCHEM_CONFORMER_RMSD>
0.4

> <PUBCHEM_CONFORMER_DIVERSEORDER>
1
2
3

> <PUBCHEM_MMFF94_PARTIAL_CHARGES>
5
1 -0.56
2 -0.56
4 0.28
5 0.28
8 0.56

> <PUBCHEM_EFFECTIVE_ROTOR_COUNT>
1.2

> <PUBCHEM_PHARMACOPHORE_FEATURES>
4
1 1 acceptor
1 2 acceptor
3 3 6 7 hydrophobe
6 1 2 3 4 5 8 rings

> <PUBCHEM_HEAVY_ATOM_COUNT>
8

> <PUBCHEM_ATOM_DEF_STEREO_COUNT>
0

> <PUBCHEM_ATOM_UDEF_STEREO_COUNT>
0

> <PUBCHEM_BOND_DEF_STEREO_COUNT>
0

> <PUBCHEM_BOND_UDEF_STEREO_COUNT>
0

> <PUBCHEM_ISOTOPIC_ATOM_COUNT>
0

> <PUBCHEM_COMPONENT_COUNT>
1

> <PUBCHEM_CACTVS_TAUTO_COUNT>
1

> <PUBCHEM_CONFORMER_ID>
000111DD00000001

> <PUBCHEM_MMFF94_ENERGY>
21.5542

> <PUBCHEM_FEATURE_SELFOVERLAP>
20.333

> <PUBCHEM_SHAPE_FINGERPRINT>
137420 1 13223542729328792877
18185500 45 18059841883430133935
20096714 4 18341899635684316120
21040471 1 18267311013160902320
23235685 24 18410576227414692528
24536 1 18335410227878751648
29004967 10 18335706013649504497
5084963 1 17971176256470061666
5943 1 12811225628426129791

> <PUBCHEM_SHAPE_MULTIPOLES>
152.9
2.33
1.28
1.03
0.05
0
-0.36
0
0.29
-0.34
0.11
0.51
0
0

> <PUBCHEM_SHAPE_SELFOVERLAP>
296.234

> <PUBCHEM_SHAPE_VOLUME>
92.5

> <PUBCHEM_COORDINATE_TYPE>
2
5
10

$$$$
