138741
  -OEChem-11012400323D

 20 21  0     0  0  0  0  0  0999 V2000
   -1.5561    0.8967    0.0000 S   0  0  0  0  0  0  0  0  0  0  0  0
   -1.9172    1.4859   -1.2720 O   0  0  0  0  0  0  0  0  0  0  0  0
   -1.9179    1.4856    1.2719 O   0  0  0  0  0  0  0  0  0  0  0  0
    0.1663    0.6441    0.0003 C   0  0  0  0  0  0  0  0  0  0  0  0
    0.4492   -0.7202    0.0003 C   0  0  0  0  0  0  0  0  0  0  0  0
   -0.7669   -1.5437    0.0000 C   0  0  0  0  0  0  0  0  0  0  0  0
   -1.8937   -0.8097   -0.0003 C   0  0  0  0  0  0  0  0  0  0  0  0
    1.1266    1.6352    0.0000 C   0  0  0  0  0  0  0  0  0  0  0  0
    1.7773   -1.1220    0.0002 C   0  0  0  0  0  0  0  0  0  0  0  0
   -0.7057   -3.0310   -0.0003 C   0  0  0  0  0  0  0  0  0  0  0  0
    2.4571    1.2233   -0.0002 C   0  0  0  0  0  0  0  0  0  0  0  0
    2.7809   -0.1441   -0.0001 C   0  0  0  0  0  0  0  0  0  0  0  0
   -2.9014   -1.2015   -0.0006 H   0  0  0  0  0  0  0  0  0  0  0  0
    0.8664    2.6869   -0.0001 H   0  0  0  0  0  0  0  0  0  0  0  0
    2.0519   -2.1721    0.0001 H   0  0  0  0  0  0  0  0  0  0  0  0
   -0.1828   -3.3979    0.8891 H   0  0  0  0  0  0  0  0  0  0  0  0
   -0.1823   -3.3976   -0.8894 H   0  0  0  0  0  0  0  0  0  0  0  0
   -1.7076   -3.4736   -0.0006 H   0  0  0  0  0  0  0  0  0  0  0  0
    3.2527    1.9632   -0.0004 H   0  0  0  0  0  0  0  0  0  0  0  0
    3.8249   -0.4467   -0.0003 H   0  0  0  0  0  0  0  0  0  0  0  0
  1  2  2  0  0  0  0
  1  3  2  0  0  0  0
  1  4  1  0  0  0  0
  1  7  1  0  0  0  0
  4  5  1  0  0  0  0
  4  8  2  0  0  0  0
  5  6  1  0  0  0  0
  5  9  2  0  0  0  0
  6  7  2  0  0  0  0
  6 10  1  0  0  0  0
  7 13  1  0  0  0  0
  8 11  1  0  0  0  0
  8 14  1  0  0  0  0
  9 12  1  0  0  0  0
  9 15  1  0  0  0  0
 10 16  1  0  0  0  0
 10 17  1  0  0  0  0
 10 18  1  0  0  0  0
 11 12  2  0  0  0  0
 11 19  1  0  0  0  0
 12 20  1  0  0  0  0
M  END
> <PUBCHEM_COMPOUND_CID>
138741

> <PUBCHEM_CONFORMER_RMSD>
0.4

> <PUBCHEM_CONFORMER_DIVERSEORDER>
1

> <PUBCHEM_MMFF94_PARTIAL_CHARGES>
17
1 1.33
10 0.14
11 -0.15
12 -0.15
13 0.15
14 0.15
15 0.15
19 0.15
2 -0.65
20 0.15
3 -0.65
4 -0.01
5 0.03
6 -0.17
7 -0.17
8 -0.15
9 -0.15

> <PUBCHEM_EFFECTIVE_ROTOR_COUNT>
0

> <PUBCHEM_PHARMACOPHORE_FEATURES>
4
1 2 acceptor
1 3 acceptor
5 1 4 5 6 7 rings
6 4 5 8 9 11 12 rings

> <PUBCHEM_HEAVY_ATOM_COUNT>
12

> <PUBCHEM_ATOM_DEF_STEREO_COUNT>
0

> <PUBCHEM_ATOM_UDEF_STEREO_COUNT>
0

> <PUBCHEM_BOND_DEF_STEREO_COUNT>
0

> <PUBCHEM_BOND_UDEF_STEREO_COUNT>
0

> <PUBCHEM_ISOTOPIC_ATOM_COUNT>
0

> <PUBCHEM_COMPONENT_COUNT>
1

> <PUBCHEM_CACTVS_TAUTO_COUNT>
1

> <PUBCHEM_CONFORMER_ID>
00021DF500000001

> <PUBCHEM_MMFF94_ENERGY>
19.2364

> <PUBCHEM_FEATURE_SELFOVERLAP>
20.377

> <PUBCHEM_SHAPE_FINGERPRINT>
1 1 18120366566960560183
11206711 2 18265334095781159340
12423570 1 15973314344046281510
13024252 1 15357687630404389657
14614273 12 18191576660898399292
14817 1 11988905683770183069
15775835 57 18261116248670194452
16945 1 18266740366684050214
193761 8 18266458900408004964
19973954 147 18267870660563989232
21040471 1 18410855447543985728
21501502 16 18338518659246600164
2334 1 18410573951003066626
23552423 10 17972597972539573150
23559900 14 18271255924713884758
241688 4 17903917008448288443
25 1 17901937544200879261
2748010 2 18337956675439501830
5084963 1 18412820287422938713
5255222 1 18266739262846014568
528886 8 18267864982369434216
63268167 104 18267860580012150880
81228 2 18193278713393257027

> <PUBCHEM_SHAPE_MULTIPOLES>
239.07
3.31
2.54
0.81
1.67
1.1
0
-0.39
0
-1.21
0
-0.33
-0.35
0

> <PUBCHEM_SHAPE_SELFOVERLAP>
508.663

> <PUBCHEM_SHAPE_VOLUME>
134.5

> <PUBCHEM_COORDINATE_TYPE>
2
5
10

$$$$
