969848
  -OEChem-11012401123D

 30 32  0     0  0  0  0  0  0999 V2000
    4.0537   -1.7097    0.0027 O   0  0  0  0  0  0  0  0  0  0  0  0
    5.0583    0.4803    0.0555 O   0  0  0  0  0  0  0  0  0  0  0  0
   -0.6523    0.4275   -2.7317 N   0  0  0  0  0  0  0  0  0  0  0  0
    3.1354   -0.7241    0.1959 C   0  0  0  0  0  0  0  0  0  0  0  0
    0.9896    0.2356    0.5411 C   0  0  0  0  0  0  0  0  0  0  0  0
    3.7089    0.5265    0.2263 C   0  0  0  0  0  0  0  0  0  0  0  0
    1.7760   -0.9032    0.3505 C   0  0  0  0  0  0  0  0  0  0  0  0
    1.5756    1.5132    0.5720 C   0  0  0  0  0  0  0  0  0  0  0  0
    2.9549    1.6670    0.4127 C   0  0  0  0  0  0  0  0  0  0  0  0
   -0.4493    0.0991    0.7097 C   0  0  0  0  0  0  0  0  0  0  0  0
    5.2697   -0.9393   -0.0865 C   0  0  0  0  0  0  0  0  0  0  0  0
   -1.3900    0.1192   -0.2682 C   0  0  0  0  0  0  0  0  0  0  0  0
   -2.8306   -0.0356    0.0123 C   0  0  0  0  0  0  0  0  0  0  0  0
   -3.3851   -1.3041    0.0223 C   0  0  0  0  0  0  0  0  0  0  0  0
   -3.5963    1.0908    0.2597 C   0  0  0  0  0  0  0  0  0  0  0  0
   -4.7465   -1.4506    0.2880 C   0  0  0  0  0  0  0  0  0  0  0  0
   -4.9578    0.9443    0.5255 C   0  0  0  0  0  0  0  0  0  0  0  0
   -5.5329   -0.3265    0.5395 C   0  0  0  0  0  0  0  0  0  0  0  0
   -0.9812    0.2897   -1.6273 C   0  0  0  0  0  0  0  0  0  0  0  0
    1.3421   -1.8977    0.3243 H   0  0  0  0  0  0  0  0  0  0  0  0
    0.9614    2.3987    0.7211 H   0  0  0  0  0  0  0  0  0  0  0  0
    3.4108    2.6503    0.4360 H   0  0  0  0  0  0  0  0  0  0  0  0
   -0.7634   -0.0337    1.7440 H   0  0  0  0  0  0  0  0  0  0  0  0
    5.7347   -1.1291   -1.0607 H   0  0  0  0  0  0  0  0  0  0  0  0
    5.9548   -1.2726    0.7015 H   0  0  0  0  0  0  0  0  0  0  0  0
   -2.7832   -2.1879   -0.1719 H   0  0  0  0  0  0  0  0  0  0  0  0
   -3.1602    2.0862    0.2518 H   0  0  0  0  0  0  0  0  0  0  0  0
   -5.1944   -2.4400    0.2990 H   0  0  0  0  0  0  0  0  0  0  0  0
   -5.5703    1.8196    0.7214 H   0  0  0  0  0  0  0  0  0  0  0  0
   -6.5929   -0.4405    0.7464 H   0  0  0  0  0  0  0  0  0  0  0  0
  1  4  1  0  0  0  0
  1 11  1  0  0  0  0
  2  6  1  0  0  0  0
  2 11  1  0  0  0  0
  3 19  3  0  0  0  0
  4  6  2  0  0  0  0
  4  7  1  0  0  0  0
  5  7  2  0  0  0  0
  5  8  1  0  0  0  0
  5 10  1  0  0  0  0
  6  9  1  0  0  0  0
  7 20  1  0  0  0  0
  8  9  2  0  0  0  0
  8 21  1  0  0  0  0
  9 22  1  0  0  0  0
 10 12  2  0  0  0  0
 10 23  1  0  0  0  0
 11 24  1  0  0  0  0
 11 25  1  0  0  0  0
 12 13  1  0  0  0  0
 12 19  1  0  0  0  0
 13 14  2  0  0  0  0
 13 15  1  0  0  0  0
 14 16  1  0  0  0  0
 14 26  1  0  0  0  0
 15 17  2  0  0  0  0
 15 27  1  0  0  0  0
 16 18  2  0  0  0  0
 16 28  1  0  0  0  0
 17 18  1  0  0  0  0
 17 29  1  0  0  0  0
 18 30  1  0  0  0  0
M  END
> <PUBCHEM_COMPOUND_CID>
969848

> <PUBCHEM_CONFORMER_RMSD>
0.6

> <PUBCHEM_CONFORMER_DIVERSEORDER>
2
3
5
8
11
10
9
12
4
7
6
1

> <PUBCHEM_MMFF94_PARTIAL_CHARGES>
28
1 -0.36
10 -0.18
11 0.56
12 0.04
13 0.03
14 -0.15
15 -0.15
16 -0.15
17 -0.15
18 -0.15
19 0.49
2 -0.36
20 0.15
21 0.15
22 0.15
23 0.15
26 0.15
27 0.15
28 0.15
29 0.15
3 -0.56
30 0.15
4 0.08
5 0.03
6 0.08
7 -0.15
8 -0.15
9 -0.15

> <PUBCHEM_EFFECTIVE_ROTOR_COUNT>
2.6

> <PUBCHEM_PHARMACOPHORE_FEATURES>
6
1 1 acceptor
1 2 acceptor
1 3 acceptor
5 1 2 4 6 11 rings
6 13 14 15 16 17 18 rings
6 4 5 6 7 8 9 rings

> <PUBCHEM_HEAVY_ATOM_COUNT>
19

> <PUBCHEM_ATOM_DEF_STEREO_COUNT>
0

> <PUBCHEM_ATOM_UDEF_STEREO_COUNT>
0

> <PUBCHEM_BOND_DEF_STEREO_COUNT>
1

> <PUBCHEM_BOND_UDEF_STEREO_COUNT>
0

> <PUBCHEM_ISOTOPIC_ATOM_COUNT>
0

> <PUBCHEM_COMPONENT_COUNT>
1

> <PUBCHEM_CACTVS_TAUTO_COUNT>
1

> <PUBCHEM_CONFORMER_ID>
000ECC7800000002

> <PUBCHEM_MMFF94_ENERGY>
56.7718

> <PUBCHEM_FEATURE_SELFOVERLAP>
30.603

> <PUBCHEM_SHAPE_FINGERPRINT>
10366900 7 16515401871784577472
11128504 68 16226056599727472038
12107183 9 17692818090582147299
12236239 1 17632578257851652896
12346177 29 14404887137768480869
12592029 89 17346607360831028623
128620 24 15140678072660330827
13167823 11 18413106186553749963
13583140 156 17988917920651644625
13675066 3 17704065201049170296
14341114 176 18412550920301953097
14350574 20 18333733499107358314
15375358 24 11887951081760991900
15788980 27 17489868241325315969
15848702 151 18260830405722137453
17834072 33 18412828014179815657
17844677 252 18412270540473681969
1813 80 17095242531700995221
18186145 218 18187635912297569624
18222031 100 16877939481872552087
19141452 34 18260268577193387467
19489759 90 10735876162394882323
200 152 18202002131352678603
20645477 70 18341615884929242194
21033648 29 18187350031507962897
21267235 1 18342184361919686410
23402539 116 16443060586582319727
23557571 272 17386002832315345822
23559900 14 18410568526812676681
3004659 81 18335424530922031898
314173 85 17094958849248289757
3268164 11 16370714916308585631
3286 77 18408321111807113940
4073 2 18115031912515249658
42 15 18413390938558618497
4214541 1 18412826872140651185
465052 167 17846503685712110007
5104073 3 18342175583196425275
5385378 56 15338576946304737679
542803 24 17530687610464269529
7495541 125 18186802504459614312
77779 3 18412263956372797449
8272917 22 18060146388264455719

> <PUBCHEM_SHAPE_MULTIPOLES>
374.29
12.15
1.49
1.18
1.35
0.02
-1.08
2.29
2.31
-0.38
0.21
0.43
-0.15
0.17

> <PUBCHEM_SHAPE_SELFOVERLAP>
827.938

> <PUBCHEM_SHAPE_VOLUME>
198.2

> <PUBCHEM_COORDINATE_TYPE>
2
5
10

$$$$
