20112121
  -OEChem-10312420262D

 43 42  0     0  0  0  0  0  0999 V2000
    3.5000    1.5981    0.0000 F   0  0  0  0  0  0  0  0  0  0  0  0
   10.0000   -3.4641    0.0000 F   0  0  0  0  0  0  0  0  0  0  0  0
    7.5000    0.8660    0.0000 O   0  0  0  0  0  0  0  0  0  0  0  0
    2.0000    3.4641    0.0000 O   0  5  0  0  0  0  0  0  0  0  0  0
    4.3660    4.0981    0.0000 O   0  5  0  0  0  0  0  0  0  0  0  0
   11.2321   -2.5981    0.0000 O   0  5  0  0  0  0  0  0  0  0  0  0
    7.7680   -2.5981    0.0000 O   0  5  0  0  0  0  0  0  0  0  0  0
    2.0000    1.7320    0.0000 O   0  0  0  0  0  0  0  0  0  0  0  0
    2.6340    4.0981    0.0000 O   0  0  0  0  0  0  0  0  0  0  0  0
   10.3660   -1.0981    0.0000 O   0  0  0  0  0  0  0  0  0  0  0  0
    8.6340   -4.0981    0.0000 O   0  0  0  0  0  0  0  0  0  0  0  0
    6.0000    3.4641    0.0000 O   0  5  0  0  0  0  0  0  0  0  0  0
    9.0000    1.7320    0.0000 O   0  5  0  0  0  0  0  0  0  0  0  0
    7.5000    2.5981    0.0000 O   0  0  0  0  0  0  0  0  0  0  0  0
   10.5000    0.8660    0.0000 O   0  0  0  0  0  0  0  0  0  0  0  0
    6.0000    1.7320    0.0000 N   0  0  0  0  0  0  0  0  0  0  0  0
    9.0000    0.0000    0.0000 N   0  0  0  0  0  0  0  0  0  0  0  0
    2.5000    2.5981    0.0000 N   0  3  0  0  0  0  0  0  0  0  0  0
    3.5000    3.5981    0.0000 N   0  3  0  0  0  0  0  0  0  0  0  0
   10.3660   -2.0981    0.0000 N   0  3  0  0  0  0  0  0  0  0  0  0
    8.6340   -3.0981    0.0000 N   0  3  0  0  0  0  0  0  0  0  0  0
    6.5000    2.5981    0.0000 N   0  3  0  0  0  0  0  0  0  0  0  0
    9.5000    0.8660    0.0000 N   0  3  0  0  0  0  0  0  0  0  0  0
    4.5000    2.5981    0.0000 C   0  0  0  0  0  0  0  0  0  0  0  0
    9.0000   -1.7320    0.0000 C   0  0  0  0  0  0  0  0  0  0  0  0
    5.0000    1.7320    0.0000 C   0  0  0  0  0  0  0  0  0  0  0  0
    9.5000   -0.8660    0.0000 C   0  0  0  0  0  0  0  0  0  0  0  0
    3.5000    2.5981    0.0000 C   0  0  0  0  0  0  0  0  0  0  0  0
    9.5000   -2.5981    0.0000 C   0  0  0  0  0  0  0  0  0  0  0  0
    6.5000    0.8660    0.0000 C   0  0  0  0  0  0  0  0  0  0  0  0
    8.0000    0.0000    0.0000 C   0  0  0  0  0  0  0  0  0  0  0  0
    5.0826    2.8101    0.0000 H   0  0  0  0  0  0  0  0  0  0  0  0
    4.3923    3.2087    0.0000 H   0  0  0  0  0  0  0  0  0  0  0  0
    8.5250   -1.3335    0.0000 H   0  0  0  0  0  0  0  0  0  0  0  0
    8.5250   -2.1306    0.0000 H   0  0  0  0  0  0  0  0  0  0  0  0
    4.4174    1.5200    0.0000 H   0  0  0  0  0  0  0  0  0  0  0  0
    5.1077    1.1215    0.0000 H   0  0  0  0  0  0  0  0  0  0  0  0
    9.9750   -1.2646    0.0000 H   0  0  0  0  0  0  0  0  0  0  0  0
    9.9750   -0.4675    0.0000 H   0  0  0  0  0  0  0  0  0  0  0  0
    5.9174    0.6540    0.0000 H   0  0  0  0  0  0  0  0  0  0  0  0
    6.6077    0.2554    0.0000 H   0  0  0  0  0  0  0  0  0  0  0  0
    7.4174   -0.2121    0.0000 H   0  0  0  0  0  0  0  0  0  0  0  0
    8.1077   -0.6106    0.0000 H   0  0  0  0  0  0  0  0  0  0  0  0
  1 28  1  0  0  0  0
  2 29  1  0  0  0  0
  3 30  1  0  0  0  0
  3 31  1  0  0  0  0
  4 18  1  0  0  0  0
  5 19  1  0  0  0  0
  6 20  1  0  0  0  0
  7 21  1  0  0  0  0
  8 18  2  0  0  0  0
  9 19  2  0  0  0  0
 10 20  2  0  0  0  0
 11 21  2  0  0  0  0
 12 22  1  0  0  0  0
 13 23  1  0  0  0  0
 14 22  2  0  0  0  0
 15 23  2  0  0  0  0
 16 22  1  0  0  0  0
 16 26  1  0  0  0  0
 16 30  1  0  0  0  0
 17 23  1  0  0  0  0
 17 27  1  0  0  0  0
 17 31  1  0  0  0  0
 18 28  1  0  0  0  0
 19 28  1  0  0  0  0
 20 29  1  0  0  0  0
 21 29  1  0  0  0  0
 24 26  1  0  0  0  0
 24 28  1  0  0  0  0
 24 32  1  0  0  0  0
 24 33  1  0  0  0  0
 25 27  1  0  0  0  0
 25 29  1  0  0  0  0
 25 34  1  0  0  0  0
 25 35  1  0  0  0  0
 26 36  1  0  0  0  0
 26 37  1  0  0  0  0
 27 38  1  0  0  0  0
 27 39  1  0  0  0  0
 30 40  1  0  0  0  0
 30 41  1  0  0  0  0
 31 42  1  0  0  0  0
 31 43  1  0  0  0  0
M  CHG  8   4  -1   5  -1   6  -1   7  -1  12  -1  13  -1  18   1  19   1
M  CHG  4  20   1  21   1  22   1  23   1
M  END
> <PUBCHEM_COMPOUND_CID>
20112121

> <PUBCHEM_COMPOUND_CANONICALIZED>
1

> <PUBCHEM_CACTVS_COMPLEXITY>
630

> <PUBCHEM_CACTVS_HBOND_ACCEPTOR>
17

> <PUBCHEM_CACTVS_HBOND_DONOR>
0

> <PUBCHEM_CACTVS_ROTATABLE_BOND>
10

> <PUBCHEM_CACTVS_SUBSKEYS>
AAADccBz/YAAAAAAAAAAAAAAAAAAAAAAAAAAAAAAAAAAAAAAAAAAHwAMAAAACADBAAYBAAIQRAABAAAAAwAAAAAAAAAwAAAIAAAAAAAAQAAEAAAAAAAAAAAAAAAAAAAAAAAAAAAAAAAAAAAAAAAAAAAAAA==

> <PUBCHEM_IUPAC_OPENEYE_NAME>
N-(3-fluoro-3,3-dinitro-propyl)-N-[[(3-fluoro-3,3-dinitro-propyl)-nitro-amino]methoxymethyl]nitramide

> <PUBCHEM_IUPAC_CAS_NAME>
N-(3-fluoro-3,3-dinitropropyl)-N-[[(3-fluoro-3,3-dinitropropyl)-nitroamino]methoxymethyl]nitramide

> <PUBCHEM_IUPAC_NAME_MARKUP>
<I>N</I>-(3-fluoro-3,3-dinitropropyl)-<I>N</I>-[[(3-fluoro-3,3-dinitropropyl)-nitroamino]methoxymethyl]nitramide

> <PUBCHEM_IUPAC_NAME>
N-(3-fluoro-3,3-dinitropropyl)-N-[[(3-fluoro-3,3-dinitropropyl)-nitroamino]methoxymethyl]nitramide

> <PUBCHEM_IUPAC_SYSTEMATIC_NAME>
N-(3-fluoranyl-3,3-dinitro-propyl)-N-[[(3-fluoranyl-3,3-dinitro-propyl)-nitro-amino]methoxymethyl]nitramide

> <PUBCHEM_IUPAC_TRADITIONAL_NAME>
N-(3-fluoro-3,3-dinitro-propyl)-N-[[(3-fluoro-3,3-dinitro-propyl)-nitro-amino]methoxymethyl]nitramide

> <PUBCHEM_IUPAC_INCHI>
InChI=1S/C8H12F2N8O13/c9-7(13(19)20,14(21)22)1-3-11(17(27)28)5-31-6-12(18(29)30)4-2-8(10,15(23)24)16(25)26/h1-6H2

> <PUBCHEM_IUPAC_INCHIKEY>
HHYIITVICIEKLD-UHFFFAOYSA-N

> <PUBCHEM_XLOGP3_AA>
2.2

> <PUBCHEM_EXACT_MASS>
466.04918879

> <PUBCHEM_MOLECULAR_FORMULA>
C8H12F2N8O13

> <PUBCHEM_MOLECULAR_WEIGHT>
466.22

> <PUBCHEM_OPENEYE_CAN_SMILES>
C(CN(COCN(CCC([N+](=O)[O-])([N+](=O)[O-])F)[N+](=O)[O-])[N+](=O)[O-])C([N+](=O)[O-])([N+](=O)[O-])F

> <PUBCHEM_OPENEYE_ISO_SMILES>
C(CN(COCN(CCC([N+](=O)[O-])([N+](=O)[O-])F)[N+](=O)[O-])[N+](=O)[O-])C([N+](=O)[O-])([N+](=O)[O-])F

> <PUBCHEM_CACTVS_TPSA>
291

> <PUBCHEM_MONOISOTOPIC_WEIGHT>
466.04918879

> <PUBCHEM_TOTAL_CHARGE>
0

> <PUBCHEM_HEAVY_ATOM_COUNT>
31

> <PUBCHEM_ATOM_DEF_STEREO_COUNT>
0

> <PUBCHEM_ATOM_UDEF_STEREO_COUNT>
0

> <PUBCHEM_BOND_DEF_STEREO_COUNT>
0

> <PUBCHEM_BOND_UDEF_STEREO_COUNT>
0

> <PUBCHEM_ISOTOPIC_ATOM_COUNT>
0

> <PUBCHEM_COMPONENT_COUNT>
1

> <PUBCHEM_CACTVS_TAUTO_COUNT>
-1

> <PUBCHEM_COORDINATE_TYPE>
1
5
255

$$$$
