137485
  -OEChem-11012401173D

 27 27  0     0  0  0  0  0  0999 V2000
    2.2094   -0.4463    0.1640 O   0  0  0  0  0  0  0  0  0  0  0  0
    2.0403    1.6950   -0.6638 O   0  0  0  0  0  0  0  0  0  0  0  0
   -4.2968   -1.0030    0.1767 O   0  0  0  0  0  0  0  0  0  0  0  0
   -2.0777    0.9057    0.2073 N   0  0  0  0  0  0  0  0  0  0  0  0
    0.0763    0.4641   -0.1045 C   0  0  0  0  0  0  0  0  0  0  0  0
   -0.6522   -0.7471   -0.2027 C   0  0  0  0  0  0  0  0  0  0  0  0
   -0.8299    1.4696    0.1499 C   0  0  0  0  0  0  0  0  0  0  0  0
   -1.9816   -0.4446   -0.0057 C   0  0  0  0  0  0  0  0  0  0  0  0
   -0.0883   -2.0874   -0.4686 C   0  0  0  0  0  0  0  0  0  0  0  0
   -0.6437    2.9205    0.3467 C   0  0  0  0  0  0  0  0  0  0  0  0
    1.4928    0.6567   -0.2374 C   0  0  0  0  0  0  0  0  0  0  0  0
   -3.1098   -1.3227   -0.0079 C   0  0  0  0  0  0  0  0  0  0  0  0
    3.6368   -0.3763    0.0798 C   0  0  0  0  0  0  0  0  0  0  0  0
    4.2242   -1.6840    0.5662 C   0  0  0  0  0  0  0  0  0  0  0  0
   -2.9383    1.4075    0.3801 H   0  0  0  0  0  0  0  0  0  0  0  0
    0.3246   -2.5179    0.4494 H   0  0  0  0  0  0  0  0  0  0  0  0
   -0.8350   -2.7840   -0.8599 H   0  0  0  0  0  0  0  0  0  0  0  0
    0.7077   -2.0402   -1.2193 H   0  0  0  0  0  0  0  0  0  0  0  0
   -0.3595    3.4007   -0.5951 H   0  0  0  0  0  0  0  0  0  0  0  0
   -1.5581    3.4034    0.7072 H   0  0  0  0  0  0  0  0  0  0  0  0
    0.1436    3.1137    1.0827 H   0  0  0  0  0  0  0  0  0  0  0  0
   -2.8926   -2.3888   -0.1849 H   0  0  0  0  0  0  0  0  0  0  0  0
    3.9302   -0.2004   -0.9608 H   0  0  0  0  0  0  0  0  0  0  0  0
    3.9970    0.4488    0.7038 H   0  0  0  0  0  0  0  0  0  0  0  0
    5.3163   -1.6659    0.5142 H   0  0  0  0  0  0  0  0  0  0  0  0
    3.9222   -1.8810    1.6001 H   0  0  0  0  0  0  0  0  0  0  0  0
    3.8547   -2.5199   -0.0371 H   0  0  0  0  0  0  0  0  0  0  0  0
  1 11  1  0  0  0  0
  1 13  1  0  0  0  0
  2 11  2  0  0  0  0
  3 12  2  0  0  0  0
  4  7  1  0  0  0  0
  4  8  1  0  0  0  0
  4 15  1  0  0  0  0
  5  6  1  0  0  0  0
  5  7  2  0  0  0  0
  5 11  1  0  0  0  0
  6  8  2  0  0  0  0
  6  9  1  0  0  0  0
  7 10  1  0  0  0  0
  8 12  1  0  0  0  0
  9 16  1  0  0  0  0
  9 17  1  0  0  0  0
  9 18  1  0  0  0  0
 10 19  1  0  0  0  0
 10 20  1  0  0  0  0
 10 21  1  0  0  0  0
 12 22  1  0  0  0  0
 13 14  1  0  0  0  0
 13 23  1  0  0  0  0
 13 24  1  0  0  0  0
 14 25  1  0  0  0  0
 14 26  1  0  0  0  0
 14 27  1  0  0  0  0
M  END
> <PUBCHEM_COMPOUND_CID>
137485

> <PUBCHEM_CONFORMER_RMSD>
0.6

> <PUBCHEM_CONFORMER_DIVERSEORDER>
2
18
6
23
15
21
3
17
19
1
8
9
20
7
11
14
13
22
12
5
10
4
16

> <PUBCHEM_MMFF94_PARTIAL_CHARGES>
15
1 -0.43
10 0.18
11 0.81
12 0.59
13 0.28
15 0.27
2 -0.57
22 0.06
3 -0.57
4 0.03
5 -0.09
6 -0.18
7 -0.33
8 -0.24
9 0.18

> <PUBCHEM_EFFECTIVE_ROTOR_COUNT>
4

> <PUBCHEM_PHARMACOPHORE_FEATURES>
5
1 2 acceptor
1 3 acceptor
1 4 cation
1 4 donor
5 4 5 6 7 8 rings

> <PUBCHEM_HEAVY_ATOM_COUNT>
14

> <PUBCHEM_ATOM_DEF_STEREO_COUNT>
0

> <PUBCHEM_ATOM_UDEF_STEREO_COUNT>
0

> <PUBCHEM_BOND_DEF_STEREO_COUNT>
0

> <PUBCHEM_BOND_UDEF_STEREO_COUNT>
0

> <PUBCHEM_ISOTOPIC_ATOM_COUNT>
0

> <PUBCHEM_COMPONENT_COUNT>
1

> <PUBCHEM_CACTVS_TAUTO_COUNT>
5

> <PUBCHEM_CONFORMER_ID>
0002190D00000002

> <PUBCHEM_MMFF94_ENERGY>
15.032

> <PUBCHEM_FEATURE_SELFOVERLAP>
25.372

> <PUBCHEM_SHAPE_FINGERPRINT>
10130415 120 18337110167534477971
10219947 1 18341337802892032967
11769659 78 18335136492580827314
12032990 46 18409732889079748259
13140716 1 18412831265597133769
13380535 76 17980475668272955061
13690532 89 18335417963225933238
15375462 478 18411697686172363982
16945 1 18195820565344034765
17804303 29 18271526399509067002
193761 8 17980205180028172935
19422 9 18188213087905498018
20510252 161 18201436939721753848
20711985 365 18409729547363064012
20871998 184 18201716211179684030
21296965 67 18411415133095564729
21501925 9 18410287038718734322
2334 1 18340210794572612517
23402539 116 18201991123683918679
23463225 33 18410577305166614702
23552423 10 17547289360002279629
23559900 14 18270389504744455152
2748010 2 18412538838432628101
43471831 8 18264486187596432274
53655031 270 18411420592289232843
53812654 25 18201437046700212678
7364860 26 18268711787244490216

> <PUBCHEM_SHAPE_MULTIPOLES>
265.52
6.12
2.5
0.68
2.73
1.25
-0.01
-3.88
1.01
-0.41
0.06
0.15
0
-0.47

> <PUBCHEM_SHAPE_SELFOVERLAP>
547.03

> <PUBCHEM_SHAPE_VOLUME>
154.8

> <PUBCHEM_COORDINATE_TYPE>
2
5
10

$$$$
