6950212
  -OEChem-11012401143D

 20 19  0     1  0  0  0  0  0999 V2000
   -2.7098   -0.1583    1.0605 O   0  0  0  0  0  0  0  0  0  0  0  0
    2.8666   -0.3866   -0.8466 O   0  0  0  0  0  0  0  0  0  0  0  0
   -2.3825   -0.3151   -1.1772 O   0  0  0  0  0  0  0  0  0  0  0  0
    2.2387    0.8065    0.9760 O   0  0  0  0  0  0  0  0  0  0  0  0
   -0.5590    0.4942    0.2228 C   0  0  1  0  0  0  0  0  0  0  0  0
    0.5517   -0.4781   -0.2255 C   0  0  2  0  0  0  0  0  0  0  0  0
   -0.4031    1.8796   -0.4114 C   0  0  0  0  0  0  0  0  0  0  0  0
    0.4047   -1.8630    0.4119 C   0  0  0  0  0  0  0  0  0  0  0  0
   -1.9582   -0.0344   -0.0634 C   0  0  0  0  0  0  0  0  0  0  0  0
    1.9508    0.0552    0.0529 C   0  0  0  0  0  0  0  0  0  0  0  0
   -0.4784    0.6300    1.3105 H   0  0  0  0  0  0  0  0  0  0  0  0
    0.4678   -0.5976   -1.3148 H   0  0  0  0  0  0  0  0  0  0  0  0
   -0.3771    1.8107   -1.5046 H   0  0  0  0  0  0  0  0  0  0  0  0
    0.5069    2.3865   -0.0791 H   0  0  0  0  0  0  0  0  0  0  0  0
   -1.2507    2.5218   -0.1463 H   0  0  0  0  0  0  0  0  0  0  0  0
    0.4256   -1.7951    1.5051 H   0  0  0  0  0  0  0  0  0  0  0  0
    1.2265   -2.5213    0.1093 H   0  0  0  0  0  0  0  0  0  0  0  0
   -0.5318   -2.3449    0.1148 H   0  0  0  0  0  0  0  0  0  0  0  0
   -3.6094   -0.4959    0.8633 H   0  0  0  0  0  0  0  0  0  0  0  0
    3.7626   -0.0341   -0.6593 H   0  0  0  0  0  0  0  0  0  0  0  0
  1  9  1  0  0  0  0
  1 19  1  0  0  0  0
  2 10  1  0  0  0  0
  2 20  1  0  0  0  0
  3  9  2  0  0  0  0
  4 10  2  0  0  0  0
  5  6  1  0  0  0  0
  5  7  1  0  0  0  0
  5  9  1  0  0  0  0
  5 11  1  0  0  0  0
  6  8  1  0  0  0  0
  6 10  1  0  0  0  0
  6 12  1  0  0  0  0
  7 13  1  0  0  0  0
  7 14  1  0  0  0  0
  7 15  1  0  0  0  0
  8 16  1  0  0  0  0
  8 17  1  0  0  0  0
  8 18  1  0  0  0  0
M  END
> <PUBCHEM_COMPOUND_CID>
6950212

> <PUBCHEM_CONFORMER_RMSD>
0.6

> <PUBCHEM_CONFORMER_DIVERSEORDER>
1
4
5
11
2
7
8
6
3
10
9

> <PUBCHEM_MMFF94_PARTIAL_CHARGES>
10
1 -0.65
10 0.66
19 0.5
2 -0.65
20 0.5
3 -0.57
4 -0.57
5 0.06
6 0.06
9 0.66

> <PUBCHEM_EFFECTIVE_ROTOR_COUNT>
3

> <PUBCHEM_PHARMACOPHORE_FEATURES>
8
1 1 acceptor
1 2 acceptor
1 3 acceptor
1 4 acceptor
1 7 hydrophobe
1 8 hydrophobe
3 1 3 9 anion
3 2 4 10 anion

> <PUBCHEM_HEAVY_ATOM_COUNT>
10

> <PUBCHEM_ATOM_DEF_STEREO_COUNT>
2

> <PUBCHEM_ATOM_UDEF_STEREO_COUNT>
0

> <PUBCHEM_BOND_DEF_STEREO_COUNT>
0

> <PUBCHEM_BOND_UDEF_STEREO_COUNT>
0

> <PUBCHEM_ISOTOPIC_ATOM_COUNT>
0

> <PUBCHEM_COMPONENT_COUNT>
1

> <PUBCHEM_CACTVS_TAUTO_COUNT>
1

> <PUBCHEM_CONFORMER_ID>
006A0D4400000001

> <PUBCHEM_MMFF94_ENERGY>
14.2456

> <PUBCHEM_FEATURE_SELFOVERLAP>
40.716

> <PUBCHEM_SHAPE_FINGERPRINT>
10857977 72 18260831535414593937
12897270 3 18336823108857559517
12932764 1 18272367533924395110
16945 1 18335416872187844746
21040471 1 18335136514140189794
23235685 24 18187375319446544618
23235687 12 17275105007327366972
23552423 10 17898290493974556458
24536 1 17532376357102854517
29004967 10 18260833691577847193
3248919 1 16343694417897507108
5084963 1 18343584019079356876

> <PUBCHEM_SHAPE_MULTIPOLES>
182.32
3.66
1.5
0.96
0.12
0.05
-0.01
-0.16
-0.11
0.08
0.05
-0.14
-0.01
0.2

> <PUBCHEM_SHAPE_SELFOVERLAP>
348.663

> <PUBCHEM_SHAPE_VOLUME>
111.8

> <PUBCHEM_COORDINATE_TYPE>
2
5
10

$$$$
