138793
  -OEChem-11012400523D

 45 47  0     0  0  0  0  0  0999 V2000
    0.7291   -0.3792    0.0080 C   0  0  0  0  0  0  0  0  0  0  0  0
    2.2084   -0.4994    0.0041 C   0  0  0  0  0  0  0  0  0  0  0  0
    0.0475    0.9423    0.0043 C   0  0  0  0  0  0  0  0  0  0  0  0
   -0.0544   -1.4936   -0.0040 C   0  0  0  0  0  0  0  0  0  0  0  0
   -1.5080   -1.5468   -0.0022 C   0  0  0  0  0  0  0  0  0  0  0  0
    2.8775   -0.5482    1.2103 C   0  0  0  0  0  0  0  0  0  0  0  0
   -0.2608    1.5278   -1.2053 C   0  0  0  0  0  0  0  0  0  0  0  0
    2.8706   -0.5580   -1.2057 C   0  0  0  0  0  0  0  0  0  0  0  0
   -0.2529    1.5391    1.2106 C   0  0  0  0  0  0  0  0  0  0  0  0
    4.9596   -0.7213   -0.0030 C   0  0  0  0  0  0  0  0  0  0  0  0
   -1.2148    3.3937   -0.0029 C   0  0  0  0  0  0  0  0  0  0  0  0
    4.2678   -0.6602    1.2068 C   0  0  0  0  0  0  0  0  0  0  0  0
   -0.8993    2.7680   -1.2090 C   0  0  0  0  0  0  0  0  0  0  0  0
    4.2610   -0.6701   -1.2093 C   0  0  0  0  0  0  0  0  0  0  0  0
   -0.8915    2.7792    1.2070 C   0  0  0  0  0  0  0  0  0  0  0  0
   -2.2030   -1.5767    1.2067 C   0  0  0  0  0  0  0  0  0  0  0  0
   -2.2067   -1.5689   -1.2093 C   0  0  0  0  0  0  0  0  0  0  0  0
   -4.2958   -1.6507    0.0015 C   0  0  0  0  0  0  0  0  0  0  0  0
   -3.5970   -1.6288    1.2085 C   0  0  0  0  0  0  0  0  0  0  0  0
   -3.6006   -1.6209   -1.2075 C   0  0  0  0  0  0  0  0  0  0  0  0
    6.4462   -0.8404   -0.0065 C   0  0  0  0  0  0  0  0  0  0  0  0
   -1.8969    4.7200   -0.0070 C   0  0  0  0  0  0  0  0  0  0  0  0
   -5.7861   -1.7071    0.0038 C   0  0  0  0  0  0  0  0  0  0  0  0
    0.4205   -2.4740   -0.0101 H   0  0  0  0  0  0  0  0  0  0  0  0
    2.3493   -0.5020    2.1586 H   0  0  0  0  0  0  0  0  0  0  0  0
   -0.0196    1.0504   -2.1509 H   0  0  0  0  0  0  0  0  0  0  0  0
    2.3370   -0.5193   -2.1513 H   0  0  0  0  0  0  0  0  0  0  0  0
   -0.0059    1.0700    2.1587 H   0  0  0  0  0  0  0  0  0  0  0  0
    4.8010   -0.6973    2.1531 H   0  0  0  0  0  0  0  0  0  0  0  0
   -1.1443    3.2374   -2.1582 H   0  0  0  0  0  0  0  0  0  0  0  0
    4.7887   -0.7149   -2.1583 H   0  0  0  0  0  0  0  0  0  0  0  0
   -1.1304    3.2574    2.1532 H   0  0  0  0  0  0  0  0  0  0  0  0
   -1.6728   -1.5607    2.1559 H   0  0  0  0  0  0  0  0  0  0  0  0
   -1.6791   -1.5468   -2.1599 H   0  0  0  0  0  0  0  0  0  0  0  0
   -4.1273   -1.6501    2.1569 H   0  0  0  0  0  0  0  0  0  0  0  0
   -4.1337   -1.6359   -2.1545 H   0  0  0  0  0  0  0  0  0  0  0  0
    6.9027    0.1543   -0.0084 H   0  0  0  0  0  0  0  0  0  0  0  0
    6.8008   -1.3878    0.8736 H   0  0  0  0  0  0  0  0  0  0  0  0
    6.7968   -1.3892   -0.8872 H   0  0  0  0  0  0  0  0  0  0  0  0
   -2.5432    4.8290   -0.8847 H   0  0  0  0  0  0  0  0  0  0  0  0
   -2.5336    4.8397    0.8762 H   0  0  0  0  0  0  0  0  0  0  0  0
   -1.1546    5.5242   -0.0158 H   0  0  0  0  0  0  0  0  0  0  0  0
   -6.1633   -2.2326   -0.8800 H   0  0  0  0  0  0  0  0  0  0  0  0
   -6.1597   -2.2467    0.8807 H   0  0  0  0  0  0  0  0  0  0  0  0
   -6.2002   -0.6939    0.0126 H   0  0  0  0  0  0  0  0  0  0  0  0
  1  2  1  0  0  0  0
  1  3  1  0  0  0  0
  1  4  2  0  0  0  0
  2  6  2  0  0  0  0
  2  8  1  0  0  0  0
  3  7  2  0  0  0  0
  3  9  1  0  0  0  0
  4  5  1  0  0  0  0
  4 24  1  0  0  0  0
  5 16  2  0  0  0  0
  5 17  1  0  0  0  0
  6 12  1  0  0  0  0
  6 25  1  0  0  0  0
  7 13  1  0  0  0  0
  7 26  1  0  0  0  0
  8 14  2  0  0  0  0
  8 27  1  0  0  0  0
  9 15  2  0  0  0  0
  9 28  1  0  0  0  0
 10 12  2  0  0  0  0
 10 14  1  0  0  0  0
 10 21  1  0  0  0  0
 11 13  2  0  0  0  0
 11 15  1  0  0  0  0
 11 22  1  0  0  0  0
 12 29  1  0  0  0  0
 13 30  1  0  0  0  0
 14 31  1  0  0  0  0
 15 32  1  0  0  0  0
 16 19  1  0  0  0  0
 16 33  1  0  0  0  0
 17 20  2  0  0  0  0
 17 34  1  0  0  0  0
 18 19  2  0  0  0  0
 18 20  1  0  0  0  0
 18 23  1  0  0  0  0
 19 35  1  0  0  0  0
 20 36  1  0  0  0  0
 21 37  1  0  0  0  0
 21 38  1  0  0  0  0
 21 39  1  0  0  0  0
 22 40  1  0  0  0  0
 22 41  1  0  0  0  0
 22 42  1  0  0  0  0
 23 43  1  0  0  0  0
 23 44  1  0  0  0  0
 23 45  1  0  0  0  0
M  END
> <PUBCHEM_COMPOUND_CID>
138793

> <PUBCHEM_CONFORMER_RMSD>
0.6

> <PUBCHEM_CONFORMER_DIVERSEORDER>
1
2

> <PUBCHEM_MMFF94_PARTIAL_CHARGES>
36
1 -0.06
10 -0.14
11 -0.14
12 -0.15
13 -0.15
14 -0.15
15 -0.15
16 -0.15
17 -0.15
18 -0.14
19 -0.15
2 0.03
20 -0.15
21 0.14
22 0.14
23 0.14
24 0.15
25 0.15
26 0.15
27 0.15
28 0.15
29 0.15
3 0.03
30 0.15
31 0.15
32 0.15
33 0.15
34 0.15
35 0.15
36 0.15
4 -0.18
5 0.03
6 -0.15
7 -0.15
8 -0.15
9 -0.15

> <PUBCHEM_EFFECTIVE_ROTOR_COUNT>
3

> <PUBCHEM_PHARMACOPHORE_FEATURES>
3
6 2 6 8 10 12 14 rings
6 3 7 9 11 13 15 rings
6 5 16 17 18 19 20 rings

> <PUBCHEM_HEAVY_ATOM_COUNT>
23

> <PUBCHEM_ATOM_DEF_STEREO_COUNT>
0

> <PUBCHEM_ATOM_UDEF_STEREO_COUNT>
0

> <PUBCHEM_BOND_DEF_STEREO_COUNT>
0

> <PUBCHEM_BOND_UDEF_STEREO_COUNT>
0

> <PUBCHEM_ISOTOPIC_ATOM_COUNT>
0

> <PUBCHEM_COMPONENT_COUNT>
1

> <PUBCHEM_CACTVS_TAUTO_COUNT>
1

> <PUBCHEM_CONFORMER_ID>
00021E2900000001

> <PUBCHEM_MMFF94_ENERGY>
80.0588

> <PUBCHEM_FEATURE_SELFOVERLAP>
15.223

> <PUBCHEM_SHAPE_FINGERPRINT>
104564 63 18410012092081848463
10764073 3 15479336355682299501
11101153 10 18262810674421830628
11265709 11 18409451418260627497
12516196 113 18337952406126276843
12553582 1 18337942484767809682
12788726 201 18334006164547138666
13004483 165 18411697724790133172
13134695 92 18266738180893934429
13140716 1 18409450301796354297
133893 2 17616792762685305423
13681431 1 18123189270938702273
13899415 180 18198045058050993071
13911987 19 18043266806109258502
14028597 1 17749667390203543643
14347332 77 18339360752395365958
14955137 171 18267029534222170323
15131766 46 15983109717851373920
15238133 3 18261685817938287383
15420108 30 17339827987104046408
15849732 13 17917712439910342295
16752209 62 18334847295453742450
17357779 13 18271513265113824239
17980427 23 14764357067434061851
1813 80 18270973439079935734
18222031 100 18342176725536925391
200 152 17385441033925239090
20600515 1 18198642088163894646
21033648 29 17561357392616715395
21041028 32 18337394937104681893
21285901 2 18059871544464147014
21304303 282 17613117855312176916
2132832 1 18259990388114689076
21641784 216 18261126161808239780
23175994 123 18261956353274839111
23352939 185 17385728027438741902
23402539 116 18412825797966674102
23419403 2 17488441096697107761
23557571 272 18413388718324387582
23558518 356 18044379318428868554
23845131 108 17552088294609016977
266924 87 18266454317467572855
283562 15 18335419037004765258
3027735 51 18337391522004827834
314173 85 18342747337775137338
4409770 3 18340195285672151141
469060 322 18261684691965869969
5171179 24 17987498455240676241
5969126 39 18341607118668505996
59755656 520 17977100163417943652
68521 5 18410573972271856521
7164475 11 18335985264324019494
7226269 152 18335135358967937077
7495541 125 17896606283233321571
81228 2 18337117773705248880
9658208 31 17910125607250748388
9981440 41 17197089091502422474

> <PUBCHEM_SHAPE_MULTIPOLES>
473.33
10.23
4.02
1.38
8.8
6.96
0
-9.15
-0.01
-5.22
0
0.02
-0.01
0.01

> <PUBCHEM_SHAPE_SELFOVERLAP>
1031.219

> <PUBCHEM_SHAPE_VOLUME>
241.7

> <PUBCHEM_COORDINATE_TYPE>
2
5
10

$$$$
