65664
  -OEChem-11012400323D

 55 58  0     1  0  0  0  0  0999 V2000
   -2.9985    0.4318    1.0491 O   0  0  0  0  0  0  0  0  0  0  0  0
   -1.5284    1.5515   -1.1927 O   0  0  0  0  0  0  0  0  0  0  0  0
   -0.2354    1.4421    0.7402 O   0  0  0  0  0  0  0  0  0  0  0  0
   -2.9589    1.8399    0.6641 O   0  0  0  0  0  0  0  0  0  0  0  0
    1.5954    0.0167    1.1841 O   0  0  0  0  0  0  0  0  0  0  0  0
    2.4369    2.0238    0.4211 O   0  0  0  0  0  0  0  0  0  0  0  0
    6.9088    0.5363   -1.6431 O   0  0  0  0  0  0  0  0  0  0  0  0
    5.8910   -1.3676   -0.9348 O   0  0  0  0  0  0  0  0  0  0  0  0
   -1.9461   -0.3024    0.3683 C   0  0  2  0  0  0  0  0  0  0  0  0
   -2.7088   -1.1792   -0.6768 C   0  0  2  0  0  0  0  0  0  0  0  0
   -1.2774   -1.1786    1.4639 C   0  0  1  0  0  0  0  0  0  0  0  0
   -1.8429   -2.3398   -1.2339 C   0  0  1  0  0  0  0  0  0  0  0  0
   -0.9050    0.6606   -0.2573 C   0  0  1  0  0  0  0  0  0  0  0  0
   -0.4432   -2.3223    0.8663 C   0  0  0  0  0  0  0  0  0  0  0  0
   -0.4860   -0.2767    2.4505 C   0  0  2  0  0  0  0  0  0  0  0  0
   -3.3422   -0.3668   -1.8304 C   0  0  0  0  0  0  0  0  0  0  0  0
   -1.2629   -3.1756   -0.0895 C   0  0  0  0  0  0  0  0  0  0  0  0
   -2.8449    1.9080   -0.7603 C   0  0  2  0  0  0  0  0  0  0  0  0
   -3.8866    1.0161   -1.4596 C   0  0  0  0  0  0  0  0  0  0  0  0
    0.4651    0.6888    1.7251 C   0  0  2  0  0  0  0  0  0  0  0  0
   -2.6237   -3.2640   -2.1764 C   0  0  0  0  0  0  0  0  0  0  0  0
    0.2343   -1.0665    3.5452 C   0  0  0  0  0  0  0  0  0  0  0  0
   -3.0645    3.3718   -1.1353 C   0  0  0  0  0  0  0  0  0  0  0  0
    2.5163    0.8102    0.5507 C   0  0  0  0  0  0  0  0  0  0  0  0
    3.6457   -0.0556    0.0350 C   0  0  0  0  0  0  0  0  0  0  0  0
    4.7675    0.7474   -0.6127 C   0  0  0  0  0  0  0  0  0  0  0  0
    5.8945   -0.1499   -1.0611 C   0  0  0  0  0  0  0  0  0  0  0  0
   -3.5571   -1.6333   -0.1404 H   0  0  0  0  0  0  0  0  0  0  0  0
   -2.0798   -1.6465    2.0548 H   0  0  0  0  0  0  0  0  0  0  0  0
   -1.0079   -1.9162   -1.8073 H   0  0  0  0  0  0  0  0  0  0  0  0
   -0.1450    0.1106   -0.8216 H   0  0  0  0  0  0  0  0  0  0  0  0
   -0.0674   -2.9742    1.6625 H   0  0  0  0  0  0  0  0  0  0  0  0
    0.4310   -1.9420    0.3299 H   0  0  0  0  0  0  0  0  0  0  0  0
   -1.2368    0.3480    2.9562 H   0  0  0  0  0  0  0  0  0  0  0  0
   -4.1662   -0.9444   -2.2681 H   0  0  0  0  0  0  0  0  0  0  0  0
   -2.6062   -0.2424   -2.6361 H   0  0  0  0  0  0  0  0  0  0  0  0
   -0.6229   -3.9698   -0.4933 H   0  0  0  0  0  0  0  0  0  0  0  0
   -2.0711   -3.6719    0.4631 H   0  0  0  0  0  0  0  0  0  0  0  0
   -4.2061    1.4836   -2.4000 H   0  0  0  0  0  0  0  0  0  0  0  0
   -4.7859    0.9144   -0.8401 H   0  0  0  0  0  0  0  0  0  0  0  0
    0.8352    1.4082    2.4669 H   0  0  0  0  0  0  0  0  0  0  0  0
   -3.5232   -3.6574   -1.6910 H   0  0  0  0  0  0  0  0  0  0  0  0
   -2.9268   -2.7426   -3.0894 H   0  0  0  0  0  0  0  0  0  0  0  0
   -2.0068   -4.1152   -2.4850 H   0  0  0  0  0  0  0  0  0  0  0  0
    1.0672   -1.6578    3.1530 H   0  0  0  0  0  0  0  0  0  0  0  0
    0.6435   -0.3848    4.2988 H   0  0  0  0  0  0  0  0  0  0  0  0
   -0.4587   -1.7452    4.0532 H   0  0  0  0  0  0  0  0  0  0  0  0
   -2.3313    4.0099   -0.6278 H   0  0  0  0  0  0  0  0  0  0  0  0
   -2.9402    3.5338   -2.2113 H   0  0  0  0  0  0  0  0  0  0  0  0
   -4.0587    3.7159   -0.8309 H   0  0  0  0  0  0  0  0  0  0  0  0
    3.2254   -0.7614   -0.6911 H   0  0  0  0  0  0  0  0  0  0  0  0
    4.0436   -0.6269    0.8824 H   0  0  0  0  0  0  0  0  0  0  0  0
    5.1693    1.4743    0.1018 H   0  0  0  0  0  0  0  0  0  0  0  0
    4.3852    1.2883   -1.4854 H   0  0  0  0  0  0  0  0  0  0  0  0
    7.6307   -0.0582   -1.9395 H   0  0  0  0  0  0  0  0  0  0  0  0
  1  4  1  0  0  0  0
  1  9  1  0  0  0  0
  2 13  1  0  0  0  0
  2 18  1  0  0  0  0
  3 13  1  0  0  0  0
  3 20  1  0  0  0  0
  4 18  1  0  0  0  0
  5 20  1  0  0  0  0
  5 24  1  0  0  0  0
  6 24  2  0  0  0  0
  7 27  1  0  0  0  0
  7 55  1  0  0  0  0
  8 27  2  0  0  0  0
  9 10  1  0  0  0  0
  9 11  1  0  0  0  0
  9 13  1  0  0  0  0
 10 12  1  0  0  0  0
 10 16  1  0  0  0  0
 10 28  1  0  0  0  0
 11 14  1  0  0  0  0
 11 15  1  0  0  0  0
 11 29  1  0  0  0  0
 12 17  1  0  0  0  0
 12 21  1  0  0  0  0
 12 30  1  0  0  0  0
 13 31  1  0  0  0  0
 14 17  1  0  0  0  0
 14 32  1  0  0  0  0
 14 33  1  0  0  0  0
 15 20  1  0  0  0  0
 15 22  1  0  0  0  0
 15 34  1  0  0  0  0
 16 19  1  0  0  0  0
 16 35  1  0  0  0  0
 16 36  1  0  0  0  0
 17 37  1  0  0  0  0
 17 38  1  0  0  0  0
 18 19  1  0  0  0  0
 18 23  1  0  0  0  0
 19 39  1  0  0  0  0
 19 40  1  0  0  0  0
 20 41  1  0  0  0  0
 21 42  1  0  0  0  0
 21 43  1  0  0  0  0
 21 44  1  0  0  0  0
 22 45  1  0  0  0  0
 22 46  1  0  0  0  0
 22 47  1  0  0  0  0
 23 48  1  0  0  0  0
 23 49  1  0  0  0  0
 23 50  1  0  0  0  0
 24 25  1  0  0  0  0
 25 26  1  0  0  0  0
 25 51  1  0  0  0  0
 25 52  1  0  0  0  0
 26 27  1  0  0  0  0
 26 53  1  0  0  0  0
 26 54  1  0  0  0  0
M  END
> <PUBCHEM_COMPOUND_CID>
65664

> <PUBCHEM_CONFORMER_RMSD>
0.8

> <PUBCHEM_CONFORMER_DIVERSEORDER>
1
8
9
11
4
6
10
5
12
3
2
7

> <PUBCHEM_MMFF94_PARTIAL_CHARGES>
17
1 -0.28
13 0.56
18 0.56
2 -0.56
20 0.56
24 0.66
25 0.06
26 0.06
27 0.66
3 -0.56
4 -0.28
5 -0.43
55 0.5
6 -0.57
7 -0.65
8 -0.57
9 0.28

> <PUBCHEM_EFFECTIVE_ROTOR_COUNT>
7.2

> <PUBCHEM_PHARMACOPHORE_FEATURES>
9
1 2 acceptor
1 3 acceptor
1 6 acceptor
1 7 acceptor
1 8 acceptor
3 7 8 27 anion
6 3 9 11 13 15 20 rings
6 9 10 11 12 14 17 rings
9 1 2 4 9 10 13 16 18 19 rings

> <PUBCHEM_HEAVY_ATOM_COUNT>
27

> <PUBCHEM_ATOM_DEF_STEREO_COUNT>
8

> <PUBCHEM_ATOM_UDEF_STEREO_COUNT>
0

> <PUBCHEM_BOND_DEF_STEREO_COUNT>
0

> <PUBCHEM_BOND_UDEF_STEREO_COUNT>
0

> <PUBCHEM_ISOTOPIC_ATOM_COUNT>
0

> <PUBCHEM_COMPONENT_COUNT>
1

> <PUBCHEM_CACTVS_TAUTO_COUNT>
1

> <PUBCHEM_CONFORMER_ID>
0001008000000001

> <PUBCHEM_MMFF94_ENERGY>
81.181

> <PUBCHEM_FEATURE_SELFOVERLAP>
45.865

> <PUBCHEM_SHAPE_FINGERPRINT>
10165383 225 18201729397262435489
10369192 42 15285658572841508230
10730089 88 18270673285390740087
10764073 3 17907623243651413883
107951 10 17676780768503627674
11315181 36 15913333468775815488
11578080 2 15431427327600075871
12363563 72 15410610410994577384
12596602 18 11671771642927973790
12892183 10 8430326765762117608
13761468 95 17606679115937553844
13994607 96 17022904557734094711
14251740 79 18273495692989713118
14713325 29 18187939382065872259
14910302 57 18129652127594027084
14950920 106 9727349096538036782
14955137 171 18120940770630734275
15183329 4 16588023494999303154
15475509 8 18126551556961102647
16752209 62 17980440634804697533
16945 1 17764540544570319163
17780758 139 10807938146126718564
18393751 57 11314323762417328252
20642791 178 17765419955971838883
20693207 138 17988074616771494648
20775530 9 17630038497925196566
21344244 181 17128985504718993199
21756936 100 17385447618104725296
22393880 68 18341325674210253254
22620623 9 18270107032602121743
22907989 373 17896324803338631823
23419403 2 17470770656601415387
23526113 38 17201898513648103920
23557571 272 17909521180607973121
23559900 14 17917706921045834408
2748010 2 16033754979852211553
328310 18 17386012827442793516
3729539 64 17986112915822928742
4015057 19 17418083348089382656
44062 13 18343584057945384350
484985 159 17131288920938171702
5081480 168 15576108760017546954
531348 171 18335425621901585126
53794403 172 16602365240087166005
57527573 199 14146180439697361501
58260988 647 16055739027797484823
633830 44 17313939698133654914
7288768 16 16371013975013216608

> <PUBCHEM_SHAPE_MULTIPOLES>
508.69
9.74
3.18
2.47
23.56
0.6
-1.58
-2.07
8.3
-3.81
1.34
-0.2
1.12
-0.24

> <PUBCHEM_SHAPE_SELFOVERLAP>
1076.36

> <PUBCHEM_SHAPE_VOLUME>
274

> <PUBCHEM_COORDINATE_TYPE>
2
5
10

$$$$
