69101
  -OEChem-11012401113D

 14 14  0     0  0  0  0  0  0999 V2000
    1.6006    2.1589    0.0000 Cl  0  0  0  0  0  0  0  0  0  0  0  0
   -1.6007    2.1588    0.0000 Cl  0  0  0  0  0  0  0  0  0  0  0  0
    2.7580   -0.5679   -0.0004 O   0  0  0  0  0  0  0  0  0  0  0  0
   -2.7580   -0.5679   -0.0002 O   0  0  0  0  0  0  0  0  0  0  0  0
    1.3949   -0.5303    0.0002 C   0  0  0  0  0  0  0  0  0  0  0  0
   -1.3948   -0.5304   -0.0001 C   0  0  0  0  0  0  0  0  0  0  0  0
    0.6975    0.6778    0.0002 C   0  0  0  0  0  0  0  0  0  0  0  0
   -0.6975    0.6777    0.0001 C   0  0  0  0  0  0  0  0  0  0  0  0
    0.6974   -1.7383    0.0002 C   0  0  0  0  0  0  0  0  0  0  0  0
   -0.6974   -1.7384    0.0000 C   0  0  0  0  0  0  0  0  0  0  0  0
    1.2341   -2.6832    0.0000 H   0  0  0  0  0  0  0  0  0  0  0  0
   -1.2265   -2.6878   -0.0001 H   0  0  0  0  0  0  0  0  0  0  0  0
    3.0880    0.3473   -0.0005 H   0  0  0  0  0  0  0  0  0  0  0  0
   -3.0530   -1.4946   -0.0003 H   0  0  0  0  0  0  0  0  0  0  0  0
  1  7  1  0  0  0  0
  2  8  1  0  0  0  0
  3  5  1  0  0  0  0
  3 13  1  0  0  0  0
  4  6  1  0  0  0  0
  4 14  1  0  0  0  0
  5  7  2  0  0  0  0
  5  9  1  0  0  0  0
  6  8  2  0  0  0  0
  6 10  1  0  0  0  0
  7  8  1  0  0  0  0
  9 10  2  0  0  0  0
  9 11  1  0  0  0  0
 10 12  1  0  0  0  0
M  END
> <PUBCHEM_COMPOUND_CID>
69101

> <PUBCHEM_CONFORMER_RMSD>
0.4

> <PUBCHEM_CONFORMER_DIVERSEORDER>
1

> <PUBCHEM_MMFF94_PARTIAL_CHARGES>
14
1 -0.18
10 -0.15
11 0.15
12 0.15
13 0.45
14 0.45
2 -0.18
3 -0.53
4 -0.53
5 0.08
6 0.08
7 0.18
8 0.18
9 -0.15

> <PUBCHEM_EFFECTIVE_ROTOR_COUNT>
0

> <PUBCHEM_PHARMACOPHORE_FEATURES>
3
1 3 donor
1 4 donor
6 5 6 7 8 9 10 rings

> <PUBCHEM_HEAVY_ATOM_COUNT>
10

> <PUBCHEM_ATOM_DEF_STEREO_COUNT>
0

> <PUBCHEM_ATOM_UDEF_STEREO_COUNT>
0

> <PUBCHEM_BOND_DEF_STEREO_COUNT>
0

> <PUBCHEM_BOND_UDEF_STEREO_COUNT>
0

> <PUBCHEM_ISOTOPIC_ATOM_COUNT>
0

> <PUBCHEM_COMPONENT_COUNT>
1

> <PUBCHEM_CACTVS_TAUTO_COUNT>
5

> <PUBCHEM_CONFORMER_ID>
00010DED00000001

> <PUBCHEM_MMFF94_ENERGY>
22.2296

> <PUBCHEM_FEATURE_SELFOVERLAP>
15.223

> <PUBCHEM_SHAPE_FINGERPRINT>
11206711 2 18409450245745131669
16945 1 18410575088958332038
18185500 45 18122344575372733722
193761 8 18410573989446684773
21040471 1 17906171754630579008
23552423 10 18045780349777087438
241688 4 17978794506288048138
2748010 2 18410008857723834213
5084963 1 18131070437084429963
66348 1 18266454313151123109

> <PUBCHEM_SHAPE_MULTIPOLES>
197.8
2.93
2.49
0.61
0
0.86
0
0.15
0
0
0
0
0.03
0

> <PUBCHEM_SHAPE_SELFOVERLAP>
398.446

> <PUBCHEM_SHAPE_VOLUME>
117.3

> <PUBCHEM_COORDINATE_TYPE>
2
5
10

$$$$
