303802
  -OEChem-11012400313D

 29 31  0     0  0  0  0  0  0999 V2000
    2.6807   -1.1815   -0.0678 O   0  0  0  0  0  0  0  0  0  0  0  0
    2.7649    1.1031   -0.0796 O   0  0  0  0  0  0  0  0  0  0  0  0
    0.0489   -1.2535    0.4022 C   0  0  0  0  0  0  0  0  0  0  0  0
   -0.0018    1.2702    0.4586 C   0  0  0  0  0  0  0  0  0  0  0  0
   -2.1502   -0.0419    0.6821 C   0  0  0  0  0  0  0  0  0  0  0  0
   -0.9505    0.0347   -1.5315 C   0  0  0  0  0  0  0  0  0  0  0  0
    0.8255    0.0163    0.8057 C   0  0  0  0  0  0  0  0  0  0  0  0
   -1.3422   -1.2918    1.0666 C   0  0  0  0  0  0  0  0  0  0  0  0
   -0.1484   -1.2189   -1.1283 C   0  0  0  0  0  0  0  0  0  0  0  0
   -1.3866    1.2142    1.1333 C   0  0  0  0  0  0  0  0  0  0  0  0
   -0.2014    1.3000   -1.0705 C   0  0  0  0  0  0  0  0  0  0  0  0
   -2.3265   -0.0073   -0.8455 C   0  0  0  0  0  0  0  0  0  0  0  0
    2.1876    0.0567    0.1746 C   0  0  0  0  0  0  0  0  0  0  0  0
    0.5934   -2.1624    0.6832 H   0  0  0  0  0  0  0  0  0  0  0  0
    0.5214    2.1799    0.7756 H   0  0  0  0  0  0  0  0  0  0  0  0
   -3.1322   -0.0722    1.1671 H   0  0  0  0  0  0  0  0  0  0  0  0
   -1.0822    0.0569   -2.6190 H   0  0  0  0  0  0  0  0  0  0  0  0
    0.9919   -0.0068    1.8911 H   0  0  0  0  0  0  0  0  0  0  0  0
   -1.2281   -1.3406    2.1565 H   0  0  0  0  0  0  0  0  0  0  0  0
   -1.8809   -2.1972    0.7612 H   0  0  0  0  0  0  0  0  0  0  0  0
   -0.6931   -2.1177   -1.4455 H   0  0  0  0  0  0  0  0  0  0  0  0
    0.8016   -1.2389   -1.6720 H   0  0  0  0  0  0  0  0  0  0  0  0
   -1.9624    2.1132    0.8816 H   0  0  0  0  0  0  0  0  0  0  0  0
   -1.2668    1.2070    2.2236 H   0  0  0  0  0  0  0  0  0  0  0  0
    0.7506    1.3845   -1.6052 H   0  0  0  0  0  0  0  0  0  0  0  0
   -0.7815    2.1902   -1.3461 H   0  0  0  0  0  0  0  0  0  0  0  0
   -2.8849   -0.8908   -1.1786 H   0  0  0  0  0  0  0  0  0  0  0  0
   -2.9176    0.8702   -1.1350 H   0  0  0  0  0  0  0  0  0  0  0  0
    3.5696   -1.1477   -0.4812 H   0  0  0  0  0  0  0  0  0  0  0  0
  1 13  1  0  0  0  0
  1 29  1  0  0  0  0
  2 13  2  0  0  0  0
  3  7  1  0  0  0  0
  3  8  1  0  0  0  0
  3  9  1  0  0  0  0
  3 14  1  0  0  0  0
  4  7  1  0  0  0  0
  4 10  1  0  0  0  0
  4 11  1  0  0  0  0
  4 15  1  0  0  0  0
  5  8  1  0  0  0  0
  5 10  1  0  0  0  0
  5 12  1  0  0  0  0
  5 16  1  0  0  0  0
  6  9  1  0  0  0  0
  6 11  1  0  0  0  0
  6 12  1  0  0  0  0
  6 17  1  0  0  0  0
  7 13  1  0  0  0  0
  7 18  1  0  0  0  0
  8 19  1  0  0  0  0
  8 20  1  0  0  0  0
  9 21  1  0  0  0  0
  9 22  1  0  0  0  0
 10 23  1  0  0  0  0
 10 24  1  0  0  0  0
 11 25  1  0  0  0  0
 11 26  1  0  0  0  0
 12 27  1  0  0  0  0
 12 28  1  0  0  0  0
M  END
> <PUBCHEM_COMPOUND_CID>
303802

> <PUBCHEM_CONFORMER_RMSD>
0.6

> <PUBCHEM_CONFORMER_DIVERSEORDER>
1
2

> <PUBCHEM_MMFF94_PARTIAL_CHARGES>
5
1 -0.65
13 0.66
2 -0.57
29 0.5
7 0.06

> <PUBCHEM_EFFECTIVE_ROTOR_COUNT>
2.2

> <PUBCHEM_PHARMACOPHORE_FEATURES>
7
1 1 acceptor
1 2 acceptor
3 1 2 13 anion
6 3 4 5 7 8 10 rings
6 3 4 6 7 9 11 rings
6 3 5 6 8 9 12 rings
6 4 5 6 10 11 12 rings

> <PUBCHEM_HEAVY_ATOM_COUNT>
13

> <PUBCHEM_ATOM_DEF_STEREO_COUNT>
0

> <PUBCHEM_ATOM_UDEF_STEREO_COUNT>
0

> <PUBCHEM_BOND_DEF_STEREO_COUNT>
0

> <PUBCHEM_BOND_UDEF_STEREO_COUNT>
0

> <PUBCHEM_ISOTOPIC_ATOM_COUNT>
0

> <PUBCHEM_COMPONENT_COUNT>
1

> <PUBCHEM_CACTVS_TAUTO_COUNT>
1

> <PUBCHEM_CONFORMER_ID>
0004A2BA00000001

> <PUBCHEM_MMFF94_ENERGY>
29.8332

> <PUBCHEM_FEATURE_SELFOVERLAP>
48.096

> <PUBCHEM_SHAPE_FINGERPRINT>
10702982 57 16916218845738422501
12423570 1 11654495059121730265
12491281 212 17775015543944293601
13024252 1 14056714647397319080
137420 1 10859899751131681797
144361 1 17838309918454918141
14993402 34 17703505588348836397
15076042 46 18129676217907373928
15557651 10 18190996020074704549
15775835 57 17131838655044503768
16945 1 18337957895136211521
2748010 2 18188212099509177530
369184 2 17168133564047707496
5084963 1 18267008488607431178
528886 8 17895739777469547685
68250623 7 17700420174090385559

> <PUBCHEM_SHAPE_MULTIPOLES>
255.8
3.06
1.52
1.36
1.72
0.01
0.25
0
-0.13
0.1
-0.09
-0.59
-0.01
0.01

> <PUBCHEM_SHAPE_SELFOVERLAP>
559.121

> <PUBCHEM_SHAPE_VOLUME>
132.7

> <PUBCHEM_COORDINATE_TYPE>
2
5
10

$$$$
