83360
  -OEChem-11012401103D

 22 23  0     0  0  0  0  0  0999 V2000
   -2.8777    2.3517    0.0062 O   0  0  0  0  0  0  0  0  0  0  0  0
   -3.0396   -2.2633   -0.0108 O   0  0  0  0  0  0  0  0  0  0  0  0
   -0.9180    1.1476    0.0086 N   0  0  0  0  0  0  0  0  0  0  0  0
   -2.9845    0.0486   -0.0029 N   0  0  0  0  0  0  0  0  0  0  0  0
   -0.2529   -0.0577    0.0085 C   0  0  0  0  0  0  0  0  0  0  0  0
    1.2224   -0.0332    0.0037 C   0  0  0  0  0  0  0  0  0  0  0  0
   -0.9240   -1.2192   -0.0013 C   0  0  0  0  0  0  0  0  0  0  0  0
    1.9156   -0.0090   -1.2067 C   0  0  0  0  0  0  0  0  0  0  0  0
    1.9242   -0.0341    1.2092 C   0  0  0  0  0  0  0  0  0  0  0  0
   -2.2998    1.2642    0.0038 C   0  0  0  0  0  0  0  0  0  0  0  0
   -2.4067   -1.2113   -0.0050 C   0  0  0  0  0  0  0  0  0  0  0  0
    3.3102    0.0139   -1.2115 C   0  0  0  0  0  0  0  0  0  0  0  0
    3.3189   -0.0111    1.2043 C   0  0  0  0  0  0  0  0  0  0  0  0
    4.0119    0.0130   -0.0060 C   0  0  0  0  0  0  0  0  0  0  0  0
   -0.3623    1.9985    0.0125 H   0  0  0  0  0  0  0  0  0  0  0  0
   -0.4270   -2.1833   -0.0067 H   0  0  0  0  0  0  0  0  0  0  0  0
    1.3830   -0.0073   -2.1547 H   0  0  0  0  0  0  0  0  0  0  0  0
    1.3983   -0.0521    2.1608 H   0  0  0  0  0  0  0  0  0  0  0  0
   -3.9997    0.0919   -0.0060 H   0  0  0  0  0  0  0  0  0  0  0  0
    3.8499    0.0328   -2.1538 H   0  0  0  0  0  0  0  0  0  0  0  0
    3.8654   -0.0117    2.1428 H   0  0  0  0  0  0  0  0  0  0  0  0
    5.0977    0.0310   -0.0098 H   0  0  0  0  0  0  0  0  0  0  0  0
  1 10  2  0  0  0  0
  2 11  2  0  0  0  0
  3  5  1  0  0  0  0
  3 10  1  0  0  0  0
  3 15  1  0  0  0  0
  4 10  1  0  0  0  0
  4 11  1  0  0  0  0
  4 19  1  0  0  0  0
  5  6  1  0  0  0  0
  5  7  2  0  0  0  0
  6  8  2  0  0  0  0
  6  9  1  0  0  0  0
  7 11  1  0  0  0  0
  7 16  1  0  0  0  0
  8 12  1  0  0  0  0
  8 17  1  0  0  0  0
  9 13  2  0  0  0  0
  9 18  1  0  0  0  0
 12 14  2  0  0  0  0
 12 20  1  0  0  0  0
 13 14  1  0  0  0  0
 13 21  1  0  0  0  0
 14 22  1  0  0  0  0
M  END
> <PUBCHEM_COMPOUND_CID>
83360

> <PUBCHEM_CONFORMER_RMSD>
0.4

> <PUBCHEM_CONFORMER_DIVERSEORDER>
1
2
3

> <PUBCHEM_MMFF94_PARTIAL_CHARGES>
22
1 -0.57
10 0.69
11 0.62
12 -0.15
13 -0.15
14 -0.15
15 0.37
16 0.15
17 0.15
18 0.15
19 0.37
2 -0.57
20 0.15
21 0.15
22 0.15
3 -0.54
4 -0.49
5 0.08
6 0.03
7 -0.14
8 -0.15
9 -0.15

> <PUBCHEM_EFFECTIVE_ROTOR_COUNT>
1

> <PUBCHEM_PHARMACOPHORE_FEATURES>
6
1 1 acceptor
1 2 acceptor
1 3 donor
1 4 donor
6 3 4 5 7 10 11 rings
6 6 8 9 12 13 14 rings

> <PUBCHEM_HEAVY_ATOM_COUNT>
14

> <PUBCHEM_ATOM_DEF_STEREO_COUNT>
0

> <PUBCHEM_ATOM_UDEF_STEREO_COUNT>
0

> <PUBCHEM_BOND_DEF_STEREO_COUNT>
0

> <PUBCHEM_BOND_UDEF_STEREO_COUNT>
0

> <PUBCHEM_ISOTOPIC_ATOM_COUNT>
0

> <PUBCHEM_COMPONENT_COUNT>
1

> <PUBCHEM_CACTVS_TAUTO_COUNT>
6

> <PUBCHEM_CONFORMER_ID>
000145A000000001

> <PUBCHEM_MMFF94_ENERGY>
38.328

> <PUBCHEM_FEATURE_SELFOVERLAP>
30.488

> <PUBCHEM_SHAPE_FINGERPRINT>
10608611 8 18130782369655004720
12236239 1 17676487246169635146
124424 183 17774715356132534698
12500047 106 18340763728598625780
12932764 1 17560798848935365574
13296908 3 17561086908102053158
13380535 21 18269000795055670515
13538477 17 18186517700403253113
13764800 53 18341901740471771833
14144814 61 17385441029392472674
15219456 202 17632576063318458810
15279307 12 18041556949257708843
15653759 3 18131634499724563730
15669948 3 18335420175086371103
15775835 57 18113902606857583136
16752209 62 18335126623004820771
16945 1 18410856568614891491
1741750 31 18269838601699701329
17844478 74 17561089132742040826
18186145 218 17775293711885726904
18522853 266 18337953389953141566
19026448 4 18131351908420190430
19026448 5 18113617885375791330
19049666 15 17702675332447170494
19422 9 18040152916254142546
200 152 16515957150910336634
20279233 1 17775845705319579910
20510252 161 18343304798712472761
20645477 56 18340492170812593561
20715346 28 17703788141372712208
21639500 275 15410596134586556778
22943178 12 17989489615121635246
23402539 116 18341319051312615527
23557571 272 18272938236679167400
23559900 14 18200879453483795022
3248919 1 17457782301709620602
474 4 17024884898999800316
6049 1 17846502560172111752
6333449 129 18272650134451595157
7615 1 17821725057103011980
77492 1 17676488345718186178
8030462 33 17894631495492121074
81228 2 18411422838778434451
88987 49 18410011009565538692

> <PUBCHEM_SHAPE_MULTIPOLES>
266.41
6.64
1.61
1.04
1.81
0.13
0
-0.01
-0.01
-2.61
0
1.16
-0.01
-0.03

> <PUBCHEM_SHAPE_SELFOVERLAP>
576.081

> <PUBCHEM_SHAPE_VOLUME>
144.3

> <PUBCHEM_COORDINATE_TYPE>
2
5
10

$$$$
