31222
  -OEChem-11012400323D

 26 27  0     0  0  0  0  0  0999 V2000
    0.5090   -0.4356   -0.9290 N   0  0  0  0  0  0  0  0  0  0  0  0
   -0.5092    0.4357   -0.9319 N   0  0  0  0  0  0  0  0  0  0  0  0
    1.7809   -0.1924   -0.3857 C   0  0  0  0  0  0  0  0  0  0  0  0
   -1.7862    0.1914   -0.3849 C   0  0  0  0  0  0  0  0  0  0  0  0
    2.7913   -1.1513   -0.5039 C   0  0  0  0  0  0  0  0  0  0  0  0
   -2.7911    1.1514   -0.5045 C   0  0  0  0  0  0  0  0  0  0  0  0
    2.0456    1.0102    0.2761 C   0  0  0  0  0  0  0  0  0  0  0  0
   -2.0444   -1.0100    0.2750 C   0  0  0  0  0  0  0  0  0  0  0  0
    4.0551   -0.9096    0.0347 C   0  0  0  0  0  0  0  0  0  0  0  0
   -4.0543    0.9097    0.0354 C   0  0  0  0  0  0  0  0  0  0  0  0
    3.3095    1.2518    0.8146 C   0  0  0  0  0  0  0  0  0  0  0  0
   -3.3077   -1.2516    0.8149 C   0  0  0  0  0  0  0  0  0  0  0  0
    4.3142    0.2920    0.6940 C   0  0  0  0  0  0  0  0  0  0  0  0
   -4.3127   -0.2918    0.6951 C   0  0  0  0  0  0  0  0  0  0  0  0
    0.3809   -1.3022   -1.4403 H   0  0  0  0  0  0  0  0  0  0  0  0
   -0.3829    1.3012   -1.4456 H   0  0  0  0  0  0  0  0  0  0  0  0
    2.6035   -2.0923   -1.0151 H   0  0  0  0  0  0  0  0  0  0  0  0
   -2.6027    2.0918   -1.0161 H   0  0  0  0  0  0  0  0  0  0  0  0
    1.2839    1.7773    0.3886 H   0  0  0  0  0  0  0  0  0  0  0  0
   -1.2822   -1.7765    0.3864 H   0  0  0  0  0  0  0  0  0  0  0  0
    4.8375   -1.6570   -0.0592 H   0  0  0  0  0  0  0  0  0  0  0  0
   -4.8369    1.6571   -0.0576 H   0  0  0  0  0  0  0  0  0  0  0  0
    3.5114    2.1871    1.3285 H   0  0  0  0  0  0  0  0  0  0  0  0
   -3.5091   -2.1868    1.3292 H   0  0  0  0  0  0  0  0  0  0  0  0
    5.2982    0.4801    1.1135 H   0  0  0  0  0  0  0  0  0  0  0  0
   -5.2962   -0.4799    1.1157 H   0  0  0  0  0  0  0  0  0  0  0  0
  1  2  1  0  0  0  0
  1  3  1  0  0  0  0
  1 15  1  0  0  0  0
  2  4  1  0  0  0  0
  2 16  1  0  0  0  0
  3  5  2  0  0  0  0
  3  7  1  0  0  0  0
  4  6  2  0  0  0  0
  4  8  1  0  0  0  0
  5  9  1  0  0  0  0
  5 17  1  0  0  0  0
  6 10  1  0  0  0  0
  6 18  1  0  0  0  0
  7 11  2  0  0  0  0
  7 19  1  0  0  0  0
  8 12  2  0  0  0  0
  8 20  1  0  0  0  0
  9 13  2  0  0  0  0
  9 21  1  0  0  0  0
 10 14  2  0  0  0  0
 10 22  1  0  0  0  0
 11 13  1  0  0  0  0
 11 23  1  0  0  0  0
 12 14  1  0  0  0  0
 12 24  1  0  0  0  0
 13 25  1  0  0  0  0
 14 26  1  0  0  0  0
M  END
> <PUBCHEM_COMPOUND_CID>
31222

> <PUBCHEM_CONFORMER_RMSD>
0.6

> <PUBCHEM_CONFORMER_DIVERSEORDER>
1
6
3
5
2
4

> <PUBCHEM_MMFF94_PARTIAL_CHARGES>
26
1 -0.5
10 -0.15
11 -0.15
12 -0.15
13 -0.15
14 -0.15
15 0.4
16 0.4
17 0.15
18 0.15
19 0.15
2 -0.5
20 0.15
21 0.15
22 0.15
23 0.15
24 0.15
25 0.15
26 0.15
3 0.1
4 0.1
5 -0.15
6 -0.15
7 -0.15
8 -0.15
9 -0.15

> <PUBCHEM_EFFECTIVE_ROTOR_COUNT>
3

> <PUBCHEM_PHARMACOPHORE_FEATURES>
4
1 1 donor
1 2 donor
6 3 5 7 9 11 13 rings
6 4 6 8 10 12 14 rings

> <PUBCHEM_HEAVY_ATOM_COUNT>
14

> <PUBCHEM_ATOM_DEF_STEREO_COUNT>
0

> <PUBCHEM_ATOM_UDEF_STEREO_COUNT>
0

> <PUBCHEM_BOND_DEF_STEREO_COUNT>
0

> <PUBCHEM_BOND_UDEF_STEREO_COUNT>
0

> <PUBCHEM_ISOTOPIC_ATOM_COUNT>
0

> <PUBCHEM_COMPONENT_COUNT>
1

> <PUBCHEM_CACTVS_TAUTO_COUNT>
1

> <PUBCHEM_CONFORMER_ID>
000079F600000001

> <PUBCHEM_MMFF94_ENERGY>
46.7419

> <PUBCHEM_FEATURE_SELFOVERLAP>
21.982

> <PUBCHEM_SHAPE_FINGERPRINT>
11615757 297 17275105050118777761
12251169 10 18410574015216222415
12346177 29 17894622678309533823
12500047 106 18114455661406444389
12507560 40 18412262835069919348
13296908 3 18334858324544220909
13675066 3 18410575088958046236
14123260 362 15123513631167643555
14252887 29 18271811190248100422
15219456 202 18413388730623622966
15239191 94 15719391737142223376
15653759 3 18335139790915302560
18186145 218 17275108344722697278
19107657 47 17775001267251267033
200 152 17846769724829280773
20279233 1 18411702079992459919
20361792 2 15502373456488554063
204376 136 17346599685766629823
20645477 70 17917144988329840278
21065198 57 18410573976561516610
21065199 12 18410856568229724400
22169311 14 18410293605391400970
22485316 2 17603583010861339438
2255824 54 15575291985606169046
22646028 1 15719390641920288026
22646028 28 15719390641899189211
22854114 59 18273496783889949815
23048698 100 17131835352309767322
23402539 116 18410848859707751829
23559900 14 18261395503481109678
26918003 58 18412260623145807912
351380 180 18343579629749458897
42 15 18333170552778854922
573450 72 17022896835520202337
5924683 9 18271521017984143191
602551 16 17749392602454190474
69090 78 18341609330693097567
77779 3 18408887343036337160

> <PUBCHEM_SHAPE_MULTIPOLES>
278.15
9.68
1.35
0.94
0.01
0
0.01
0
2.41
0
0.11
0
0
0.97

> <PUBCHEM_SHAPE_SELFOVERLAP>
591.656

> <PUBCHEM_SHAPE_VOLUME>
154

> <PUBCHEM_COORDINATE_TYPE>
2
5
10

$$$$
