629516
  -OEChem-11012400563D

 41 43  0     0  0  0  0  0  0999 V2000
   -0.3100   -0.0264   -1.0287 Si  0  0  0  0  0  0  0  0  0  0  0  0
   -1.6767    0.7809   -0.4919 O   0  0  0  0  0  0  0  0  0  0  0  0
    0.8962    1.0966   -1.2946 O   0  0  0  0  0  0  0  0  0  0  0  0
    0.1877   -1.1043    0.1450 O   0  0  0  0  0  0  0  0  0  0  0  0
   -0.6950   -0.9422   -2.6210 C   0  0  0  0  0  0  0  0  0  0  0  0
   -2.9273    0.3896   -0.1253 C   0  0  0  0  0  0  0  0  0  0  0  0
    1.5402    2.0075   -0.4996 C   0  0  0  0  0  0  0  0  0  0  0  0
    1.2295   -1.9897    0.2352 C   0  0  0  0  0  0  0  0  0  0  0  0
   -3.2742   -0.9611   -0.1605 C   0  0  0  0  0  0  0  0  0  0  0  0
    1.1991    2.1114    0.8444 C   0  0  0  0  0  0  0  0  0  0  0  0
    2.1313   -2.1014   -0.8171 C   0  0  0  0  0  0  0  0  0  0  0  0
   -3.8629    1.3393    0.2855 C   0  0  0  0  0  0  0  0  0  0  0  0
    2.5284    2.8197   -1.0447 C   0  0  0  0  0  0  0  0  0  0  0  0
    1.3739   -2.7680    1.3782 C   0  0  0  0  0  0  0  0  0  0  0  0
   -4.5564   -1.3619    0.2147 C   0  0  0  0  0  0  0  0  0  0  0  0
    1.8543    3.0395    1.6535 C   0  0  0  0  0  0  0  0  0  0  0  0
    3.1913   -3.0033   -0.7254 C   0  0  0  0  0  0  0  0  0  0  0  0
   -5.1451    0.9383    0.6608 C   0  0  0  0  0  0  0  0  0  0  0  0
    3.1838    3.7477   -0.2354 C   0  0  0  0  0  0  0  0  0  0  0  0
    2.4342   -3.6699    1.4698 C   0  0  0  0  0  0  0  0  0  0  0  0
   -5.4918   -0.4124    0.6253 C   0  0  0  0  0  0  0  0  0  0  0  0
    2.8467    3.8575    1.1137 C   0  0  0  0  0  0  0  0  0  0  0  0
    3.3428   -3.7875    0.4180 C   0  0  0  0  0  0  0  0  0  0  0  0
    0.2187   -1.2818   -3.1161 H   0  0  0  0  0  0  0  0  0  0  0  0
   -1.3232   -1.8179   -2.4384 H   0  0  0  0  0  0  0  0  0  0  0  0
   -1.2236   -0.2831   -3.3165 H   0  0  0  0  0  0  0  0  0  0  0  0
   -2.5802   -1.7388   -0.4587 H   0  0  0  0  0  0  0  0  0  0  0  0
    0.4348    1.4973    1.3085 H   0  0  0  0  0  0  0  0  0  0  0  0
    2.0671   -1.5054   -1.7199 H   0  0  0  0  0  0  0  0  0  0  0  0
   -3.5984    2.3928    0.3152 H   0  0  0  0  0  0  0  0  0  0  0  0
    2.7939    2.7373   -2.0948 H   0  0  0  0  0  0  0  0  0  0  0  0
    0.6684   -2.6795    2.1995 H   0  0  0  0  0  0  0  0  0  0  0  0
   -4.8261   -2.4138    0.1903 H   0  0  0  0  0  0  0  0  0  0  0  0
    1.5924    3.1255    2.7041 H   0  0  0  0  0  0  0  0  0  0  0  0
    3.9012   -3.0930   -1.5425 H   0  0  0  0  0  0  0  0  0  0  0  0
   -5.8734    1.6777    0.9808 H   0  0  0  0  0  0  0  0  0  0  0  0
    3.9566    4.3847   -0.6556 H   0  0  0  0  0  0  0  0  0  0  0  0
    2.5524   -4.2803    2.3603 H   0  0  0  0  0  0  0  0  0  0  0  0
   -6.4899   -0.7246    0.9182 H   0  0  0  0  0  0  0  0  0  0  0  0
    3.3571    4.5801    1.7439 H   0  0  0  0  0  0  0  0  0  0  0  0
    4.1687   -4.4891    0.4899 H   0  0  0  0  0  0  0  0  0  0  0  0
  1  2  1  0  0  0  0
  1  3  1  0  0  0  0
  1  4  1  0  0  0  0
  1  5  1  0  0  0  0
  2  6  1  0  0  0  0
  3  7  1  0  0  0  0
  4  8  1  0  0  0  0
  5 24  1  0  0  0  0
  5 25  1  0  0  0  0
  5 26  1  0  0  0  0
  6  9  2  0  0  0  0
  6 12  1  0  0  0  0
  7 10  2  0  0  0  0
  7 13  1  0  0  0  0
  8 11  2  0  0  0  0
  8 14  1  0  0  0  0
  9 15  1  0  0  0  0
  9 27  1  0  0  0  0
 10 16  1  0  0  0  0
 10 28  1  0  0  0  0
 11 17  1  0  0  0  0
 11 29  1  0  0  0  0
 12 18  2  0  0  0  0
 12 30  1  0  0  0  0
 13 19  2  0  0  0  0
 13 31  1  0  0  0  0
 14 20  2  0  0  0  0
 14 32  1  0  0  0  0
 15 21  2  0  0  0  0
 15 33  1  0  0  0  0
 16 22  2  0  0  0  0
 16 34  1  0  0  0  0
 17 23  2  0  0  0  0
 17 35  1  0  0  0  0
 18 21  1  0  0  0  0
 18 36  1  0  0  0  0
 19 22  1  0  0  0  0
 19 37  1  0  0  0  0
 20 23  1  0  0  0  0
 20 38  1  0  0  0  0
 21 39  1  0  0  0  0
 22 40  1  0  0  0  0
 23 41  1  0  0  0  0
M  END
> <PUBCHEM_COMPOUND_CID>
629516

> <PUBCHEM_CONFORMER_RMSD>
0.8

> <PUBCHEM_CONFORMER_DIVERSEORDER>
1
26
5
3
20
4
21
14
7
2
9
10
16
15
6
18
22
24
17
23
8
19
11
13
25
12

> <PUBCHEM_MMFF94_PARTIAL_CHARGES>
38
1 0.97
10 -0.15
11 -0.15
12 -0.15
13 -0.15
14 -0.15
15 -0.15
16 -0.15
17 -0.15
18 -0.15
19 -0.15
2 -0.38
20 -0.15
21 -0.15
22 -0.15
23 -0.15
27 0.15
28 0.15
29 0.15
3 -0.38
30 0.15
31 0.15
32 0.15
33 0.15
34 0.15
35 0.15
36 0.15
37 0.15
38 0.15
39 0.15
4 -0.38
40 0.15
41 0.15
5 -0.08
6 0.08
7 0.08
8 0.08
9 -0.15

> <PUBCHEM_EFFECTIVE_ROTOR_COUNT>
6

> <PUBCHEM_PHARMACOPHORE_FEATURES>
3
6 6 9 12 15 18 21 rings
6 7 10 13 16 19 22 rings
6 8 11 14 17 20 23 rings

> <PUBCHEM_HEAVY_ATOM_COUNT>
23

> <PUBCHEM_ATOM_DEF_STEREO_COUNT>
0

> <PUBCHEM_ATOM_UDEF_STEREO_COUNT>
0

> <PUBCHEM_BOND_DEF_STEREO_COUNT>
0

> <PUBCHEM_BOND_UDEF_STEREO_COUNT>
0

> <PUBCHEM_ISOTOPIC_ATOM_COUNT>
0

> <PUBCHEM_COMPONENT_COUNT>
1

> <PUBCHEM_CACTVS_TAUTO_COUNT>
1

> <PUBCHEM_CONFORMER_ID>
00099B0C00000001

> <PUBCHEM_MMFF94_ENERGY>
62.6583

> <PUBCHEM_FEATURE_SELFOVERLAP>
15.223

> <PUBCHEM_SHAPE_FINGERPRINT>
10074138 170 17259042525509711360
107951 10 17979651339848404972
11578080 2 17677325009727155741
11582403 64 17771919495151594006
12160290 23 16972777535156409854
12549972 3 17823439148960978249
12553582 1 18119523237527358479
12788726 201 16895082748981375783
12839892 36 17900256713307956579
12930653 34 18120662597993341651
13140716 1 18265889349232339536
133893 2 18051091974275825198
13533116 47 18409451397703857867
13878862 14 18337939101330716981
13955234 65 18410018757907963673
14178342 30 18046069530257618495
14466204 15 17618227205086384209
14787075 74 18261125036669407998
14955137 171 18201726102658509774
15664445 248 18127427665290016102
15775530 1 17896859003176892509
15878777 1 10539783464744140254
15927050 60 18124318461539729670
17868525 174 18265615369111334169
17980427 23 17700966648855630225
17980427 26 18341044233029000268
1813 80 18127691521951876767
18785283 64 18334291011320946768
20028762 73 17476087199191887391
20567600 347 18192711374146536299
20600515 1 17765159371383948325
21033648 29 16699473162591091611
21120745 212 17764887796807715990
21304303 172 17696190305587648769
21796203 349 18049758180952075811
22956985 138 18114166558573818826
23366157 5 18333734623882264413
23558518 356 17048503645140249693
23559900 14 18337946793305108443
238918 7 17760103095275563338
249999 5 18410293644225545897
3411729 13 18342745143215504789
345986 75 17537155848250023139
394222 165 18130514127414173025
4409770 3 17106778337069604693
5104073 3 18340787974786180435
5265222 85 17975429215541032692
5895379 119 17128763209806457409
59755656 520 17977378662162055956
6442390 28 18049728721491180313
6786 2 18048039854936233578
7097593 13 18340199705178070407
7364860 26 18412548708246050535
79837 15 17832142001984372762
81228 2 17189526478316378348
9841814 1 18340216171934866759
9981440 41 18047752882337977227

> <PUBCHEM_SHAPE_MULTIPOLES>
473.93
8.53
5.68
1.62
14.48
0.46
0.48
-0.17
-2.34
-10.68
-2.09
-0.63
-0.17
-0.33

> <PUBCHEM_SHAPE_SELFOVERLAP>
1003.948

> <PUBCHEM_SHAPE_VOLUME>
264.1

> <PUBCHEM_COORDINATE_TYPE>
2
5
10

$$$$
