140574
  -OEChem-11012400573D

 22 21  0     0  0  0  0  0  0999 V2000
    0.4958   -0.3978    0.2704 N   0  0  0  0  0  0  0  0  0  0  0  0
   -0.6502   -0.2995   -0.4354 N   0  0  0  0  0  0  0  0  0  0  0  0
    2.9224   -0.1541    0.4533 C   0  0  0  0  0  0  0  0  0  0  0  0
    1.6712    0.1878   -0.3515 C   0  0  0  0  0  0  0  0  0  0  0  0
    4.1657    0.4658   -0.1658 C   0  0  0  0  0  0  0  0  0  0  0  0
   -3.0755   -0.3084   -0.3127 C   0  0  0  0  0  0  0  0  0  0  0  0
   -1.7061   -0.3849    0.3046 C   0  0  0  0  0  0  0  0  0  0  0  0
   -3.8231    0.8910    0.2369 C   0  0  0  0  0  0  0  0  0  0  0  0
    2.8200    0.2091    1.4832 H   0  0  0  0  0  0  0  0  0  0  0  0
    3.0514   -1.2421    0.5049 H   0  0  0  0  0  0  0  0  0  0  0  0
    1.7819   -0.1966   -1.3728 H   0  0  0  0  0  0  0  0  0  0  0  0
    1.5523    1.2757   -0.4182 H   0  0  0  0  0  0  0  0  0  0  0  0
    4.3201    0.1000   -1.1858 H   0  0  0  0  0  0  0  0  0  0  0  0
    4.0846    1.5570   -0.2000 H   0  0  0  0  0  0  0  0  0  0  0  0
    5.0510    0.2096    0.4246 H   0  0  0  0  0  0  0  0  0  0  0  0
    0.3936   -0.0632    1.2283 H   0  0  0  0  0  0  0  0  0  0  0  0
   -3.6108   -1.2296   -0.0618 H   0  0  0  0  0  0  0  0  0  0  0  0
   -2.9919   -0.2399   -1.4020 H   0  0  0  0  0  0  0  0  0  0  0  0
   -1.6672   -0.5277    1.4014 H   0  0  0  0  0  0  0  0  0  0  0  0
   -4.8256    0.9489   -0.1976 H   0  0  0  0  0  0  0  0  0  0  0  0
   -3.2936    1.8215    0.0066 H   0  0  0  0  0  0  0  0  0  0  0  0
   -3.9241    0.8276    1.3256 H   0  0  0  0  0  0  0  0  0  0  0  0
  1  2  1  0  0  0  0
  1  4  1  0  0  0  0
  1 16  1  0  0  0  0
  2  7  2  3  0  0  0
  3  4  1  0  0  0  0
  3  5  1  0  0  0  0
  3  9  1  0  0  0  0
  3 10  1  0  0  0  0
  4 11  1  0  0  0  0
  4 12  1  0  0  0  0
  5 13  1  0  0  0  0
  5 14  1  0  0  0  0
  5 15  1  0  0  0  0
  6  7  1  0  0  0  0
  6  8  1  0  0  0  0
  6 17  1  0  0  0  0
  6 18  1  0  0  0  0
  7 19  1  0  0  0  0
  8 20  1  0  0  0  0
  8 21  1  0  0  0  0
  8 22  1  0  0  0  0
M  END
> <PUBCHEM_COMPOUND_CID>
140574

> <PUBCHEM_CONFORMER_RMSD>
0.6

> <PUBCHEM_CONFORMER_DIVERSEORDER>
2
28
16
27
10
32
1
24
9
17
33
22
25
19
6
26
3
15
21
8
23
18
29
7
4
20
30
11
31
12
14
13
5

> <PUBCHEM_MMFF94_PARTIAL_CHARGES>
7
1 -0.58
16 0.36
19 0.06
2 -0.5
4 0.27
6 0.06
7 0.33

> <PUBCHEM_EFFECTIVE_ROTOR_COUNT>
4

> <PUBCHEM_PHARMACOPHORE_FEATURES>
4
1 1 donor
1 2 acceptor
1 5 hydrophobe
1 8 hydrophobe

> <PUBCHEM_HEAVY_ATOM_COUNT>
8

> <PUBCHEM_ATOM_DEF_STEREO_COUNT>
0

> <PUBCHEM_ATOM_UDEF_STEREO_COUNT>
0

> <PUBCHEM_BOND_DEF_STEREO_COUNT>
0

> <PUBCHEM_BOND_UDEF_STEREO_COUNT>
1

> <PUBCHEM_ISOTOPIC_ATOM_COUNT>
0

> <PUBCHEM_COMPONENT_COUNT>
1

> <PUBCHEM_CACTVS_TAUTO_COUNT>
1

> <PUBCHEM_CONFORMER_ID>
0002251E00000002

> <PUBCHEM_MMFF94_ENERGY>
-0.2234

> <PUBCHEM_FEATURE_SELFOVERLAP>
20.297

> <PUBCHEM_SHAPE_FINGERPRINT>
11062470 55 18343019999510202360
12932764 1 15864058918804951770
14325111 11 18411418418671790543
14390081 3 18202281390448011057
18342897 14 17822012003646673972
190213 19 13045940200757661070
21293036 1 14836402536225125513
22485316 2 7853577893803365352
5460574 1 17385439929564457206

> <PUBCHEM_SHAPE_MULTIPOLES>
154.67
8.07
0.79
0.7
1.47
0.1
0
1.98
0.16
-0.33
0.02
0.02
-0.01
-0.22

> <PUBCHEM_SHAPE_SELFOVERLAP>
269.906

> <PUBCHEM_SHAPE_VOLUME>
101.6

> <PUBCHEM_COORDINATE_TYPE>
2
5
10

$$$$
