92282944
  -OEChem-11012401193D

 36 36  0     1  0  0  0  0  0999 V2000
   -2.4604   -0.7943    0.2368 O   0  0  0  0  0  0  0  0  0  0  0  0
    2.1807   -1.2664   -0.4202 O   0  0  0  0  0  0  0  0  0  0  0  0
   -3.0156    1.3039   -0.5540 O   0  0  0  0  0  0  0  0  0  0  0  0
    2.8326    0.3839    1.0591 O   0  0  0  0  0  0  0  0  0  0  0  0
   -0.7727    0.8236    0.1765 C   0  0  1  0  0  0  0  0  0  0  0  0
    1.5357    0.9344   -0.8981 C   0  0  1  0  0  0  0  0  0  0  0  0
    0.0749    0.5049   -1.0590 C   0  0  0  0  0  0  0  0  0  0  0  0
   -0.6532    2.2939    0.5757 C   0  0  0  0  0  0  0  0  0  0  0  0
    1.6599    2.3895   -0.4389 C   0  0  0  0  0  0  0  0  0  0  0  0
    0.8021    2.6978    0.7878 C   0  0  0  0  0  0  0  0  0  0  0  0
   -2.2103    0.5034   -0.0981 C   0  0  0  0  0  0  0  0  0  0  0  0
    2.2627    0.0139    0.0415 C   0  0  0  0  0  0  0  0  0  0  0  0
   -3.8048   -1.2364    0.0237 C   0  0  0  0  0  0  0  0  0  0  0  0
    2.8343   -2.2532    0.3842 C   0  0  0  0  0  0  0  0  0  0  0  0
   -3.9190   -2.6869    0.4411 C   0  0  0  0  0  0  0  0  0  0  0  0
    2.6531   -3.6120   -0.2581 C   0  0  0  0  0  0  0  0  0  0  0  0
   -0.4381    0.2153    1.0274 H   0  0  0  0  0  0  0  0  0  0  0  0
    2.0459    0.8469   -1.8666 H   0  0  0  0  0  0  0  0  0  0  0  0
   -0.3459    1.0311   -1.9273 H   0  0  0  0  0  0  0  0  0  0  0  0
   -0.0074   -0.5626   -1.2976 H   0  0  0  0  0  0  0  0  0  0  0  0
   -1.2240    2.4839    1.4931 H   0  0  0  0  0  0  0  0  0  0  0  0
   -1.0878    2.9405   -0.1981 H   0  0  0  0  0  0  0  0  0  0  0  0
    1.3416    3.0445   -1.2605 H   0  0  0  0  0  0  0  0  0  0  0  0
    2.7050    2.6454   -0.2265 H   0  0  0  0  0  0  0  0  0  0  0  0
    1.1959    2.1890    1.6743 H   0  0  0  0  0  0  0  0  0  0  0  0
    0.8522    3.7720    1.0017 H   0  0  0  0  0  0  0  0  0  0  0  0
   -4.0582   -1.1354   -1.0375 H   0  0  0  0  0  0  0  0  0  0  0  0
   -4.4895   -0.6241    0.6211 H   0  0  0  0  0  0  0  0  0  0  0  0
    2.3934   -2.2562    1.3874 H   0  0  0  0  0  0  0  0  0  0  0  0
    3.9017   -2.0169    0.4565 H   0  0  0  0  0  0  0  0  0  0  0  0
   -3.2264   -3.3093   -0.1352 H   0  0  0  0  0  0  0  0  0  0  0  0
   -3.6510   -2.8066    1.4961 H   0  0  0  0  0  0  0  0  0  0  0  0
   -4.9365   -3.0584    0.2907 H   0  0  0  0  0  0  0  0  0  0  0  0
    1.5895   -3.8538   -0.3540 H   0  0  0  0  0  0  0  0  0  0  0  0
    3.0731   -3.6192   -1.2693 H   0  0  0  0  0  0  0  0  0  0  0  0
    3.1410   -4.3922    0.3327 H   0  0  0  0  0  0  0  0  0  0  0  0
  1 11  1  0  0  0  0
  1 13  1  0  0  0  0
  2 12  1  0  0  0  0
  2 14  1  0  0  0  0
  3 11  2  0  0  0  0
  4 12  2  0  0  0  0
  5  7  1  0  0  0  0
  5  8  1  0  0  0  0
  5 11  1  0  0  0  0
  5 17  1  0  0  0  0
  6  7  1  0  0  0  0
  6  9  1  0  0  0  0
  6 12  1  0  0  0  0
  6 18  1  0  0  0  0
  7 19  1  0  0  0  0
  7 20  1  0  0  0  0
  8 10  1  0  0  0  0
  8 21  1  0  0  0  0
  8 22  1  0  0  0  0
  9 10  1  0  0  0  0
  9 23  1  0  0  0  0
  9 24  1  0  0  0  0
 10 25  1  0  0  0  0
 10 26  1  0  0  0  0
 13 15  1  0  0  0  0
 13 27  1  0  0  0  0
 13 28  1  0  0  0  0
 14 16  1  0  0  0  0
 14 29  1  0  0  0  0
 14 30  1  0  0  0  0
 15 31  1  0  0  0  0
 15 32  1  0  0  0  0
 15 33  1  0  0  0  0
 16 34  1  0  0  0  0
 16 35  1  0  0  0  0
 16 36  1  0  0  0  0
M  END
> <PUBCHEM_COMPOUND_CID>
92282944

> <PUBCHEM_CONFORMER_RMSD>
0.8

> <PUBCHEM_CONFORMER_DIVERSEORDER>
1
32
30
9
19
28
25
18
13
22
23
14
29
7
11
3
15
20
12
6
10
33
8
24
2
26
4
27
17
31
5
16
21

> <PUBCHEM_MMFF94_PARTIAL_CHARGES>
10
1 -0.43
11 0.66
12 0.66
13 0.28
14 0.28
2 -0.43
3 -0.57
4 -0.57
5 0.06
6 0.06

> <PUBCHEM_EFFECTIVE_ROTOR_COUNT>
7.2

> <PUBCHEM_PHARMACOPHORE_FEATURES>
3
1 3 acceptor
1 4 acceptor
6 5 6 7 8 9 10 rings

> <PUBCHEM_HEAVY_ATOM_COUNT>
16

> <PUBCHEM_ATOM_DEF_STEREO_COUNT>
2

> <PUBCHEM_ATOM_UDEF_STEREO_COUNT>
0

> <PUBCHEM_BOND_DEF_STEREO_COUNT>
0

> <PUBCHEM_BOND_UDEF_STEREO_COUNT>
0

> <PUBCHEM_ISOTOPIC_ATOM_COUNT>
0

> <PUBCHEM_COMPONENT_COUNT>
1

> <PUBCHEM_CACTVS_TAUTO_COUNT>
3

> <PUBCHEM_CONFORMER_ID>
0580204000000001

> <PUBCHEM_MMFF94_ENERGY>
16.0266

> <PUBCHEM_FEATURE_SELFOVERLAP>
15.223

> <PUBCHEM_SHAPE_FINGERPRINT>
11067466 332 18121788497388481413
12506688 2 18411419501019308539
13533116 47 18341057432244592403
14251705 54 18410295821779791707
14251757 5 16756648715944188414
14866123 147 17260187692787555803
14916288 52 18338802204229476527
15001771 113 18337399227381456056
15422964 175 18339633465063026114
16945 1 18410015398991005796
17134984 74 17262133231870348351
20281475 54 18337961194261860427
20291156 8 18337958878594460595
20344682 10 18200297948865720024
20559304 39 18339645649684875884
20645477 70 18190452956205284303
21501502 16 18337397148960442465
2255824 54 18048042062301724789
23184049 29 18339645516551569102
23500284 5 18340773615513121019
23530152 11 17761218017403706780
23559900 14 18339070485372128328
257057 1 18338515223046104900
33824 294 17979075212808503923
4175511 335 18190186873773963685
7364860 26 18339080500929751476
81228 2 17624703357878833996
8199 65 18194123142702596178

> <PUBCHEM_SHAPE_MULTIPOLES>
305.8
6.09
3.96
0.91
5.54
2.47
-0.03
5.49
0.51
-1.95
0.43
-0.26
-0.24
0.34

> <PUBCHEM_SHAPE_SELFOVERLAP>
604.06

> <PUBCHEM_SHAPE_VOLUME>
180.9

> <PUBCHEM_COORDINATE_TYPE>
2
5
10

$$$$
