17333
  -OEChem-11012401153D

 16 16  0     0  0  0  0  0  0999 V2000
    0.0001   -1.7876   -0.0003 O   0  0  0  0  0  0  0  0  0  0  0  0
    2.5258   -1.3858    0.0000 O   0  5  0  0  0  0  0  0  0  0  0  0
   -2.5257   -1.3859    0.0002 O   0  5  0  0  0  0  0  0  0  0  0  0
    3.2646    0.7238    0.0006 O   0  0  0  0  0  0  0  0  0  0  0  0
   -3.2646    0.7237   -0.0006 O   0  0  0  0  0  0  0  0  0  0  0  0
    1.0995    0.2977   -0.0003 N   0  0  0  0  0  0  0  0  0  0  0  0
   -1.0995    0.2976    0.0003 N   0  0  0  0  0  0  0  0  0  0  0  0
    2.3983   -0.1570   -0.0003 N   0  3  0  0  0  0  0  0  0  0  0  0
   -2.3984   -0.1571    0.0004 N   0  3  0  0  0  0  0  0  0  0  0  0
    0.7690    1.6980   -0.0007 C   0  0  0  0  0  0  0  0  0  0  0  0
   -0.7692    1.6980    0.0005 C   0  0  0  0  0  0  0  0  0  0  0  0
    0.0000   -0.5655    0.0001 C   0  0  0  0  0  0  0  0  0  0  0  0
    1.1660    2.1823   -0.8988 H   0  0  0  0  0  0  0  0  0  0  0  0
    1.1673    2.1834    0.8962 H   0  0  0  0  0  0  0  0  0  0  0  0
   -1.1661    2.1824    0.8985 H   0  0  0  0  0  0  0  0  0  0  0  0
   -1.1675    2.1831   -0.8965 H   0  0  0  0  0  0  0  0  0  0  0  0
  1 12  2  0  0  0  0
  2  8  1  0  0  0  0
  3  9  1  0  0  0  0
  4  8  2  0  0  0  0
  5  9  2  0  0  0  0
  6  8  1  0  0  0  0
  6 10  1  0  0  0  0
  6 12  1  0  0  0  0
  7  9  1  0  0  0  0
  7 11  1  0  0  0  0
  7 12  1  0  0  0  0
 10 11  1  0  0  0  0
 10 13  1  0  0  0  0
 10 14  1  0  0  0  0
 11 15  1  0  0  0  0
 11 16  1  0  0  0  0
M  CHG  4   2  -1   3  -1   8   1   9   1
M  END
> <PUBCHEM_COMPOUND_CID>
17333

> <PUBCHEM_CONFORMER_RMSD>
0.6

> <PUBCHEM_CONFORMER_DIVERSEORDER>
1
2

> <PUBCHEM_MMFF94_PARTIAL_CHARGES>
12
1 -0.57
10 0.3
11 0.3
12 0.69
2 -0.52
3 -0.52
4 -0.52
5 -0.52
6 -0.34
7 -0.34
8 1.02
9 1.02

> <PUBCHEM_EFFECTIVE_ROTOR_COUNT>
2.8

> <PUBCHEM_PHARMACOPHORE_FEATURES>
6
1 1 acceptor
1 2 acceptor
1 3 acceptor
1 4 acceptor
1 5 acceptor
5 6 7 10 11 12 rings

> <PUBCHEM_HEAVY_ATOM_COUNT>
12

> <PUBCHEM_ATOM_DEF_STEREO_COUNT>
0

> <PUBCHEM_ATOM_UDEF_STEREO_COUNT>
0

> <PUBCHEM_BOND_DEF_STEREO_COUNT>
0

> <PUBCHEM_BOND_UDEF_STEREO_COUNT>
0

> <PUBCHEM_ISOTOPIC_ATOM_COUNT>
0

> <PUBCHEM_COMPONENT_COUNT>
1

> <PUBCHEM_CACTVS_TAUTO_COUNT>
1

> <PUBCHEM_CONFORMER_ID>
000043B500000001

> <PUBCHEM_MMFF94_ENERGY>
43.1906

> <PUBCHEM_FEATURE_SELFOVERLAP>
30.615

> <PUBCHEM_SHAPE_FINGERPRINT>
10219947 1 18411421687373797017
10857977 72 18339912796682348744
12897270 3 18337953393941841998
14128692 85 18340208604049380461
14325111 11 18410856568235024896
16945 1 18410575084663247813
193761 8 17546164104081983873
21040471 1 18122344846135235777
23402655 69 18268695144583900461
23463225 33 18336263431938411842
23552423 10 18261113010217166092
2748010 2 18338232803276803021
5084963 1 18273214200811754921
528886 8 18411412912729224689

> <PUBCHEM_SHAPE_MULTIPOLES>
197.68
4.29
1.78
0.54
0
0.02
0
-0.33
0
0
0
0
0.03
0

> <PUBCHEM_SHAPE_SELFOVERLAP>
407.844

> <PUBCHEM_SHAPE_VOLUME>
115.3

> <PUBCHEM_COORDINATE_TYPE>
2
5
10

$$$$
