68204
  -OEChem-11012401183D

 24 25  0     0  0  0  0  0  0999 V2000
    2.1402    1.4447    1.2307 O   0  0  0  0  0  0  0  0  0  0  0  0
    2.1388   -1.4445   -1.2312 O   0  0  0  0  0  0  0  0  0  0  0  0
    2.3338    1.4195   -1.0340 O   0  0  0  0  0  0  0  0  0  0  0  0
    2.3338   -1.4212    1.0334 O   0  0  0  0  0  0  0  0  0  0  0  0
   -0.5126    0.0001    0.0006 C   0  0  0  0  0  0  0  0  0  0  0  0
   -1.9278    0.0003    0.0001 C   0  0  0  0  0  0  0  0  0  0  0  0
    0.1745    1.2247   -0.0223 C   0  0  0  0  0  0  0  0  0  0  0  0
    0.1740   -1.2249    0.0232 C   0  0  0  0  0  0  0  0  0  0  0  0
   -2.6143    1.2253   -0.0229 C   0  0  0  0  0  0  0  0  0  0  0  0
   -2.6149   -1.2243    0.0225 C   0  0  0  0  0  0  0  0  0  0  0  0
   -0.5238    2.4323   -0.0450 C   0  0  0  0  0  0  0  0  0  0  0  0
   -0.5249   -2.4322    0.0453 C   0  0  0  0  0  0  0  0  0  0  0  0
   -1.9155    2.4327   -0.0452 C   0  0  0  0  0  0  0  0  0  0  0  0
   -1.9166   -2.4320    0.0448 C   0  0  0  0  0  0  0  0  0  0  0  0
    1.6279    1.3687   -0.0257 C   0  0  0  0  0  0  0  0  0  0  0  0
    1.6274   -1.3694    0.0256 C   0  0  0  0  0  0  0  0  0  0  0  0
   -3.7021    1.2495   -0.0236 H   0  0  0  0  0  0  0  0  0  0  0  0
   -3.7027   -1.2480    0.0227 H   0  0  0  0  0  0  0  0  0  0  0  0
    0.0032    3.3835   -0.0631 H   0  0  0  0  0  0  0  0  0  0  0  0
    0.0017   -3.3836    0.0630 H   0  0  0  0  0  0  0  0  0  0  0  0
   -2.4587    3.3731   -0.0630 H   0  0  0  0  0  0  0  0  0  0  0  0
   -2.4602   -3.3721    0.0620 H   0  0  0  0  0  0  0  0  0  0  0  0
    3.1165    1.5400    1.2220 H   0  0  0  0  0  0  0  0  0  0  0  0
    3.1151   -1.5400   -1.2232 H   0  0  0  0  0  0  0  0  0  0  0  0
  1 15  1  0  0  0  0
  1 23  1  0  0  0  0
  2 16  1  0  0  0  0
  2 24  1  0  0  0  0
  3 15  2  0  0  0  0
  4 16  2  0  0  0  0
  5  6  2  0  0  0  0
  5  7  1  0  0  0  0
  5  8  1  0  0  0  0
  6  9  1  0  0  0  0
  6 10  1  0  0  0  0
  7 11  2  0  0  0  0
  7 15  1  0  0  0  0
  8 12  2  0  0  0  0
  8 16  1  0  0  0  0
  9 13  2  0  0  0  0
  9 17  1  0  0  0  0
 10 14  2  0  0  0  0
 10 18  1  0  0  0  0
 11 13  1  0  0  0  0
 11 19  1  0  0  0  0
 12 14  1  0  0  0  0
 12 20  1  0  0  0  0
 13 21  1  0  0  0  0
 14 22  1  0  0  0  0
M  END
> <PUBCHEM_COMPOUND_CID>
68204

> <PUBCHEM_CONFORMER_RMSD>
0.6

> <PUBCHEM_CONFORMER_DIVERSEORDER>
1

> <PUBCHEM_MMFF94_PARTIAL_CHARGES>
22
1 -0.65
10 -0.15
11 -0.15
12 -0.15
13 -0.15
14 -0.15
15 0.63
16 0.63
17 0.15
18 0.15
19 0.15
2 -0.65
20 0.15
21 0.15
22 0.15
23 0.5
24 0.5
3 -0.57
4 -0.57
7 0.09
8 0.09
9 -0.15

> <PUBCHEM_EFFECTIVE_ROTOR_COUNT>
2

> <PUBCHEM_PHARMACOPHORE_FEATURES>
8
1 1 acceptor
1 2 acceptor
1 3 acceptor
1 4 acceptor
3 1 3 15 anion
3 2 4 16 anion
6 5 6 7 9 11 13 rings
6 5 6 8 10 12 14 rings

> <PUBCHEM_HEAVY_ATOM_COUNT>
16

> <PUBCHEM_ATOM_DEF_STEREO_COUNT>
0

> <PUBCHEM_ATOM_UDEF_STEREO_COUNT>
0

> <PUBCHEM_BOND_DEF_STEREO_COUNT>
0

> <PUBCHEM_BOND_UDEF_STEREO_COUNT>
0

> <PUBCHEM_ISOTOPIC_ATOM_COUNT>
0

> <PUBCHEM_COMPONENT_COUNT>
1

> <PUBCHEM_CACTVS_TAUTO_COUNT>
1

> <PUBCHEM_CONFORMER_ID>
00010A6C00000001

> <PUBCHEM_MMFF94_ENERGY>
64.1012

> <PUBCHEM_FEATURE_SELFOVERLAP>
40.745

> <PUBCHEM_SHAPE_FINGERPRINT>
10967382 1 17329428346603703589
12382932 28 18267579298414307985
12423570 1 17774425093283770343
12524768 44 18342182218921266903
13140716 1 18410575042193415353
13172582 1 17976820887253154043
14790565 3 17764051085339063412
16945 1 18121778606347395211
193761 8 18410293614181776135
20511035 2 18342163436949763988
20645477 70 16899050362935769983
20905425 154 18341055223897711454
21501502 16 18410011035245502597
22802520 49 18200048333518229806
2334 1 18410293644457543779
23388829 49 17836913865347860555
23419403 2 16034832809947013529
23463225 33 18119237604900310456
23559900 14 17839465484719941198
2748010 2 18410293610103080279
2897 32 17905891374965662861
5255222 1 18340491170048251457
53812653 166 17764861403685289697
589210 1 18411699885074118017

> <PUBCHEM_SHAPE_MULTIPOLES>
305.8
3.61
3.24
0.84
0.27
0
0
0
0
-0.75
0
0.54
0
0.07

> <PUBCHEM_SHAPE_SELFOVERLAP>
681.216

> <PUBCHEM_SHAPE_VOLUME>
162.8

> <PUBCHEM_COORDINATE_TYPE>
2
5
10

$$$$
