142292
  -OEChem-11012400333D

 36 35  0     1  0  0  0  0  0999 V2000
   -2.8848   -0.7264   -0.3833 O   0  0  0  0  0  0  0  0  0  0  0  0
   -1.7704    0.0567    0.1312 O   0  0  0  0  0  0  0  0  0  0  0  0
    3.0373    0.1522    0.1995 O   0  0  0  0  0  0  0  0  0  0  0  0
    0.6432    1.4244   -0.3818 O   0  0  0  0  0  0  0  0  0  0  0  0
   -4.0560   -0.0365    0.0548 C   0  0  0  0  0  0  0  0  0  0  0  0
    0.6389    0.1115    0.1836 C   0  0  1  0  0  0  0  0  0  0  0  0
   -0.6033   -0.6265   -0.3027 C   0  0  0  0  0  0  0  0  0  0  0  0
    1.9144   -0.5943   -0.2574 C   0  0  0  0  0  0  0  0  0  0  0  0
   -4.0559    0.0007    1.5823 C   0  0  0  0  0  0  0  0  0  0  0  0
   -5.2665   -0.8100   -0.4634 C   0  0  0  0  0  0  0  0  0  0  0  0
   -4.0329    1.3772   -0.5247 C   0  0  0  0  0  0  0  0  0  0  0  0
    4.2595   -0.4717   -0.1667 C   0  0  0  0  0  0  0  0  0  0  0  0
    5.4158    0.3715    0.3486 C   0  0  0  0  0  0  0  0  0  0  0  0
    6.7606   -0.2286   -0.0201 C   0  0  0  0  0  0  0  0  0  0  0  0
    0.6119    0.2399    1.2715 H   0  0  0  0  0  0  0  0  0  0  0  0
   -0.6183   -1.6490    0.0914 H   0  0  0  0  0  0  0  0  0  0  0  0
   -0.6177   -0.6636   -1.3984 H   0  0  0  0  0  0  0  0  0  0  0  0
    1.9553   -0.6512   -1.3519 H   0  0  0  0  0  0  0  0  0  0  0  0
    1.9489   -1.6079    0.1583 H   0  0  0  0  0  0  0  0  0  0  0  0
   -3.2371    0.6059    1.9867 H   0  0  0  0  0  0  0  0  0  0  0  0
   -4.9921    0.4199    1.9670 H   0  0  0  0  0  0  0  0  0  0  0  0
   -3.9345   -1.0071    1.9959 H   0  0  0  0  0  0  0  0  0  0  0  0
   -5.2604   -1.8398   -0.0878 H   0  0  0  0  0  0  0  0  0  0  0  0
   -5.2449   -0.8797   -1.5571 H   0  0  0  0  0  0  0  0  0  0  0  0
   -6.2080   -0.3376   -0.1647 H   0  0  0  0  0  0  0  0  0  0  0  0
   -3.8916    1.3499   -1.6113 H   0  0  0  0  0  0  0  0  0  0  0  0
   -4.9688    1.9057   -0.3128 H   0  0  0  0  0  0  0  0  0  0  0  0
   -3.2168    1.9842   -0.1177 H   0  0  0  0  0  0  0  0  0  0  0  0
    4.3047   -1.4766    0.2692 H   0  0  0  0  0  0  0  0  0  0  0  0
    4.3150   -0.5575   -1.2583 H   0  0  0  0  0  0  0  0  0  0  0  0
    5.3395    0.4742    1.4378 H   0  0  0  0  0  0  0  0  0  0  0  0
    5.3387    1.3880   -0.0557 H   0  0  0  0  0  0  0  0  0  0  0  0
    1.4488    1.8722   -0.0715 H   0  0  0  0  0  0  0  0  0  0  0  0
    6.8726   -0.3029   -1.1064 H   0  0  0  0  0  0  0  0  0  0  0  0
    7.5729    0.3970    0.3629 H   0  0  0  0  0  0  0  0  0  0  0  0
    6.8735   -1.2303    0.4066 H   0  0  0  0  0  0  0  0  0  0  0  0
  1  2  1  0  0  0  0
  1  5  1  0  0  0  0
  2  7  1  0  0  0  0
  3  8  1  0  0  0  0
  3 12  1  0  0  0  0
  4  6  1  0  0  0  0
  4 33  1  0  0  0  0
  5  9  1  0  0  0  0
  5 10  1  0  0  0  0
  5 11  1  0  0  0  0
  6  7  1  0  0  0  0
  6  8  1  0  0  0  0
  6 15  1  0  0  0  0
  7 16  1  0  0  0  0
  7 17  1  0  0  0  0
  8 18  1  0  0  0  0
  8 19  1  0  0  0  0
  9 20  1  0  0  0  0
  9 21  1  0  0  0  0
  9 22  1  0  0  0  0
 10 23  1  0  0  0  0
 10 24  1  0  0  0  0
 10 25  1  0  0  0  0
 11 26  1  0  0  0  0
 11 27  1  0  0  0  0
 11 28  1  0  0  0  0
 12 13  1  0  0  0  0
 12 29  1  0  0  0  0
 12 30  1  0  0  0  0
 13 14  1  0  0  0  0
 13 31  1  0  0  0  0
 13 32  1  0  0  0  0
 14 34  1  0  0  0  0
 14 35  1  0  0  0  0
 14 36  1  0  0  0  0
M  END
> <PUBCHEM_COMPOUND_CID>
142292

> <PUBCHEM_CONFORMER_RMSD>
0.8

> <PUBCHEM_CONFORMER_DIVERSEORDER>
1
100
106
23
81
60
99
104
83
118
22
115
88
58
89
45
101
95
84
121
36
48
112
119
114
92
17
34
63
82
54
67
70
30
103
66
76
10
4
98
32
109
6
75
72
49
7
120
21
50
90
51
42
44
79
43
3
69
27
102
5
108
111
41
74
64
13
73
20
29
14
24
86
8
85
93
77
56
15
105
33
2
68
65
31
107
16
38
91
110
52
78
28
25
117
97
37
62
80
53
96
18
113
87
9
19
55
39
11
35
26
61
40
71
94
116
57
47
12
46
59

> <PUBCHEM_MMFF94_PARTIAL_CHARGES>
10
1 -0.28
12 0.28
2 -0.28
3 -0.56
33 0.4
4 -0.68
5 0.28
6 0.28
7 0.28
8 0.28

> <PUBCHEM_EFFECTIVE_ROTOR_COUNT>
8

> <PUBCHEM_PHARMACOPHORE_FEATURES>
5
1 14 hydrophobe
1 3 acceptor
1 4 acceptor
1 4 donor
4 5 9 10 11 hydrophobe

> <PUBCHEM_HEAVY_ATOM_COUNT>
14

> <PUBCHEM_ATOM_DEF_STEREO_COUNT>
0

> <PUBCHEM_ATOM_UDEF_STEREO_COUNT>
1

> <PUBCHEM_BOND_DEF_STEREO_COUNT>
0

> <PUBCHEM_BOND_UDEF_STEREO_COUNT>
0

> <PUBCHEM_ISOTOPIC_ATOM_COUNT>
0

> <PUBCHEM_COMPONENT_COUNT>
1

> <PUBCHEM_CACTVS_TAUTO_COUNT>
1

> <PUBCHEM_CONFORMER_ID>
00022BD400000001

> <PUBCHEM_MMFF94_ENERGY>
22.2974

> <PUBCHEM_FEATURE_SELFOVERLAP>
25.376

> <PUBCHEM_SHAPE_FINGERPRINT>
11315181 36 17847061107926343011
11401426 45 18411698785731340862
12091667 2 18333450941234328194
124424 183 17894351090336741921
13533116 47 15625947492043259022
14123238 8 18412262843717798190
1420 363 17894636946211834122
14251718 22 18059853982463932406
14251764 46 17418373601525298646
15048467 5 17489870440759976504
17834072 33 17632572794816788964
17834076 25 17060621105286427918
187816 3 16950282901726147312
19489759 90 17821727226082556241
20281389 69 18342172276504337576
20621476 66 18263366893723850221
20645477 70 17346607322667076662
20767249 13 18408040714993691142
23402539 116 18409162212253074564
42788 4 18413669115206115590
4463277 17 18408322194756187460
8209 1 18342174475232044511

> <PUBCHEM_SHAPE_MULTIPOLES>
264.64
15.33
1.02
0.87
15.11
0.24
0.28
-0.68
0.7
-0.68
-0.18
-0.91
0.03
0.11

> <PUBCHEM_SHAPE_SELFOVERLAP>
485.137

> <PUBCHEM_SHAPE_VOLUME>
170.4

> <PUBCHEM_COORDINATE_TYPE>
2
5
10

$$$$
