135982
  -OEChem-11012400503D

 28 29  0     0  0  0  0  0  0999 V2000
   -0.2622   -0.2872    0.1853 C   0  0  0  0  0  0  0  0  0  0  0  0
   -0.8829   -0.0964   -1.2113 C   0  0  0  0  0  0  0  0  0  0  0  0
   -1.4991   -0.7138    0.9957 C   0  0  0  0  0  0  0  0  0  0  0  0
    0.3360    1.0263    0.7454 C   0  0  0  0  0  0  0  0  0  0  0  0
    0.8106   -1.3911    0.1976 C   0  0  0  0  0  0  0  0  0  0  0  0
   -2.2506    0.5350   -0.9596 C   0  0  0  0  0  0  0  0  0  0  0  0
   -2.6406    0.1491    0.4658 C   0  0  0  0  0  0  0  0  0  0  0  0
    1.6346    1.4393    0.0510 C   0  0  0  0  0  0  0  0  0  0  0  0
    2.0911   -0.9753   -0.5237 C   0  0  0  0  0  0  0  0  0  0  0  0
    2.6630    0.3142    0.0538 C   0  0  0  0  0  0  0  0  0  0  0  0
   -1.0277   -1.0685   -1.7004 H   0  0  0  0  0  0  0  0  0  0  0  0
   -0.2779    0.5154   -1.8864 H   0  0  0  0  0  0  0  0  0  0  0  0
   -1.3670   -0.5942    2.0761 H   0  0  0  0  0  0  0  0  0  0  0  0
   -1.7342   -1.7699    0.8100 H   0  0  0  0  0  0  0  0  0  0  0  0
    0.5449    0.8960    1.8158 H   0  0  0  0  0  0  0  0  0  0  0  0
   -0.3794    1.8536    0.6734 H   0  0  0  0  0  0  0  0  0  0  0  0
    0.4238   -2.3096   -0.2612 H   0  0  0  0  0  0  0  0  0  0  0  0
    1.0568   -1.6463    1.2369 H   0  0  0  0  0  0  0  0  0  0  0  0
   -2.9875    0.1854   -1.6901 H   0  0  0  0  0  0  0  0  0  0  0  0
   -2.1943    1.6258   -1.0503 H   0  0  0  0  0  0  0  0  0  0  0  0
   -2.7575    1.0504    1.0784 H   0  0  0  0  0  0  0  0  0  0  0  0
   -3.5929   -0.3901    0.4950 H   0  0  0  0  0  0  0  0  0  0  0  0
    2.0538    2.3170    0.5564 H   0  0  0  0  0  0  0  0  0  0  0  0
    1.4270    1.7443   -0.9810 H   0  0  0  0  0  0  0  0  0  0  0  0
    1.8906   -0.8436   -1.5937 H   0  0  0  0  0  0  0  0  0  0  0  0
    2.8352   -1.7754   -0.4377 H   0  0  0  0  0  0  0  0  0  0  0  0
    3.5444    0.6183   -0.5219 H   0  0  0  0  0  0  0  0  0  0  0  0
    3.0011    0.1336    1.0817 H   0  0  0  0  0  0  0  0  0  0  0  0
  1  2  1  0  0  0  0
  1  3  1  0  0  0  0
  1  4  1  0  0  0  0
  1  5  1  0  0  0  0
  2  6  1  0  0  0  0
  2 11  1  0  0  0  0
  2 12  1  0  0  0  0
  3  7  1  0  0  0  0
  3 13  1  0  0  0  0
  3 14  1  0  0  0  0
  4  8  1  0  0  0  0
  4 15  1  0  0  0  0
  4 16  1  0  0  0  0
  5  9  1  0  0  0  0
  5 17  1  0  0  0  0
  5 18  1  0  0  0  0
  6  7  1  0  0  0  0
  6 19  1  0  0  0  0
  6 20  1  0  0  0  0
  7 21  1  0  0  0  0
  7 22  1  0  0  0  0
  8 10  1  0  0  0  0
  8 23  1  0  0  0  0
  8 24  1  0  0  0  0
  9 10  1  0  0  0  0
  9 25  1  0  0  0  0
  9 26  1  0  0  0  0
 10 27  1  0  0  0  0
 10 28  1  0  0  0  0
M  END
> <PUBCHEM_COMPOUND_CID>
135982

> <PUBCHEM_CONFORMER_RMSD>
0.4

> <PUBCHEM_CONFORMER_DIVERSEORDER>
1
3
2
4

> <PUBCHEM_MMFF94_PARTIAL_CHARGES>
0

> <PUBCHEM_EFFECTIVE_ROTOR_COUNT>
1.8

> <PUBCHEM_PHARMACOPHORE_FEATURES>
2
5 1 2 3 6 7 rings
6 1 4 5 8 9 10 rings

> <PUBCHEM_HEAVY_ATOM_COUNT>
10

> <PUBCHEM_ATOM_DEF_STEREO_COUNT>
0

> <PUBCHEM_ATOM_UDEF_STEREO_COUNT>
0

> <PUBCHEM_BOND_DEF_STEREO_COUNT>
0

> <PUBCHEM_BOND_UDEF_STEREO_COUNT>
0

> <PUBCHEM_ISOTOPIC_ATOM_COUNT>
0

> <PUBCHEM_COMPONENT_COUNT>
1

> <PUBCHEM_CACTVS_TAUTO_COUNT>
1

> <PUBCHEM_CONFORMER_ID>
0002132E00000001

> <PUBCHEM_MMFF94_ENERGY>
17.53

> <PUBCHEM_FEATURE_SELFOVERLAP>
10.154

> <PUBCHEM_SHAPE_FINGERPRINT>
10857977 72 16950289537302770537
12423570 1 11570385060753937227
12932764 1 17967254186877584003
13839132 238 17386274381738744869
14128692 85 17059755819525981831
14993402 34 17275385387050675709
15775835 57 17632299003215044977
16945 1 18410293583927120498
17844478 74 18041573489482447673
18185500 45 17704065205280892414
20201158 50 18335138661476157738
20645464 45 18040990773767711808
21040471 1 18196370544685892360
23235685 24 18339924913175539168
23552423 10 16701467762134616311
2748010 2 18125162894684911704
29004967 10 18411422795417330770
369184 2 18409448089587146075
5084963 1 18265891539306899353
528886 8 18272366481768229522
63268167 104 18131631188188746968

> <PUBCHEM_SHAPE_MULTIPOLES>
205.8
3.62
1.32
1.07
0.09
0.02
0.13
0.31
0.19
-0.61
-0.1
0.46
-0.01
0.32

> <PUBCHEM_SHAPE_SELFOVERLAP>
416.69

> <PUBCHEM_SHAPE_VOLUME>
117.1

> <PUBCHEM_COORDINATE_TYPE>
2
5
10

$$$$
