101941208
  -OEChem-10312421022D

 41 46  0     1  0  0  0  0  0999 V2000
    4.3402   -0.8965    0.0000 C   0  0  3  0  0  0  0  0  0  0  0  0
    3.8397   -1.7718    0.0000 C   0  0  0  0  0  0  0  0  0  0  0  0
    3.4742   -0.3965    0.0000 C   0  0  3  0  0  0  0  0  0  0  0  0
    5.2062   -0.3965    0.0000 C   0  0  3  0  0  0  0  0  0  0  0  0
    3.4742    0.6035    0.0000 C   0  0  3  0  0  0  0  0  0  0  0  0
    2.9665   -1.2676    0.0000 C   0  0  3  0  0  0  0  0  0  0  0  0
    5.2062    0.6035    0.0000 C   0  0  3  0  0  0  0  0  0  0  0  0
    4.3402    1.1035    0.0000 C   0  0  3  0  0  0  0  0  0  0  0  0
    2.8530   -0.1786    0.0000 C   0  0  0  0  0  0  0  0  0  0  0  0
    4.5482   -2.4774    0.0000 C   0  0  0  0  0  0  0  0  0  0  0  0
    3.5828   -2.7382    0.0000 C   0  0  0  0  0  0  0  0  0  0  0  0
    5.9432    1.2706    0.0000 C   0  0  3  0  0  0  0  0  0  0  0  0
    4.5494    2.0753    0.0000 C   0  0  3  0  0  0  0  0  0  0  0  0
    5.5381    2.1784    0.0000 C   0  0  0  0  0  0  0  0  0  0  0  0
    6.1480    2.2419    0.0000 C   0  0  0  0  0  0  0  0  0  0  0  0
    5.2883    2.7382    0.0000 C   0  0  0  0  0  0  0  0  0  0  0  0
    2.0000   -1.5245    0.0000 C   0  0  0  0  0  0  0  0  0  0  0  0
    4.7795   -1.3340    0.0000 H   0  0  0  0  0  0  0  0  0  0  0  0
    4.0111   -0.0865    0.0000 H   0  0  0  0  0  0  0  0  0  0  0  0
    5.7432   -0.7065    0.0000 H   0  0  0  0  0  0  0  0  0  0  0  0
    3.0693    1.0730    0.0000 H   0  0  0  0  0  0  0  0  0  0  0  0
    2.5905   -0.7746    0.0000 H   0  0  0  0  0  0  0  0  0  0  0  0
    5.7730    0.3520    0.0000 H   0  0  0  0  0  0  0  0  0  0  0  0
    3.8391    1.4686    0.0000 H   0  0  0  0  0  0  0  0  0  0  0  0
    2.3025    0.1068    0.0000 H   0  0  0  0  0  0  0  0  0  0  0  0
    2.6784   -0.7735    0.0000 H   0  0  0  0  0  0  0  0  0  0  0  0
    4.8114   -3.0388    0.0000 H   0  0  0  0  0  0  0  0  0  0  0  0
    5.0554   -2.1208    0.0000 H   0  0  0  0  0  0  0  0  0  0  0  0
    2.9651   -2.6855    0.0000 H   0  0  0  0  0  0  0  0  0  0  0  0
    3.6381   -3.3558    0.0000 H   0  0  0  0  0  0  0  0  0  0  0  0
    6.4809    0.9617    0.0000 H   0  0  0  0  0  0  0  0  0  0  0  0
    4.0132    2.3864    0.0000 H   0  0  0  0  0  0  0  0  0  0  0  0
    6.1277    2.3701    0.0000 H   0  0  0  0  0  0  0  0  0  0  0  0
    5.4094    2.7848    0.0000 H   0  0  0  0  0  0  0  0  0  0  0  0
    6.7378    2.0510    0.0000 H   0  0  0  0  0  0  0  0  0  0  0  0
    6.3998    2.8084    0.0000 H   0  0  0  0  0  0  0  0  0  0  0  0
    5.6530    3.2396    0.0000 H   0  0  0  0  0  0  0  0  0  0  0  0
    4.8280    3.1536    0.0000 H   0  0  0  0  0  0  0  0  0  0  0  0
    1.8408   -0.9253    0.0000 H   0  0  0  0  0  0  0  0  0  0  0  0
    1.4008   -1.6837    0.0000 H   0  0  0  0  0  0  0  0  0  0  0  0
    2.1592   -2.1237    0.0000 H   0  0  0  0  0  0  0  0  0  0  0  0
  1  2  1  0  0  0  0
  1  3  1  0  0  0  0
  1  4  1  0  0  0  0
  1 18  1  0  0  0  0
  2  6  1  0  0  0  0
  2 10  1  0  0  0  0
  2 11  1  0  0  0  0
  3  5  1  0  0  0  0
  3  6  1  0  0  0  0
  3 19  1  0  0  0  0
  4  7  1  0  0  0  0
  4  9  1  0  0  0  0
  4 20  1  0  0  0  0
  5  8  1  0  0  0  0
  5  9  1  0  0  0  0
  5 21  1  0  0  0  0
  6 17  1  0  0  0  0
  6 22  1  0  0  0  0
  7  8  1  0  0  0  0
  7 12  1  0  0  0  0
  7 23  1  0  0  0  0
  8 13  1  0  0  0  0
  8 24  1  0  0  0  0
  9 25  1  0  0  0  0
  9 26  1  0  0  0  0
 10 11  1  0  0  0  0
 10 27  1  0  0  0  0
 10 28  1  0  0  0  0
 11 29  1  0  0  0  0
 11 30  1  0  0  0  0
 12 14  1  0  0  0  0
 12 15  1  0  0  0  0
 12 31  1  0  0  0  0
 13 14  1  0  0  0  0
 13 16  1  0  0  0  0
 13 32  1  0  0  0  0
 14 33  1  0  0  0  0
 14 34  1  0  0  0  0
 15 16  1  0  0  0  0
 15 35  1  0  0  0  0
 15 36  1  0  0  0  0
 16 37  1  0  0  0  0
 16 38  1  0  0  0  0
 17 39  1  0  0  0  0
 17 40  1  0  0  0  0
 17 41  1  0  0  0  0
M  END
> <PUBCHEM_COMPOUND_CID>
101941208

> <PUBCHEM_COMPOUND_CANONICALIZED>
1

> <PUBCHEM_CACTVS_COMPLEXITY>
406

> <PUBCHEM_CACTVS_HBOND_ACCEPTOR>
0

> <PUBCHEM_CACTVS_HBOND_DONOR>
0

> <PUBCHEM_CACTVS_ROTATABLE_BOND>
0

> <PUBCHEM_CACTVS_SUBSKEYS>
AAADceB4AAAAAAAAAAAAAAAAGABgAYMGDAAwYAAABgAYAAAAAAAAGAAAAAAADwCAAAACAAAAAAAAAAAAAAAAAAAAAAAAAAAAAAAAAAIAAAAAAAAAAAAAAAEAgMAPgAAAAAAAAACAAAQAACAAAQAACAAAAA==

> <PUBCHEM_IUPAC_OPENEYE_NAME>
11'-methylspiro[cyclopropane-1,10'-pentacyclo[6.4.1.13,6.02,7.09,12]tetradecane]

> <PUBCHEM_IUPAC_CAS_NAME>
11'-methylspiro[cyclopropane-1,10'-pentacyclo[6.4.1.13,6.02,7.09,12]tetradecane]

> <PUBCHEM_IUPAC_NAME_MARKUP>
11&apos;-methylspiro[cyclopropane-1,10&apos;-pentacyclo[6.4.1.1<SUP>3,6</SUP>.0<SUP>2,7</SUP>.0<SUP>9,12</SUP>]tetradecane]

> <PUBCHEM_IUPAC_NAME>
11'-methylspiro[cyclopropane-1,10'-pentacyclo[6.4.1.13,6.02,7.09,12]tetradecane]

> <PUBCHEM_IUPAC_SYSTEMATIC_NAME>
11'-methylspiro[cyclopropane-1,10'-pentacyclo[6.4.1.13,6.02,7.09,12]tetradecane]

> <PUBCHEM_IUPAC_TRADITIONAL_NAME>
11'-methylspiro[cyclopropane-1,10'-pentacyclo[6.4.1.13,6.02,7.09,12]tetradecane]

> <PUBCHEM_IUPAC_INCHI>
InChI=1S/C17H24/c1-8-13-11-7-12(16(13)17(8)4-5-17)15-10-3-2-9(6-10)14(11)15/h8-16H,2-7H2,1H3

> <PUBCHEM_IUPAC_INCHIKEY>
QJZUCEYMAPUJDE-UHFFFAOYSA-N

> <PUBCHEM_XLOGP3_AA>
5.1

> <PUBCHEM_EXACT_MASS>
228.187800766

> <PUBCHEM_MOLECULAR_FORMULA>
C17H24

> <PUBCHEM_MOLECULAR_WEIGHT>
228.37

> <PUBCHEM_OPENEYE_CAN_SMILES>
CC1C2C3CC(C2C14CC4)C5C3C6CCC5C6

> <PUBCHEM_OPENEYE_ISO_SMILES>
CC1C2C3CC(C2C14CC4)C5C3C6CCC5C6

> <PUBCHEM_CACTVS_TPSA>
0

> <PUBCHEM_MONOISOTOPIC_WEIGHT>
228.187800766

> <PUBCHEM_TOTAL_CHARGE>
0

> <PUBCHEM_HEAVY_ATOM_COUNT>
17

> <PUBCHEM_ATOM_DEF_STEREO_COUNT>
0

> <PUBCHEM_ATOM_UDEF_STEREO_COUNT>
9

> <PUBCHEM_BOND_DEF_STEREO_COUNT>
0

> <PUBCHEM_BOND_UDEF_STEREO_COUNT>
0

> <PUBCHEM_ISOTOPIC_ATOM_COUNT>
0

> <PUBCHEM_COMPONENT_COUNT>
1

> <PUBCHEM_CACTVS_TAUTO_COUNT>
-1

> <PUBCHEM_COORDINATE_TYPE>
1
5
255

> <PUBCHEM_BONDANNOTATIONS>
1  2  3
12  15  3
13  16  3
3  6  3
4  9  3
5  9  3
6  17  3
7  12  3
8  13  3

$$$$
