123116
  -OEChem-11012400313D

 23 22  0     0  0  0  0  0  0999 V2000
    0.7742   -1.8480    0.7622 F   0  0  0  0  0  0  0  0  0  0  0  0
   -0.7741   -1.8482   -0.7616 F   0  0  0  0  0  0  0  0  0  0  0  0
    1.5857   -1.1217   -1.7121 F   0  0  0  0  0  0  0  0  0  0  0  0
    0.1376    0.4921   -1.7922 F   0  0  0  0  0  0  0  0  0  0  0  0
   -1.5856   -1.1209    1.7126 F   0  0  0  0  0  0  0  0  0  0  0  0
   -0.1374    0.4929    1.7917 F   0  0  0  0  0  0  0  0  0  0  0  0
    3.0192   -0.0059    0.0768 O   0  0  0  0  0  0  0  0  0  0  0  0
   -3.0193   -0.0060   -0.0767 O   0  0  0  0  0  0  0  0  0  0  0  0
    1.6131    1.8238    0.1092 O   0  0  0  0  0  0  0  0  0  0  0  0
   -1.6132    1.8237   -0.1097 O   0  0  0  0  0  0  0  0  0  0  0  0
    0.0001   -1.0256    0.0002 C   0  0  0  0  0  0  0  0  0  0  0  0
    0.9048   -0.2327   -0.9334 C   0  0  0  0  0  0  0  0  0  0  0  0
   -0.9047   -0.2325    0.9335 C   0  0  0  0  0  0  0  0  0  0  0  0
    1.8654    0.6659   -0.1978 C   0  0  0  0  0  0  0  0  0  0  0  0
   -1.8655    0.6659    0.1975 C   0  0  0  0  0  0  0  0  0  0  0  0
    4.0099    0.7388    0.7921 C   0  0  0  0  0  0  0  0  0  0  0  0
   -4.0102    0.7384   -0.7922 C   0  0  0  0  0  0  0  0  0  0  0  0
    4.3230    1.6102    0.2092 H   0  0  0  0  0  0  0  0  0  0  0  0
    4.8764    0.0905    0.9471 H   0  0  0  0  0  0  0  0  0  0  0  0
    3.6216    1.0453    1.7680 H   0  0  0  0  0  0  0  0  0  0  0  0
   -3.6219    1.0446   -1.7683 H   0  0  0  0  0  0  0  0  0  0  0  0
   -4.3232    1.6100   -0.2094 H   0  0  0  0  0  0  0  0  0  0  0  0
   -4.8766    0.0900   -0.9469 H   0  0  0  0  0  0  0  0  0  0  0  0
  1 11  1  0  0  0  0
  2 11  1  0  0  0  0
  3 12  1  0  0  0  0
  4 12  1  0  0  0  0
  5 13  1  0  0  0  0
  6 13  1  0  0  0  0
  7 14  1  0  0  0  0
  7 16  1  0  0  0  0
  8 15  1  0  0  0  0
  8 17  1  0  0  0  0
  9 14  2  0  0  0  0
 10 15  2  0  0  0  0
 11 12  1  0  0  0  0
 11 13  1  0  0  0  0
 12 14  1  0  0  0  0
 13 15  1  0  0  0  0
 16 18  1  0  0  0  0
 16 19  1  0  0  0  0
 16 20  1  0  0  0  0
 17 21  1  0  0  0  0
 17 22  1  0  0  0  0
 17 23  1  0  0  0  0
M  END
> <PUBCHEM_COMPOUND_CID>
123116

> <PUBCHEM_CONFORMER_RMSD>
0.8

> <PUBCHEM_CONFORMER_DIVERSEORDER>
1
21
29
19
26
17
20
22
30
16
24
32
15
27
28
34
4
18
3
6
31
35
25
5
33
2
7
10
13
12
8
23
11
9
14

> <PUBCHEM_MMFF94_PARTIAL_CHARGES>
17
1 -0.34
10 -0.57
11 0.68
12 0.74
13 0.74
14 0.66
15 0.66
16 0.28
17 0.28
2 -0.34
3 -0.34
4 -0.34
5 -0.34
6 -0.34
7 -0.43
8 -0.43
9 -0.57

> <PUBCHEM_EFFECTIVE_ROTOR_COUNT>
6

> <PUBCHEM_PHARMACOPHORE_FEATURES>
2
1 10 acceptor
1 9 acceptor

> <PUBCHEM_HEAVY_ATOM_COUNT>
17

> <PUBCHEM_ATOM_DEF_STEREO_COUNT>
0

> <PUBCHEM_ATOM_UDEF_STEREO_COUNT>
0

> <PUBCHEM_BOND_DEF_STEREO_COUNT>
0

> <PUBCHEM_BOND_UDEF_STEREO_COUNT>
0

> <PUBCHEM_ISOTOPIC_ATOM_COUNT>
0

> <PUBCHEM_COMPONENT_COUNT>
1

> <PUBCHEM_CACTVS_TAUTO_COUNT>
1

> <PUBCHEM_CONFORMER_ID>
0001E0EC00000001

> <PUBCHEM_MMFF94_ENERGY>
16.35

> <PUBCHEM_FEATURE_SELFOVERLAP>
10.149

> <PUBCHEM_SHAPE_FINGERPRINT>
12119455 92 18261658316518801652
12138202 97 18272653505726876119
12423570 1 16980930499707110486
124424 183 18333732416511790800
13024252 1 18041831939023309930
13299463 15 10807941461651579624
13380536 127 14261079709721253155
13464513 79 13541881578245895901
13571099 52 18272092638869613760
15061688 2 18040987436857970661
15775835 57 18410571790423266821
15852999 172 18113904831756079299
16945 1 18338812159741433926
18186145 218 18200887170975477893
18511873 20 15719111361656184204
22344851 262 18040713692532014871
228727 97 14979961371522847930
23402539 116 18340192060025364469
23419403 2 13180178643628094862
2748010 2 18118706510666588861
305870 269 17532083891631913737
5084963 1 17831064304284418274
57812782 119 18410573985151652512
83771 10 9439404631278450077

> <PUBCHEM_SHAPE_MULTIPOLES>
282.73
5.03
1.58
1.4
0
0.18
0
-1.97
0
0
0
0
0.27
0.47

> <PUBCHEM_SHAPE_SELFOVERLAP>
582.003

> <PUBCHEM_SHAPE_VOLUME>
161.1

> <PUBCHEM_COORDINATE_TYPE>
2
5
10

$$$$
