272714
  -OEChem-11012401213D

 12 11  0     0  0  0  0  0  0999 V2000
    1.1763   -0.6634    0.0000 O   0  0  0  0  0  0  0  0  0  0  0  0
    0.4857    1.5445    0.0001 O   0  0  0  0  0  0  0  0  0  0  0  0
   -1.2790   -1.4462    0.0000 O   0  0  0  0  0  0  0  0  0  0  0  0
   -2.0996    0.7192   -0.0001 N   0  0  0  0  0  0  0  0  0  0  0  0
    0.2817    0.3456    0.0001 C   0  0  0  0  0  0  0  0  0  0  0  0
   -1.1153   -0.2366    0.0000 C   0  0  0  0  0  0  0  0  0  0  0  0
    2.5501   -0.2630   -0.0001 C   0  0  0  0  0  0  0  0  0  0  0  0
    3.1675   -1.1653   -0.0002 H   0  0  0  0  0  0  0  0  0  0  0  0
    2.7759    0.3170    0.8999 H   0  0  0  0  0  0  0  0  0  0  0  0
    2.7757    0.3171   -0.9001 H   0  0  0  0  0  0  0  0  0  0  0  0
   -3.0805    0.4598   -0.0002 H   0  0  0  0  0  0  0  0  0  0  0  0
   -1.8904    1.7124   -0.0001 H   0  0  0  0  0  0  0  0  0  0  0  0
  1  5  1  0  0  0  0
  1  7  1  0  0  0  0
  2  5  2  0  0  0  0
  3  6  2  0  0  0  0
  4  6  1  0  0  0  0
  4 11  1  0  0  0  0
  4 12  1  0  0  0  0
  5  6  1  0  0  0  0
  7  8  1  0  0  0  0
  7  9  1  0  0  0  0
  7 10  1  0  0  0  0
M  END
> <PUBCHEM_COMPOUND_CID>
272714

> <PUBCHEM_CONFORMER_RMSD>
0.4

> <PUBCHEM_CONFORMER_DIVERSEORDER>
1
2
3
6
4
5

> <PUBCHEM_MMFF94_PARTIAL_CHARGES>
9
1 -0.43
11 0.37
12 0.37
2 -0.57
3 -0.57
4 -0.8
5 0.72
6 0.63
7 0.28

> <PUBCHEM_EFFECTIVE_ROTOR_COUNT>
2

> <PUBCHEM_PHARMACOPHORE_FEATURES>
3
1 2 acceptor
1 3 acceptor
1 4 donor

> <PUBCHEM_HEAVY_ATOM_COUNT>
7

> <PUBCHEM_ATOM_DEF_STEREO_COUNT>
0

> <PUBCHEM_ATOM_UDEF_STEREO_COUNT>
0

> <PUBCHEM_BOND_DEF_STEREO_COUNT>
0

> <PUBCHEM_BOND_UDEF_STEREO_COUNT>
0

> <PUBCHEM_ISOTOPIC_ATOM_COUNT>
0

> <PUBCHEM_COMPONENT_COUNT>
1

> <PUBCHEM_CACTVS_TAUTO_COUNT>
2

> <PUBCHEM_CONFORMER_ID>
0004294A00000001

> <PUBCHEM_MMFF94_ENERGY>
9.7852

> <PUBCHEM_FEATURE_SELFOVERLAP>
15.223

> <PUBCHEM_SHAPE_FINGERPRINT>
139733 1 9223232948823772706
16714656 1 18337675196099063660
20096714 4 18409731780951610745
21040471 1 18338517413379095137
23552423 10 18187930633359583334
24536 1 18193821859357646473
29004967 10 18410017636816023546
5460574 1 9295282841811265602

> <PUBCHEM_SHAPE_MULTIPOLES>
121.47
2.84
1.26
0.56
0.98
0.08
0
-0.25
0
-0.27
0
0.03
0
0

> <PUBCHEM_SHAPE_SELFOVERLAP>
229.18

> <PUBCHEM_SHAPE_VOLUME>
75.3

> <PUBCHEM_COORDINATE_TYPE>
2
5
10

$$$$
