137105
  -OEChem-11012400593D

 14 14  0     0  0  0  0  0  0999 V2000
    0.6655   -1.2015   -0.0018 N   0  0  0  0  0  0  0  0  0  0  0  0
   -1.4434   -0.0543   -0.0210 N   0  0  0  0  0  0  0  0  0  0  0  0
    0.7109    1.1826   -0.3272 C   0  0  0  0  0  0  0  0  0  0  0  0
    1.4766   -0.0237    0.2075 C   0  0  0  0  0  0  0  0  0  0  0  0
   -0.7118    1.2010    0.2368 C   0  0  0  0  0  0  0  0  0  0  0  0
   -0.6978   -1.1040   -0.0943 C   0  0  0  0  0  0  0  0  0  0  0  0
    0.6635    1.1293   -1.4225 H   0  0  0  0  0  0  0  0  0  0  0  0
    1.2345    2.1089   -0.0675 H   0  0  0  0  0  0  0  0  0  0  0  0
    2.4370   -0.1290   -0.3065 H   0  0  0  0  0  0  0  0  0  0  0  0
    1.6753    0.0947    1.2781 H   0  0  0  0  0  0  0  0  0  0  0  0
   -0.6952    1.3871    1.3171 H   0  0  0  0  0  0  0  0  0  0  0  0
   -1.2675    2.0240   -0.2253 H   0  0  0  0  0  0  0  0  0  0  0  0
    1.1278   -2.1042   -0.0514 H   0  0  0  0  0  0  0  0  0  0  0  0
   -1.1666   -2.0855   -0.2685 H   0  0  0  0  0  0  0  0  0  0  0  0
  1  4  1  0  0  0  0
  1  6  1  0  0  0  0
  1 13  1  0  0  0  0
  2  5  1  0  0  0  0
  2  6  2  0  0  0  0
  3  4  1  0  0  0  0
  3  5  1  0  0  0  0
  3  7  1  0  0  0  0
  3  8  1  0  0  0  0
  4  9  1  0  0  0  0
  4 10  1  0  0  0  0
  5 11  1  0  0  0  0
  5 12  1  0  0  0  0
  6 14  1  0  0  0  0
M  END
> <PUBCHEM_COMPOUND_CID>
137105

> <PUBCHEM_CONFORMER_RMSD>
0.4

> <PUBCHEM_CONFORMER_DIVERSEORDER>
1

> <PUBCHEM_MMFF94_PARTIAL_CHARGES>
7
1 -0.82
13 0.4
14 0.06
2 -0.7
4 0.37
5 0.25
6 0.44

> <PUBCHEM_EFFECTIVE_ROTOR_COUNT>
0.8

> <PUBCHEM_PHARMACOPHORE_FEATURES>
3
1 1 donor
3 1 2 6 cation
6 1 2 3 4 5 6 rings

> <PUBCHEM_HEAVY_ATOM_COUNT>
6

> <PUBCHEM_ATOM_DEF_STEREO_COUNT>
0

> <PUBCHEM_ATOM_UDEF_STEREO_COUNT>
0

> <PUBCHEM_BOND_DEF_STEREO_COUNT>
0

> <PUBCHEM_BOND_UDEF_STEREO_COUNT>
0

> <PUBCHEM_ISOTOPIC_ATOM_COUNT>
0

> <PUBCHEM_COMPONENT_COUNT>
1

> <PUBCHEM_CACTVS_TAUTO_COUNT>
1

> <PUBCHEM_CONFORMER_ID>
0002179100000001

> <PUBCHEM_MMFF94_ENERGY>
5.152

> <PUBCHEM_FEATURE_SELFOVERLAP>
15.223

> <PUBCHEM_SHAPE_FINGERPRINT>
16714656 1 18338527339386074518
20096714 4 18193278713366532252
21015797 1 9223238437607373669
21040471 1 18195247711042989488
5943 1 13803183385049879164

> <PUBCHEM_SHAPE_MULTIPOLES>
113.52
1.61
1.51
0.63
0.04
0.07
0
-0.06
-0.01
-0.01
0.03
0.04
0.04
-0.11

> <PUBCHEM_SHAPE_SELFOVERLAP>
217.675

> <PUBCHEM_SHAPE_VOLUME>
66.1

> <PUBCHEM_COORDINATE_TYPE>
2
5
10

$$$$
