102327
  -OEChem-11012401073D

 21 21  0     1  0  0  0  0  0999 V2000
    0.2742   -1.0357    0.1213 O   0  0  0  0  0  0  0  0  0  0  0  0
    1.0850    1.5096   -1.1718 O   0  0  0  0  0  0  0  0  0  0  0  0
    3.3920    0.6157    0.0232 O   0  0  0  0  0  0  0  0  0  0  0  0
   -1.9127    1.8763    0.1716 O   0  0  0  0  0  0  0  0  0  0  0  0
    2.3203   -2.0509   -0.1384 O   0  0  0  0  0  0  0  0  0  0  0  0
   -2.5267   -1.3806   -1.0034 O   0  0  0  0  0  0  0  0  0  0  0  0
   -3.3187   -0.3914    0.8797 O   0  0  0  0  0  0  0  0  0  0  0  0
   -0.1772    0.2822    0.4921 C   0  0  1  0  0  0  0  0  0  0  0  0
    1.0164    1.1811    0.2116 C   0  0  1  0  0  0  0  0  0  0  0  0
    2.1614    0.2673    0.5972 C   0  0  1  0  0  0  0  0  0  0  0  0
   -1.4384    0.6176   -0.2836 C   0  0  1  0  0  0  0  0  0  0  0  0
    1.6450   -1.0757    0.1486 C   0  0  0  0  0  0  0  0  0  0  0  0
   -2.5205   -0.4155   -0.0482 C   0  0  0  0  0  0  0  0  0  0  0  0
   -0.3833    0.2561    1.5708 H   0  0  0  0  0  0  0  0  0  0  0  0
    1.0096    2.1131    0.7848 H   0  0  0  0  0  0  0  0  0  0  0  0
    2.2773    0.2233    1.6862 H   0  0  0  0  0  0  0  0  0  0  0  0
   -1.2742    0.6841   -1.3642 H   0  0  0  0  0  0  0  0  0  0  0  0
    0.4235    2.2018   -1.3411 H   0  0  0  0  0  0  0  0  0  0  0  0
    3.2518    0.7521   -0.9292 H   0  0  0  0  0  0  0  0  0  0  0  0
   -2.0279    1.8281    1.1361 H   0  0  0  0  0  0  0  0  0  0  0  0
   -3.2348   -2.0420   -0.8504 H   0  0  0  0  0  0  0  0  0  0  0  0
  1  8  1  0  0  0  0
  1 12  1  0  0  0  0
  2  9  1  0  0  0  0
  2 18  1  0  0  0  0
  3 10  1  0  0  0  0
  3 19  1  0  0  0  0
  4 11  1  0  0  0  0
  4 20  1  0  0  0  0
  5 12  2  0  0  0  0
  6 13  1  0  0  0  0
  6 21  1  0  0  0  0
  7 13  2  0  0  0  0
  8  9  1  0  0  0  0
  8 11  1  0  0  0  0
  8 14  1  0  0  0  0
  9 10  1  0  0  0  0
  9 15  1  0  0  0  0
 10 12  1  0  0  0  0
 10 16  1  0  0  0  0
 11 13  1  0  0  0  0
 11 17  1  0  0  0  0
M  END
> <PUBCHEM_COMPOUND_CID>
102327

> <PUBCHEM_CONFORMER_RMSD>
0.6

> <PUBCHEM_CONFORMER_DIVERSEORDER>
1
8
2
7
9
6
4
5
3

> <PUBCHEM_MMFF94_PARTIAL_CHARGES>
17
1 -0.43
10 0.34
11 0.34
12 0.66
13 0.66
18 0.4
19 0.4
2 -0.68
20 0.4
21 0.5
3 -0.68
4 -0.68
5 -0.57
6 -0.65
7 -0.57
8 0.28
9 0.28

> <PUBCHEM_EFFECTIVE_ROTOR_COUNT>
2.8

> <PUBCHEM_PHARMACOPHORE_FEATURES>
11
1 2 acceptor
1 2 donor
1 3 acceptor
1 3 donor
1 4 acceptor
1 4 donor
1 5 acceptor
1 6 acceptor
1 7 acceptor
3 6 7 13 anion
5 1 8 9 10 12 rings

> <PUBCHEM_HEAVY_ATOM_COUNT>
13

> <PUBCHEM_ATOM_DEF_STEREO_COUNT>
4

> <PUBCHEM_ATOM_UDEF_STEREO_COUNT>
0

> <PUBCHEM_BOND_DEF_STEREO_COUNT>
0

> <PUBCHEM_BOND_UDEF_STEREO_COUNT>
0

> <PUBCHEM_ISOTOPIC_ATOM_COUNT>
0

> <PUBCHEM_COMPONENT_COUNT>
1

> <PUBCHEM_CACTVS_TAUTO_COUNT>
6

> <PUBCHEM_CONFORMER_ID>
00018FB700000001

> <PUBCHEM_MMFF94_ENERGY>
17.7131

> <PUBCHEM_FEATURE_SELFOVERLAP>
55.9

> <PUBCHEM_SHAPE_FINGERPRINT>
10219947 1 18260542368336117696
12897270 3 18339071691893766157
12932764 1 17918267658120374560
14128692 85 18342177747770342102
14325111 11 18410854339421454440
15775835 57 18131355236592661515
16945 1 18340476863464358408
17844478 74 18260276247909565051
19973954 147 18337108969085829377
20201158 50 18260545662465426555
20645477 70 18339916014014195863
21501502 16 18338231553430672960
23552423 10 18334575694221431043
2748010 2 18265607689287120646
5084963 1 17822284725464197937

> <PUBCHEM_SHAPE_MULTIPOLES>
226.45
4.64
1.73
0.84
0.94
0.14
-0.08
0.8
0.27
-0.32
-0.27
0.18
-0.06
-0.22

> <PUBCHEM_SHAPE_SELFOVERLAP>
467.609

> <PUBCHEM_SHAPE_VOLUME>
129.8

> <PUBCHEM_COORDINATE_TYPE>
2
5
10

$$$$
