18745
  -OEChem-11012400423D

 22 21  0     0  0  0  0  0  0999 V2000
   -2.9718   -0.5410    0.0001 N   0  0  0  0  0  0  0  0  0  0  0  0
    2.9722    0.5402    0.0002 N   0  0  0  0  0  0  0  0  0  0  0  0
   -0.5624    0.5619   -0.0001 C   0  0  0  0  0  0  0  0  0  0  0  0
    0.5623   -0.5617    0.0000 C   0  0  0  0  0  0  0  0  0  0  0  0
   -0.4770    1.4742   -1.2476 C   0  0  0  0  0  0  0  0  0  0  0  0
   -0.4772    1.4742    1.2475 C   0  0  0  0  0  0  0  0  0  0  0  0
    0.4770   -1.4740   -1.2476 C   0  0  0  0  0  0  0  0  0  0  0  0
    0.4771   -1.4739    1.2476 C   0  0  0  0  0  0  0  0  0  0  0  0
   -1.9155   -0.0603   -0.0001 C   0  0  0  0  0  0  0  0  0  0  0  0
    1.9153    0.0604    0.0000 C   0  0  0  0  0  0  0  0  0  0  0  0
    0.4905    1.9821   -1.3165 H   0  0  0  0  0  0  0  0  0  0  0  0
   -1.2494    2.2535   -1.2186 H   0  0  0  0  0  0  0  0  0  0  0  0
   -0.6377    0.9169   -2.1767 H   0  0  0  0  0  0  0  0  0  0  0  0
    0.4903    1.9820    1.3167 H   0  0  0  0  0  0  0  0  0  0  0  0
   -0.6382    0.9168    2.1765 H   0  0  0  0  0  0  0  0  0  0  0  0
   -1.2497    2.2534    1.2185 H   0  0  0  0  0  0  0  0  0  0  0  0
    1.2495   -2.2532   -1.2186 H   0  0  0  0  0  0  0  0  0  0  0  0
    0.6378   -0.9167   -2.1767 H   0  0  0  0  0  0  0  0  0  0  0  0
   -0.4904   -1.9819   -1.3167 H   0  0  0  0  0  0  0  0  0  0  0  0
    0.6379   -0.9166    2.1766 H   0  0  0  0  0  0  0  0  0  0  0  0
    1.2495   -2.2532    1.2186 H   0  0  0  0  0  0  0  0  0  0  0  0
   -0.4904   -1.9818    1.3168 H   0  0  0  0  0  0  0  0  0  0  0  0
  1  9  3  0  0  0  0
  2 10  3  0  0  0  0
  3  4  1  0  0  0  0
  3  5  1  0  0  0  0
  3  6  1  0  0  0  0
  3  9  1  0  0  0  0
  4  7  1  0  0  0  0
  4  8  1  0  0  0  0
  4 10  1  0  0  0  0
  5 11  1  0  0  0  0
  5 12  1  0  0  0  0
  5 13  1  0  0  0  0
  6 14  1  0  0  0  0
  6 15  1  0  0  0  0
  6 16  1  0  0  0  0
  7 17  1  0  0  0  0
  7 18  1  0  0  0  0
  7 19  1  0  0  0  0
  8 20  1  0  0  0  0
  8 21  1  0  0  0  0
  8 22  1  0  0  0  0
M  END
> <PUBCHEM_COMPOUND_CID>
18745

> <PUBCHEM_CONFORMER_RMSD>
0.4

> <PUBCHEM_CONFORMER_DIVERSEORDER>
1
2
3

> <PUBCHEM_MMFF94_PARTIAL_CHARGES>
6
1 -0.56
10 0.36
2 -0.56
3 0.2
4 0.2
9 0.36

> <PUBCHEM_EFFECTIVE_ROTOR_COUNT>
1

> <PUBCHEM_PHARMACOPHORE_FEATURES>
4
1 1 acceptor
1 2 acceptor
3 3 5 6 hydrophobe
3 4 7 8 hydrophobe

> <PUBCHEM_HEAVY_ATOM_COUNT>
10

> <PUBCHEM_ATOM_DEF_STEREO_COUNT>
0

> <PUBCHEM_ATOM_UDEF_STEREO_COUNT>
0

> <PUBCHEM_BOND_DEF_STEREO_COUNT>
0

> <PUBCHEM_BOND_UDEF_STEREO_COUNT>
0

> <PUBCHEM_ISOTOPIC_ATOM_COUNT>
0

> <PUBCHEM_COMPONENT_COUNT>
1

> <PUBCHEM_CACTVS_TAUTO_COUNT>
1

> <PUBCHEM_CONFORMER_ID>
0000493900000001

> <PUBCHEM_MMFF94_ENERGY>
24.6877

> <PUBCHEM_FEATURE_SELFOVERLAP>
20.312

> <PUBCHEM_SHAPE_FINGERPRINT>
12423570 1 16692994139673427650
12897270 3 18060141998612381980
13024252 1 16153702159119644416
16945 1 18410856606884429830
20082192 1 17835518224024738320
21922407 69 18120938308595953112
24536 1 17626371325512685024
29004967 10 17988928864006807619
369184 2 17676201373167655368
5084963 1 18335140847936089340
528886 8 17704067417078338426
68250623 7 17271753601270043914

> <PUBCHEM_SHAPE_MULTIPOLES>
195.83
2.95
1.62
1.25
0
0
0
0
0
0
0
0
0
0

> <PUBCHEM_SHAPE_SELFOVERLAP>
375.738

> <PUBCHEM_SHAPE_VOLUME>
118.8

> <PUBCHEM_COORDINATE_TYPE>
2
5
10

$$$$
