141182
  -OEChem-11012401133D

 21 21  0     1  0  0  0  0  0999 V2000
    1.3502    0.0406   -1.6088 F   0  0  0  0  0  0  0  0  0  0  0  0
   -4.4614   -0.2113    0.5282 O   0  0  0  0  0  0  0  0  0  0  0  0
   -1.1114   -0.3484   -0.3319 O   0  0  0  0  0  0  0  0  0  0  0  0
    2.5989   -1.4644    1.1289 O   0  5  0  0  0  0  0  0  0  0  0  0
    1.1983    1.3732    1.5384 O   0  5  0  0  0  0  0  0  0  0  0  0
    3.5733   -0.4642   -0.5682 O   0  0  0  0  0  0  0  0  0  0  0  0
    1.2320    2.2106   -0.4935 O   0  0  0  0  0  0  0  0  0  0  0  0
    2.5855   -0.7359    0.1272 N   0  3  0  0  0  0  0  0  0  0  0  0
    1.2286    1.2644    0.3050 N   0  3  0  0  0  0  0  0  0  0  0  0
   -3.4947   -0.4029   -0.4945 C   0  0  1  0  0  0  0  0  0  0  0  0
   -3.8020    0.9555    0.0198 C   0  0  0  0  0  0  0  0  0  0  0  0
   -2.2569   -1.1186    0.0026 C   0  0  0  0  0  0  0  0  0  0  0  0
    0.0863   -0.9765    0.1133 C   0  0  0  0  0  0  0  0  0  0  0  0
    1.2732   -0.1222   -0.2664 C   0  0  0  0  0  0  0  0  0  0  0  0
   -3.8134   -0.6802   -1.4878 H   0  0  0  0  0  0  0  0  0  0  0  0
   -3.0917    1.4500    0.6696 H   0  0  0  0  0  0  0  0  0  0  0  0
   -4.3811    1.6216   -0.6066 H   0  0  0  0  0  0  0  0  0  0  0  0
   -2.1990   -2.1033   -0.4748 H   0  0  0  0  0  0  0  0  0  0  0  0
   -2.3015   -1.2587    1.0895 H   0  0  0  0  0  0  0  0  0  0  0  0
    0.1666   -1.9587   -0.3687 H   0  0  0  0  0  0  0  0  0  0  0  0
    0.0283   -1.1246    1.1989 H   0  0  0  0  0  0  0  0  0  0  0  0
  1 14  1  0  0  0  0
  2 10  1  0  0  0  0
  2 11  1  0  0  0  0
  3 12  1  0  0  0  0
  3 13  1  0  0  0  0
  4  8  1  0  0  0  0
  5  9  1  0  0  0  0
  6  8  2  0  0  0  0
  7  9  2  0  0  0  0
  8 14  1  0  0  0  0
  9 14  1  0  0  0  0
 10 11  1  0  0  0  0
 10 12  1  0  0  0  0
 10 15  1  0  0  0  0
 11 16  1  0  0  0  0
 11 17  1  0  0  0  0
 12 18  1  0  0  0  0
 12 19  1  0  0  0  0
 13 14  1  0  0  0  0
 13 20  1  0  0  0  0
 13 21  1  0  0  0  0
M  CHG  4   4  -1   5  -1   8   1   9   1
M  END
> <PUBCHEM_COMPOUND_CID>
141182

> <PUBCHEM_CONFORMER_RMSD>
0.8

> <PUBCHEM_CONFORMER_DIVERSEORDER>
1
25
5
12
26
10
18
22
16
24
17
14
19
8
3
11
4
6
13
21
2
9
20
15
7
23

> <PUBCHEM_MMFF94_PARTIAL_CHARGES>
17
1 -0.34
10 -0.05
11 -0.05
12 0.38
13 0.28
14 0.82
15 0.1
16 0.1
17 0.1
2 -0.3
3 -0.56
4 -0.52
5 -0.52
6 -0.52
7 -0.52
8 0.8
9 0.8

> <PUBCHEM_EFFECTIVE_ROTOR_COUNT>
6.6

> <PUBCHEM_PHARMACOPHORE_FEATURES>
8
1 2 acceptor
1 3 acceptor
1 4 acceptor
1 4 anion
1 5 acceptor
1 5 anion
1 6 acceptor
1 7 acceptor

> <PUBCHEM_HEAVY_ATOM_COUNT>
14

> <PUBCHEM_ATOM_DEF_STEREO_COUNT>
0

> <PUBCHEM_ATOM_UDEF_STEREO_COUNT>
1

> <PUBCHEM_BOND_DEF_STEREO_COUNT>
0

> <PUBCHEM_BOND_UDEF_STEREO_COUNT>
0

> <PUBCHEM_ISOTOPIC_ATOM_COUNT>
0

> <PUBCHEM_COMPONENT_COUNT>
1

> <PUBCHEM_CACTVS_TAUTO_COUNT>
1

> <PUBCHEM_CONFORMER_ID>
0002277E00000001

> <PUBCHEM_MMFF94_ENERGY>
28.1513

> <PUBCHEM_FEATURE_SELFOVERLAP>
40.763

> <PUBCHEM_SHAPE_FINGERPRINT>
10130415 120 18334573512372873930
10219947 1 17203328909888880534
12162725 195 18202001049564141133
124424 183 18411413982334453783
12932764 1 14129051556550069791
13922767 16 18201995525814211849
14144814 61 18409446960380122835
14344429 50 18411142449974756062
15775835 57 18335423478158925319
17041 49 18341892970143038129
17802600 8 18342451526793496685
18186145 218 18411978083571192999
18511873 20 18341891887700769363
20233049 118 18410014303726281484
20279233 1 11671784884148538573
20339313 130 18335426759229011965
20671657 1 18265619964377960589
212847 35 18261111829750194653
230 275 18338790225733953849
23557571 272 13901916583383040483
74978 22 18337390543126388579

> <PUBCHEM_SHAPE_MULTIPOLES>
235.66
6.79
1.56
1.02
5.91
0.69
-0.04
-0.66
-0.23
-0.64
-0.21
-0.55
0.11
-0.16

> <PUBCHEM_SHAPE_SELFOVERLAP>
466.533

> <PUBCHEM_SHAPE_VOLUME>
141.4

> <PUBCHEM_COORDINATE_TYPE>
2
5
10

$$$$
