13133854
  -OEChem-11012400483D

 20 21  0     1  0  0  0  0  0999 V2000
   -1.1427   -1.4109   -0.1847 O   0  0  0  0  0  0  0  0  0  0  0  0
    1.1428    1.4108    0.1847 O   0  0  0  0  0  0  0  0  0  0  0  0
   -2.4138    0.6175   -0.2416 O   0  0  0  0  0  0  0  0  0  0  0  0
    2.4139   -0.6175    0.2417 O   0  0  0  0  0  0  0  0  0  0  0  0
    0.0107   -0.7142    0.2710 C   0  0  2  0  0  0  0  0  0  0  0  0
   -0.0107    0.7143   -0.2711 C   0  0  1  0  0  0  0  0  0  0  0  0
    1.2933   -1.3950   -0.1840 C   0  0  0  0  0  0  0  0  0  0  0  0
   -1.2934    1.3949    0.1842 C   0  0  0  0  0  0  0  0  0  0  0  0
   -2.3264   -0.7265    0.2403 C   0  0  0  0  0  0  0  0  0  0  0  0
    2.3263    0.7265   -0.2404 C   0  0  0  0  0  0  0  0  0  0  0  0
    0.0171   -0.6924    1.3702 H   0  0  0  0  0  0  0  0  0  0  0  0
   -0.0173    0.6926   -1.3703 H   0  0  0  0  0  0  0  0  0  0  0  0
    1.3744   -2.3944    0.2563 H   0  0  0  0  0  0  0  0  0  0  0  0
    1.3214   -1.5258   -1.2727 H   0  0  0  0  0  0  0  0  0  0  0  0
   -1.3213    1.5255    1.2729 H   0  0  0  0  0  0  0  0  0  0  0  0
   -1.3745    2.3943   -0.2559 H   0  0  0  0  0  0  0  0  0  0  0  0
   -2.4006   -0.7404    1.3348 H   0  0  0  0  0  0  0  0  0  0  0  0
   -3.1847   -1.2758   -0.1571 H   0  0  0  0  0  0  0  0  0  0  0  0
    3.1848    1.2758    0.1569 H   0  0  0  0  0  0  0  0  0  0  0  0
    2.4004    0.7404   -1.3349 H   0  0  0  0  0  0  0  0  0  0  0  0
  1  5  1  0  0  0  0
  1  9  1  0  0  0  0
  2  6  1  0  0  0  0
  2 10  1  0  0  0  0
  3  8  1  0  0  0  0
  3  9  1  0  0  0  0
  4  7  1  0  0  0  0
  4 10  1  0  0  0  0
  5  6  1  0  0  0  0
  5  7  1  0  0  0  0
  5 11  1  0  0  0  0
  6  8  1  0  0  0  0
  6 12  1  0  0  0  0
  7 13  1  0  0  0  0
  7 14  1  0  0  0  0
  8 15  1  0  0  0  0
  8 16  1  0  0  0  0
  9 17  1  0  0  0  0
  9 18  1  0  0  0  0
 10 19  1  0  0  0  0
 10 20  1  0  0  0  0
M  END
> <PUBCHEM_COMPOUND_CID>
13133854

> <PUBCHEM_CONFORMER_RMSD>
0.4

> <PUBCHEM_CONFORMER_DIVERSEORDER>
1

> <PUBCHEM_MMFF94_PARTIAL_CHARGES>
10
1 -0.56
10 0.56
2 -0.56
3 -0.56
4 -0.56
5 0.28
6 0.28
7 0.28
8 0.28
9 0.56

> <PUBCHEM_EFFECTIVE_ROTOR_COUNT>
1.6

> <PUBCHEM_PHARMACOPHORE_FEATURES>
6
1 1 acceptor
1 2 acceptor
1 3 acceptor
1 4 acceptor
6 1 3 5 6 8 9 rings
6 2 4 5 6 7 10 rings

> <PUBCHEM_HEAVY_ATOM_COUNT>
10

> <PUBCHEM_ATOM_DEF_STEREO_COUNT>
2

> <PUBCHEM_ATOM_UDEF_STEREO_COUNT>
0

> <PUBCHEM_BOND_DEF_STEREO_COUNT>
0

> <PUBCHEM_BOND_UDEF_STEREO_COUNT>
0

> <PUBCHEM_ISOTOPIC_ATOM_COUNT>
0

> <PUBCHEM_COMPONENT_COUNT>
1

> <PUBCHEM_CACTVS_TAUTO_COUNT>
1

> <PUBCHEM_CONFORMER_ID>
00C8681E00000001

> <PUBCHEM_MMFF94_ENERGY>
26.9757

> <PUBCHEM_FEATURE_SELFOVERLAP>
30.546

> <PUBCHEM_SHAPE_FINGERPRINT>
12897270 3 18411138064686585164
14325111 11 18409730664049286109
16945 1 18412545413795020806
18185500 45 18410855503099050726
193761 8 15239759059700678663
19973954 147 18410860931921810633
21040471 1 18410856521117076136
23402655 69 18268132198819879957
23552423 10 18260269663424175606
241688 4 17187290062975294610
2748010 2 18410293631166486149
29004967 10 18411984650096101810
369184 2 18409446994396761947
5084963 1 17894349977407423429
66348 1 18410856525290646205

> <PUBCHEM_SHAPE_MULTIPOLES>
182.32
3.33
1.63
0.63
0
0
0
0
0
0
0
0
0
0

> <PUBCHEM_SHAPE_SELFOVERLAP>
373.096

> <PUBCHEM_SHAPE_VOLUME>
101.6

> <PUBCHEM_COORDINATE_TYPE>
2
5
10

$$$$
