17902
  -OEChem-11012400513D

 20 19  0     0  0  0  0  0  0999 V2000
   -0.0005   -1.2117    0.1820 O   0  0  0  0  0  0  0  0  0  0  0  0
    0.0000    0.2014    0.3955 C   0  0  0  0  0  0  0  0  0  0  0  0
    1.2652    0.8047   -0.2324 C   0  0  0  0  0  0  0  0  0  0  0  0
   -1.2651    0.8048   -0.2326 C   0  0  0  0  0  0  0  0  0  0  0  0
    2.5167    0.1943    0.3338 C   0  0  0  0  0  0  0  0  0  0  0  0
   -2.5166    0.1944    0.3338 C   0  0  0  0  0  0  0  0  0  0  0  0
    3.4066   -0.4939   -0.3901 C   0  0  0  0  0  0  0  0  0  0  0  0
   -3.4064   -0.4939   -0.3901 C   0  0  0  0  0  0  0  0  0  0  0  0
   -0.0001    0.3682    1.4795 H   0  0  0  0  0  0  0  0  0  0  0  0
    1.2892    1.8864   -0.0553 H   0  0  0  0  0  0  0  0  0  0  0  0
    1.2430    0.6558   -1.3196 H   0  0  0  0  0  0  0  0  0  0  0  0
   -1.2890    1.8864   -0.0556 H   0  0  0  0  0  0  0  0  0  0  0  0
   -1.2428    0.6557   -1.3199 H   0  0  0  0  0  0  0  0  0  0  0  0
    2.7036    0.3344    1.3953 H   0  0  0  0  0  0  0  0  0  0  0  0
   -2.7034    0.3347    1.3953 H   0  0  0  0  0  0  0  0  0  0  0  0
    0.0000   -1.3678   -0.7780 H   0  0  0  0  0  0  0  0  0  0  0  0
    4.2936   -0.9065    0.0780 H   0  0  0  0  0  0  0  0  0  0  0  0
    3.2683   -0.6589   -1.4529 H   0  0  0  0  0  0  0  0  0  0  0  0
   -4.2934   -0.9064    0.0781 H   0  0  0  0  0  0  0  0  0  0  0  0
   -3.2680   -0.6589   -1.4528 H   0  0  0  0  0  0  0  0  0  0  0  0
  1  2  1  0  0  0  0
  1 16  1  0  0  0  0
  2  3  1  0  0  0  0
  2  4  1  0  0  0  0
  2  9  1  0  0  0  0
  3  5  1  0  0  0  0
  3 10  1  0  0  0  0
  3 11  1  0  0  0  0
  4  6  1  0  0  0  0
  4 12  1  0  0  0  0
  4 13  1  0  0  0  0
  5  7  2  0  0  0  0
  5 14  1  0  0  0  0
  6  8  2  0  0  0  0
  6 15  1  0  0  0  0
  7 17  1  0  0  0  0
  7 18  1  0  0  0  0
  8 19  1  0  0  0  0
  8 20  1  0  0  0  0
M  END
> <PUBCHEM_COMPOUND_CID>
17902

> <PUBCHEM_CONFORMER_RMSD>
0.6

> <PUBCHEM_CONFORMER_DIVERSEORDER>
1
25
21
19
20
16
6
26
11
18
15
14
12
22
8
4
2
7
13
24
23
17
5
9
3
10

> <PUBCHEM_MMFF94_PARTIAL_CHARGES>
15
1 -0.68
14 0.15
15 0.15
16 0.4
17 0.15
18 0.15
19 0.15
2 0.28
20 0.15
3 0.14
4 0.14
5 -0.29
6 -0.29
7 -0.3
8 -0.3

> <PUBCHEM_EFFECTIVE_ROTOR_COUNT>
4

> <PUBCHEM_PHARMACOPHORE_FEATURES>
4
1 1 acceptor
1 1 donor
1 7 hydrophobe
1 8 hydrophobe

> <PUBCHEM_HEAVY_ATOM_COUNT>
8

> <PUBCHEM_ATOM_DEF_STEREO_COUNT>
0

> <PUBCHEM_ATOM_UDEF_STEREO_COUNT>
0

> <PUBCHEM_BOND_DEF_STEREO_COUNT>
0

> <PUBCHEM_BOND_UDEF_STEREO_COUNT>
0

> <PUBCHEM_ISOTOPIC_ATOM_COUNT>
0

> <PUBCHEM_COMPONENT_COUNT>
1

> <PUBCHEM_CACTVS_TAUTO_COUNT>
1

> <PUBCHEM_CONFORMER_ID>
000045EE00000001

> <PUBCHEM_MMFF94_ENERGY>
5.9163

> <PUBCHEM_FEATURE_SELFOVERLAP>
20.297

> <PUBCHEM_SHAPE_FINGERPRINT>
11062470 55 11602538723645999815
12897270 3 18259979371116957149
12932764 1 15792007917689639761
14325111 11 18411418414408387344
177051 138 17917712413343570063
19021347 11 18261107426860460426
20711983 171 15502644954140087670
21293036 1 18113622296001340324
29004967 10 15410900668820783409
5084963 1 18411981360035283865
5460574 1 9367347037224626480

> <PUBCHEM_SHAPE_MULTIPOLES>
158.77
5.67
0.99
0.71
0
0.07
0.01
1.07
0.66
0
0.03
0
-0.01
0

> <PUBCHEM_SHAPE_SELFOVERLAP>
286.544

> <PUBCHEM_SHAPE_VOLUME>
101.9

> <PUBCHEM_COORDINATE_TYPE>
2
5
10

$$$$
