62529
  -OEChem-11012400373D

 34 35  0     0  0  0  0  0  0999 V2000
   -0.8045   -0.0696    0.4478 N   0  0  0  0  0  0  0  0  0  0  0  0
    0.6159    0.4790   -2.5966 N   0  0  0  0  0  0  0  0  0  0  0  0
    0.5858    0.0057   -0.0003 C   0  0  0  0  0  0  0  0  0  0  0  0
    1.2699   -1.3411    0.3068 C   0  0  0  0  0  0  0  0  0  0  0  0
    1.2815    1.1511    0.7615 C   0  0  0  0  0  0  0  0  0  0  0  0
    2.7843   -1.3032    0.0828 C   0  0  0  0  0  0  0  0  0  0  0  0
    2.7959    1.1811    0.5366 C   0  0  0  0  0  0  0  0  0  0  0  0
   -1.5014    1.1952    0.1756 C   0  0  0  0  0  0  0  0  0  0  0  0
   -1.4899   -1.2020   -0.1909 C   0  0  0  0  0  0  0  0  0  0  0  0
    3.4395   -0.1640    0.8569 C   0  0  0  0  0  0  0  0  0  0  0  0
   -2.9436    1.1507    0.6826 C   0  0  0  0  0  0  0  0  0  0  0  0
   -2.9317   -1.3250    0.3044 C   0  0  0  0  0  0  0  0  0  0  0  0
   -3.7046   -0.0289    0.0880 C   0  0  0  0  0  0  0  0  0  0  0  0
    0.6027    0.2709   -1.4553 C   0  0  0  0  0  0  0  0  0  0  0  0
    0.9076   -2.1539   -0.3338 H   0  0  0  0  0  0  0  0  0  0  0  0
    1.0846   -1.6330    1.3498 H   0  0  0  0  0  0  0  0  0  0  0  0
    1.0964    1.0553    1.8403 H   0  0  0  0  0  0  0  0  0  0  0  0
    0.9231    2.1406    0.4547 H   0  0  0  0  0  0  0  0  0  0  0  0
    3.0034   -1.1932   -0.9861 H   0  0  0  0  0  0  0  0  0  0  0  0
    3.2238   -2.2573    0.3964 H   0  0  0  0  0  0  0  0  0  0  0  0
    3.2432    1.9587    1.1667 H   0  0  0  0  0  0  0  0  0  0  0  0
    3.0159    1.4544   -0.5025 H   0  0  0  0  0  0  0  0  0  0  0  0
   -1.5302    1.4492   -0.8910 H   0  0  0  0  0  0  0  0  0  0  0  0
   -1.0508    2.0384    0.7060 H   0  0  0  0  0  0  0  0  0  0  0  0
   -1.0368   -2.1621    0.0704 H   0  0  0  0  0  0  0  0  0  0  0  0
   -1.5102   -1.1271   -1.2850 H   0  0  0  0  0  0  0  0  0  0  0  0
    3.3555   -0.3601    1.9330 H   0  0  0  0  0  0  0  0  0  0  0  0
    4.5094   -0.1262    0.6228 H   0  0  0  0  0  0  0  0  0  0  0  0
   -3.4565    2.0857    0.4291 H   0  0  0  0  0  0  0  0  0  0  0  0
   -2.9467    1.0719    1.7775 H   0  0  0  0  0  0  0  0  0  0  0  0
   -2.9341   -1.5767    1.3728 H   0  0  0  0  0  0  0  0  0  0  0  0
   -3.4360   -2.1464   -0.2176 H   0  0  0  0  0  0  0  0  0  0  0  0
   -4.6987   -0.1030    0.5422 H   0  0  0  0  0  0  0  0  0  0  0  0
   -3.8518    0.1345   -0.9866 H   0  0  0  0  0  0  0  0  0  0  0  0
  1  3  1  0  0  0  0
  1  8  1  0  0  0  0
  1  9  1  0  0  0  0
  2 14  3  0  0  0  0
  3  4  1  0  0  0  0
  3  5  1  0  0  0  0
  3 14  1  0  0  0  0
  4  6  1  0  0  0  0
  4 15  1  0  0  0  0
  4 16  1  0  0  0  0
  5  7  1  0  0  0  0
  5 17  1  0  0  0  0
  5 18  1  0  0  0  0
  6 10  1  0  0  0  0
  6 19  1  0  0  0  0
  6 20  1  0  0  0  0
  7 10  1  0  0  0  0
  7 21  1  0  0  0  0
  7 22  1  0  0  0  0
  8 11  1  0  0  0  0
  8 23  1  0  0  0  0
  8 24  1  0  0  0  0
  9 12  1  0  0  0  0
  9 25  1  0  0  0  0
  9 26  1  0  0  0  0
 10 27  1  0  0  0  0
 10 28  1  0  0  0  0
 11 13  1  0  0  0  0
 11 29  1  0  0  0  0
 11 30  1  0  0  0  0
 12 13  1  0  0  0  0
 12 31  1  0  0  0  0
 12 32  1  0  0  0  0
 13 33  1  0  0  0  0
 13 34  1  0  0  0  0
M  END
> <PUBCHEM_COMPOUND_CID>
62529

> <PUBCHEM_CONFORMER_RMSD>
0.6

> <PUBCHEM_CONFORMER_DIVERSEORDER>
1
5
4
2
3

> <PUBCHEM_MMFF94_PARTIAL_CHARGES>
6
1 -0.81
14 0.36
2 -0.56
3 0.47
8 0.27
9 0.27

> <PUBCHEM_EFFECTIVE_ROTOR_COUNT>
3.4

> <PUBCHEM_PHARMACOPHORE_FEATURES>
4
1 1 cation
1 2 acceptor
6 1 8 9 11 12 13 rings
6 3 4 5 6 7 10 rings

> <PUBCHEM_HEAVY_ATOM_COUNT>
14

> <PUBCHEM_ATOM_DEF_STEREO_COUNT>
0

> <PUBCHEM_ATOM_UDEF_STEREO_COUNT>
0

> <PUBCHEM_BOND_DEF_STEREO_COUNT>
0

> <PUBCHEM_BOND_UDEF_STEREO_COUNT>
0

> <PUBCHEM_ISOTOPIC_ATOM_COUNT>
0

> <PUBCHEM_COMPONENT_COUNT>
1

> <PUBCHEM_CACTVS_TAUTO_COUNT>
1

> <PUBCHEM_CONFORMER_ID>
0000F44100000001

> <PUBCHEM_MMFF94_ENERGY>
17.7334

> <PUBCHEM_FEATURE_SELFOVERLAP>
20.297

> <PUBCHEM_SHAPE_FINGERPRINT>
10219947 1 17240198850345636770
10608611 8 18342170059763337713
107287 299 16056610858285826893
11769659 78 18334569140075165187
12119455 92 16559024978721135104
12251169 10 18272085006680697178
12423570 1 10026940777198715692
12932764 1 17894906278804244194
13581323 91 18409451388427952147
14115302 16 18041564753825065499
14144814 61 18341892978558912595
14181834 199 16951132922602930100
14325111 11 18342173371140626033
14993402 34 17022907856279741738
15219456 202 17346610642180442965
15309172 13 16056876952847487406
15375462 478 18060131029408521320
15501101 241 18187362108517467290
15775835 57 18412270519051151297
16945 1 18262795142848851402
17804303 29 18266184937139626226
20339313 130 17023195919598985197
20361792 2 16515682242917477151
20528008 55 18341603824439074355
20559304 39 18115322188264759205
20711985 327 17240480325274881284
21501502 16 18342455954224115249
232386 152 18410864273680855535
23402539 116 17917135153297629213
23419403 2 15527930801312572710
23557571 272 17846228807931662415
23559900 14 18199466580636115658
5084963 1 17967821522324709395
57812782 119 18413102853505868169
69090 78 18271799117063330875
7364860 26 18129667391639122414
81228 2 15938081189850816172

> <PUBCHEM_SHAPE_MULTIPOLES>
278.15
5.61
1.53
1.32
1.47
0.06
-1.22
0.12
1.74
0.05
0.29
-0.47
-0.12
-0.01

> <PUBCHEM_SHAPE_SELFOVERLAP>
565.282

> <PUBCHEM_SHAPE_VOLUME>
158.8

> <PUBCHEM_COORDINATE_TYPE>
2
5
10

$$$$
