67328
  -OEChem-11012400313D

 26 25  0     0  0  0  0  0  0999 V2000
    1.1938    0.4366   -0.0004 O   0  0  0  0  0  0  0  0  0  0  0  0
    0.0299   -1.5555    0.0043 O   0  0  0  0  0  0  0  0  0  0  0  0
   -2.4523   -0.2155   -0.0303 C   0  0  0  0  0  0  0  0  0  0  0  0
   -1.1447    0.5742   -0.0065 C   0  0  0  0  0  0  0  0  0  0  0  0
   -3.6643    0.7145    0.0040 C   0  0  0  0  0  0  0  0  0  0  0  0
    2.4306   -0.2836    0.0066 C   0  0  0  0  0  0  0  0  0  0  0  0
    0.0648   -0.3327   -0.0008 C   0  0  0  0  0  0  0  0  0  0  0  0
    3.5798    0.7128    0.0059 C   0  0  0  0  0  0  0  0  0  0  0  0
   -4.9671   -0.0688    0.0191 C   0  0  0  0  0  0  0  0  0  0  0  0
    4.9296    0.0181   -0.0018 C   0  0  0  0  0  0  0  0  0  0  0  0
   -2.4901   -0.8422   -0.9301 H   0  0  0  0  0  0  0  0  0  0  0  0
   -2.4867   -0.8968    0.8293 H   0  0  0  0  0  0  0  0  0  0  0  0
   -1.1051    1.1982    0.8934 H   0  0  0  0  0  0  0  0  0  0  0  0
   -1.0869    1.2181   -0.8912 H   0  0  0  0  0  0  0  0  0  0  0  0
   -3.6506    1.3759   -0.8700 H   0  0  0  0  0  0  0  0  0  0  0  0
   -3.6199    1.3523    0.8945 H   0  0  0  0  0  0  0  0  0  0  0  0
    2.4826   -0.9197   -0.8848 H   0  0  0  0  0  0  0  0  0  0  0  0
    2.4777   -0.9130    0.9029 H   0  0  0  0  0  0  0  0  0  0  0  0
    3.4952    1.3712   -0.8669 H   0  0  0  0  0  0  0  0  0  0  0  0
    3.5011    1.3652    0.8838 H   0  0  0  0  0  0  0  0  0  0  0  0
   -5.0582   -0.6957   -0.8736 H   0  0  0  0  0  0  0  0  0  0  0  0
   -5.0263   -0.7151    0.9007 H   0  0  0  0  0  0  0  0  0  0  0  0
   -5.8207    0.6158    0.0421 H   0  0  0  0  0  0  0  0  0  0  0  0
    5.0433   -0.6085   -0.8922 H   0  0  0  0  0  0  0  0  0  0  0  0
    5.7367    0.7573   -0.0016 H   0  0  0  0  0  0  0  0  0  0  0  0
    5.0495   -0.6160    0.8825 H   0  0  0  0  0  0  0  0  0  0  0  0
  1  6  1  0  0  0  0
  1  7  1  0  0  0  0
  2  7  2  0  0  0  0
  3  4  1  0  0  0  0
  3  5  1  0  0  0  0
  3 11  1  0  0  0  0
  3 12  1  0  0  0  0
  4  7  1  0  0  0  0
  4 13  1  0  0  0  0
  4 14  1  0  0  0  0
  5  9  1  0  0  0  0
  5 15  1  0  0  0  0
  5 16  1  0  0  0  0
  6  8  1  0  0  0  0
  6 17  1  0  0  0  0
  6 18  1  0  0  0  0
  8 10  1  0  0  0  0
  8 19  1  0  0  0  0
  8 20  1  0  0  0  0
  9 21  1  0  0  0  0
  9 22  1  0  0  0  0
  9 23  1  0  0  0  0
 10 24  1  0  0  0  0
 10 25  1  0  0  0  0
 10 26  1  0  0  0  0
M  END
> <PUBCHEM_COMPOUND_CID>
67328

> <PUBCHEM_CONFORMER_RMSD>
0.6

> <PUBCHEM_CONFORMER_DIVERSEORDER>
1
133
225
234
187
10
95
252
39
153
147
118
239
186
91
97
280
18
283
81
246
21
129
30
77
26
231
25
269
268
2
151
197
86
109
17
235
32
87
175
264
9
258
174
144
98
100
236
185
241
256
254
277
47
272
52
13
213
33
250
245
126
105
259
152
28
240
50
233
63
227
184
276
215
149
242
69
278
180
135
275
150
7
170
212
267
84
78
76
257
156
206
274
253
11
40
136
67
181
266
148
36
61
273
190
130
189
169
131
260
176
71
211
162
132
92
255
115
35
237
251
134
89
59
198
178
16
171
166
111
68
12
220
261
74
57
138
191
142
155
194
248
207
160
281
208
14
265
204
226
158
43
114
94
96
230
249
4
270
228
183
217
263
168
56
279
19
73
209
60
127
222
108
244
80
38
229
113
182
163
214
173
179
216
202
44
107
102
46
221
62
6
139
123
205
177
70
31
140
45
58
201
224
210
167
106
8
200
42
51
172
27
110
243
188
55
282
20
161
90
99
103
193
53
22
101
124
238
82
15
48
271
23
223
3
192
34
79
159
128
5
203
143
120
64
196
37
232
165
218
146
66
262
119
122
24
54
49
219
29
145
195
141
104
247
85
65
72
41
125
75
199
116
154
164
121
88
93
137
83
112
157
117

> <PUBCHEM_MMFF94_PARTIAL_CHARGES>
5
1 -0.43
2 -0.57
4 0.06
6 0.28
7 0.66

> <PUBCHEM_EFFECTIVE_ROTOR_COUNT>
6

> <PUBCHEM_PHARMACOPHORE_FEATURES>
3
1 10 hydrophobe
1 2 acceptor
1 9 hydrophobe

> <PUBCHEM_HEAVY_ATOM_COUNT>
10

> <PUBCHEM_ATOM_DEF_STEREO_COUNT>
0

> <PUBCHEM_ATOM_UDEF_STEREO_COUNT>
0

> <PUBCHEM_BOND_DEF_STEREO_COUNT>
0

> <PUBCHEM_BOND_UDEF_STEREO_COUNT>
0

> <PUBCHEM_ISOTOPIC_ATOM_COUNT>
0

> <PUBCHEM_COMPONENT_COUNT>
1

> <PUBCHEM_CACTVS_TAUTO_COUNT>
1

> <PUBCHEM_CONFORMER_ID>
0001070000000001

> <PUBCHEM_MMFF94_ENERGY>
0.1446

> <PUBCHEM_FEATURE_SELFOVERLAP>
15.223

> <PUBCHEM_SHAPE_FINGERPRINT>
11062470 55 17022621970571935217
114248 4 15769774662751592800
12815109 37 9151173147130482604
14123238 8 18113618992976317237
14325111 11 18410575076073157318
17834076 25 18409167714079852133
18342897 14 18410292510211962680
187816 3 17275388711429118410
20645477 70 18059580122765288742
20719005 15 18410575088968686656
20767249 13 9439404618451531484
21119208 17 15697999638938781968
21293036 1 18202002131226103593
23402539 116 18059849567168993581
23402655 69 18271800173794110453
366044 4 18411418418877629346
42788 4 18410856559645239717

> <PUBCHEM_SHAPE_MULTIPOLES>
194.06
10.08
0.96
0.6
0.29
0.19
0
-1.35
-0.04
-0.01
0
-0.01
-0.01
0

> <PUBCHEM_SHAPE_SELFOVERLAP>
349.649

> <PUBCHEM_SHAPE_VOLUME>
125.4

> <PUBCHEM_COORDINATE_TYPE>
2
5
10

$$$$
