96207
  -OEChem-11012401183D

 21 21  0     0  0  0  0  0  0999 V2000
   -3.2537    0.2285    0.2364 O   0  0  0  0  0  0  0  0  0  0  0  0
   -2.3831   -1.8431   -0.1058 O   0  0  0  0  0  0  0  0  0  0  0  0
    1.4679   -0.0121   -0.2836 C   0  0  0  0  0  0  0  0  0  0  0  0
    2.7209   -0.7895   -0.5085 C   0  0  0  0  0  0  0  0  0  0  0  0
    0.2384   -0.6690   -0.2355 C   0  0  0  0  0  0  0  0  0  0  0  0
    1.5258    1.3721   -0.1222 C   0  0  0  0  0  0  0  0  0  0  0  0
   -0.9333    0.0584   -0.0259 C   0  0  0  0  0  0  0  0  0  0  0  0
    3.3536   -1.2615    0.7979 C   0  0  0  0  0  0  0  0  0  0  0  0
    0.3543    2.0996    0.0875 C   0  0  0  0  0  0  0  0  0  0  0  0
   -0.8753    1.4427    0.1355 C   0  0  0  0  0  0  0  0  0  0  0  0
   -2.2155   -0.6260    0.0241 C   0  0  0  0  0  0  0  0  0  0  0  0
    2.5140   -1.6574   -1.1471 H   0  0  0  0  0  0  0  0  0  0  0  0
    3.4449   -0.1801   -1.0638 H   0  0  0  0  0  0  0  0  0  0  0  0
    0.2013   -1.7487   -0.3605 H   0  0  0  0  0  0  0  0  0  0  0  0
    2.4777    1.8956   -0.1559 H   0  0  0  0  0  0  0  0  0  0  0  0
    3.6142   -0.4139    1.4407 H   0  0  0  0  0  0  0  0  0  0  0  0
    4.2682   -1.8264    0.5922 H   0  0  0  0  0  0  0  0  0  0  0  0
    2.6709   -1.9106    1.3567 H   0  0  0  0  0  0  0  0  0  0  0  0
    0.4001    3.1773    0.2138 H   0  0  0  0  0  0  0  0  0  0  0  0
   -1.7623    2.0478    0.3009 H   0  0  0  0  0  0  0  0  0  0  0  0
   -4.1134   -0.2429    0.2689 H   0  0  0  0  0  0  0  0  0  0  0  0
  1 11  1  0  0  0  0
  1 21  1  0  0  0  0
  2 11  2  0  0  0  0
  3  4  1  0  0  0  0
  3  5  2  0  0  0  0
  3  6  1  0  0  0  0
  4  8  1  0  0  0  0
  4 12  1  0  0  0  0
  4 13  1  0  0  0  0
  5  7  1  0  0  0  0
  5 14  1  0  0  0  0
  6  9  2  0  0  0  0
  6 15  1  0  0  0  0
  7 10  2  0  0  0  0
  7 11  1  0  0  0  0
  8 16  1  0  0  0  0
  8 17  1  0  0  0  0
  8 18  1  0  0  0  0
  9 10  1  0  0  0  0
  9 19  1  0  0  0  0
 10 20  1  0  0  0  0
M  END
> <PUBCHEM_COMPOUND_CID>
96207

> <PUBCHEM_CONFORMER_RMSD>
0.4

> <PUBCHEM_CONFORMER_DIVERSEORDER>
2
3
8
9
5
7
6
10
1
4

> <PUBCHEM_MMFF94_PARTIAL_CHARGES>
15
1 -0.65
10 -0.15
11 0.63
14 0.15
15 0.15
19 0.15
2 -0.57
20 0.15
21 0.5
3 -0.14
4 0.14
5 -0.15
6 -0.15
7 0.09
9 -0.15

> <PUBCHEM_EFFECTIVE_ROTOR_COUNT>
2

> <PUBCHEM_PHARMACOPHORE_FEATURES>
5
1 1 acceptor
1 2 acceptor
1 8 hydrophobe
3 1 2 11 anion
6 3 5 6 7 9 10 rings

> <PUBCHEM_HEAVY_ATOM_COUNT>
11

> <PUBCHEM_ATOM_DEF_STEREO_COUNT>
0

> <PUBCHEM_ATOM_UDEF_STEREO_COUNT>
0

> <PUBCHEM_BOND_DEF_STEREO_COUNT>
0

> <PUBCHEM_BOND_UDEF_STEREO_COUNT>
0

> <PUBCHEM_ISOTOPIC_ATOM_COUNT>
0

> <PUBCHEM_COMPONENT_COUNT>
1

> <PUBCHEM_CACTVS_TAUTO_COUNT>
1

> <PUBCHEM_CONFORMER_ID>
000177CF00000002

> <PUBCHEM_MMFF94_ENERGY>
26.6537

> <PUBCHEM_FEATURE_SELFOVERLAP>
25.429

> <PUBCHEM_SHAPE_FINGERPRINT>
10130415 120 18409732846029595305
10857977 72 18271797991591819922
11769659 78 18334289881438677034
14128692 85 18409738373758058788
16945 1 18268718220466962420
17990270 104 18267024044894613699
20645477 70 18267864080912144559
20653091 64 18338520862427803056
20871998 184 18129092321577720206
20871998 22 18271536307713905910
21040471 1 17259906741396188268
21501502 16 18339646766766730445
21501925 9 18269263715673344747
23552423 10 18190748724284283133
2748010 2 18339923821932047237
7364860 26 18127695035504078456
81228 2 18124607387646362720

> <PUBCHEM_SHAPE_MULTIPOLES>
214.64
4.56
1.93
0.71
0.35
0.57
0.03
-2.46
0.58
-0.08
0.09
0.3
-0.07
-0.26

> <PUBCHEM_SHAPE_SELFOVERLAP>
444.652

> <PUBCHEM_SHAPE_VOLUME>
123.5

> <PUBCHEM_COORDINATE_TYPE>
2
5
10

$$$$
