92569
  -OEChem-11012401203D

 30 29  0     0  0  0  0  0  0999 V2000
    0.1279    0.3092    0.1762 O   0  0  0  0  0  0  0  0  0  0  0  0
    1.3884   -1.6156    0.3532 O   0  0  0  0  0  0  0  0  0  0  0  0
   -3.5797   -0.2711   -0.0061 C   0  0  0  0  0  0  0  0  0  0  0  0
   -2.2558    0.4888    0.0378 C   0  0  0  0  0  0  0  0  0  0  0  0
   -4.7632    0.6826   -0.1666 C   0  0  0  0  0  0  0  0  0  0  0  0
   -1.0686   -0.4565    0.1553 C   0  0  0  0  0  0  0  0  0  0  0  0
   -6.0805   -0.0725   -0.2447 C   0  0  0  0  0  0  0  0  0  0  0  0
    1.2897   -0.4024    0.2792 C   0  0  0  0  0  0  0  0  0  0  0  0
    3.6620    0.3234   -0.1251 C   0  0  0  0  0  0  0  0  0  0  0  0
    2.4108    0.5670    0.3050 C   0  0  0  0  0  0  0  0  0  0  0  0
    4.7061    1.4073   -0.0384 C   0  0  0  0  0  0  0  0  0  0  0  0
    4.1630   -0.9601   -0.7258 C   0  0  0  0  0  0  0  0  0  0  0  0
   -3.6996   -0.8564    0.9137 H   0  0  0  0  0  0  0  0  0  0  0  0
   -3.5668   -0.9816   -0.8416 H   0  0  0  0  0  0  0  0  0  0  0  0
   -2.2481    1.1907    0.8811 H   0  0  0  0  0  0  0  0  0  0  0  0
   -2.1404    1.1029   -0.8642 H   0  0  0  0  0  0  0  0  0  0  0  0
   -4.7965    1.3800    0.6785 H   0  0  0  0  0  0  0  0  0  0  0  0
   -4.6392    1.2810   -1.0767 H   0  0  0  0  0  0  0  0  0  0  0  0
   -1.0478   -1.1412   -0.7008 H   0  0  0  0  0  0  0  0  0  0  0  0
   -1.1448   -1.0410    1.0798 H   0  0  0  0  0  0  0  0  0  0  0  0
   -6.0919   -0.7544   -1.1010 H   0  0  0  0  0  0  0  0  0  0  0  0
   -6.2510   -0.6587    0.6640 H   0  0  0  0  0  0  0  0  0  0  0  0
   -6.9133    0.6287   -0.3580 H   0  0  0  0  0  0  0  0  0  0  0  0
    2.1603    1.5530    0.6902 H   0  0  0  0  0  0  0  0  0  0  0  0
    5.5525    1.0685    0.5683 H   0  0  0  0  0  0  0  0  0  0  0  0
    4.3194    2.3254    0.4165 H   0  0  0  0  0  0  0  0  0  0  0  0
    5.0737    1.6616   -1.0380 H   0  0  0  0  0  0  0  0  0  0  0  0
    3.3663   -1.6546   -0.9992 H   0  0  0  0  0  0  0  0  0  0  0  0
    4.8354   -1.4662   -0.0257 H   0  0  0  0  0  0  0  0  0  0  0  0
    4.7199   -0.7526   -1.6464 H   0  0  0  0  0  0  0  0  0  0  0  0
  1  6  1  0  0  0  0
  1  8  1  0  0  0  0
  2  8  2  0  0  0  0
  3  4  1  0  0  0  0
  3  5  1  0  0  0  0
  3 13  1  0  0  0  0
  3 14  1  0  0  0  0
  4  6  1  0  0  0  0
  4 15  1  0  0  0  0
  4 16  1  0  0  0  0
  5  7  1  0  0  0  0
  5 17  1  0  0  0  0
  5 18  1  0  0  0  0
  6 19  1  0  0  0  0
  6 20  1  0  0  0  0
  7 21  1  0  0  0  0
  7 22  1  0  0  0  0
  7 23  1  0  0  0  0
  8 10  1  0  0  0  0
  9 10  2  0  0  0  0
  9 11  1  0  0  0  0
  9 12  1  0  0  0  0
 10 24  1  0  0  0  0
 11 25  1  0  0  0  0
 11 26  1  0  0  0  0
 11 27  1  0  0  0  0
 12 28  1  0  0  0  0
 12 29  1  0  0  0  0
 12 30  1  0  0  0  0
M  END
> <PUBCHEM_COMPOUND_CID>
92569

> <PUBCHEM_CONFORMER_RMSD>
0.6

> <PUBCHEM_CONFORMER_DIVERSEORDER>
1
410
324
330
219
35
253
212
348
18
3
325
337
401
7
60
177
301
384
64
139
366
294
189
334
342
160
13
264
332
210
333
104
12
362
51
398
46
295
395
248
2
199
326
82
20
338
150
209
134
396
105
114
198
298
40
369
142
224
117
405
152
215
291
39
148
25
130
92
228
11
153
4
345
45
373
204
346
310
317
341
110
272
112
16
327
91
413
94
187
386
133
172
9
399
297
73
257
350
141
252
137
21
261
58
356
176
183
283
100
371
37
44
236
116
347
106
238
175
54
237
258
180
29
186
159
222
103
200
379
182
38
34
388
400
329
221
149
331
355
275
158
22
147
376
292
66
17
344
70
143
343
312
202
203
235
269
31
370
268
279
75
316
254
26
68
391
390
61
397
89
113
213
102
322
14
184
121
136
191
135
170
406
123
241
161
243
367
42
321
33
394
226
231
411
216
120
266
250
385
239
197
289
6
318
315
71
408
230
50
407
313
146
8
76
242
122
23
144
27
383
140
378
319
382
85
126
412
374
162
288
234
287
163
354
165
249
194
276
227
41
284
393
365
24
30
5
56
409
293
377
138
107
179
181
270
173
352
193
263
69
353
74
53
233
309
154
206
207
259
167
36
265
101
43
28
299
320
171
303
359
196
246
83
340
15
274
251
55
357
78
380
108
223
389
351
72
296
164
77
368
277
185
247
98
52
80
245
97
188
305
86
10
290
145
49
88
63
129
218
178
47
87
192
67
323
211
156
328
414
174
169
229
115
19
93
32
48
286
90
111
155
256
267
404
225
132
360
387
273
131
205
244
190
381
278
308
358
201
349
65
271
260
157
84
62
95
151
363
57
232
300
302
339
403
364
128
208
109
59
262
304
214
168
240
392
361
372
195
81
285
99
96
335
314
124
79
166
336
217
118
255
281
402
119
306
375
280
220
282
307
125
127
311

> <PUBCHEM_MMFF94_PARTIAL_CHARGES>
9
1 -0.43
10 -0.14
11 0.14
12 0.14
2 -0.57
24 0.15
6 0.28
8 0.71
9 -0.28

> <PUBCHEM_EFFECTIVE_ROTOR_COUNT>
6

> <PUBCHEM_PHARMACOPHORE_FEATURES>
3
1 2 acceptor
1 7 hydrophobe
3 9 11 12 hydrophobe

> <PUBCHEM_HEAVY_ATOM_COUNT>
12

> <PUBCHEM_ATOM_DEF_STEREO_COUNT>
0

> <PUBCHEM_ATOM_UDEF_STEREO_COUNT>
0

> <PUBCHEM_BOND_DEF_STEREO_COUNT>
0

> <PUBCHEM_BOND_UDEF_STEREO_COUNT>
0

> <PUBCHEM_ISOTOPIC_ATOM_COUNT>
0

> <PUBCHEM_COMPONENT_COUNT>
1

> <PUBCHEM_CACTVS_TAUTO_COUNT>
1

> <PUBCHEM_CONFORMER_ID>
0001699900000001

> <PUBCHEM_MMFF94_ENERGY>
11.5201

> <PUBCHEM_FEATURE_SELFOVERLAP>
15.223

> <PUBCHEM_SHAPE_FINGERPRINT>
11062470 55 16732702748759916401
11287383 113 18335142020335547739
114248 4 18410855469250930825
12815109 37 9655575210216195543
13081056 2 18334857203568644068
14123238 8 17918556834411303221
1420 363 18260555532811832747
14251718 22 18343018921985120607
14455015 7 12103847890841050117
15242433 33 18273494576762231943
15501527 24 18201435904734868381
17834072 33 17988921193395553725
17834072 8 18341902878959800246
17834076 25 17022903449817128971
20279233 1 17167869642950463043
20605781 2 18186800292382749089
20645477 70 18131074788393054094
20767249 213 17603304881727683373
23402539 116 11674876719562457859
23402655 69 18272651250879322069
23557571 272 16950564316230541959
4047638 21 18040998449269746200
42 15 8718828695441869465
42788 4 18410573985552468733
449060 50 18259703402351506607
4990 188 18060143119583178078
522135 26 18202846543788207430
5374978 207 12035446155716802638

> <PUBCHEM_SHAPE_MULTIPOLES>
235.22
12.89
1.16
0.68
11.54
0.09
-0.03
-2.3
-2.1
-1.21
0
-0.16
0.05
0.22

> <PUBCHEM_SHAPE_SELFOVERLAP>
435.106

> <PUBCHEM_SHAPE_VOLUME>
148.8

> <PUBCHEM_COORDINATE_TYPE>
2
5
10

$$$$
