141837
  -OEChem-11012401083D

 77 82  0     0  0  0  0  0  0999 V2000
   -3.5461    4.4126    0.5346 O   0  0  0  0  0  0  0  0  0  0  0  0
   -7.3525   -0.5336   -1.6414 O   0  0  0  0  0  0  0  0  0  0  0  0
   -7.3293   -0.4910    0.6651 O   0  0  0  0  0  0  0  0  0  0  0  0
    0.2309    1.7105    0.0968 N   0  0  0  0  0  0  0  0  0  0  0  0
   -0.8835   -0.9803    0.2744 N   0  0  0  0  0  0  0  0  0  0  0  0
    1.8595   -1.9182   -0.0634 N   0  0  0  0  0  0  0  0  0  0  0  0
    2.8078    0.8712   -0.2218 N   0  0  0  0  0  0  0  0  0  0  0  0
   -2.2204    0.9888    0.4173 C   0  0  0  0  0  0  0  0  0  0  0  0
   -1.0407    1.8573    0.2553 C   0  0  0  0  0  0  0  0  0  0  0  0
   -1.4392    3.2582    0.2845 C   0  0  0  0  0  0  0  0  0  0  0  0
   -3.3876    1.9365    0.5517 C   0  0  0  0  0  0  0  0  0  0  0  0
   -2.0969   -0.3444    0.4199 C   0  0  0  0  0  0  0  0  0  0  0  0
   -3.1209   -1.3655    0.5636 C   0  0  0  0  0  0  0  0  0  0  0  0
   -2.7562    3.3047    0.4510 C   0  0  0  0  0  0  0  0  0  0  0  0
   -0.2280    3.9840    0.1203 C   0  0  0  0  0  0  0  0  0  0  0  0
   -2.5625   -2.5859    0.5089 C   0  0  0  0  0  0  0  0  0  0  0  0
    0.7211    3.0198    0.0151 C   0  0  0  0  0  0  0  0  0  0  0  0
   -1.1352   -2.2531    0.3230 C   0  0  0  0  0  0  0  0  0  0  0  0
   -4.5673   -1.0530    0.7434 C   0  0  0  0  0  0  0  0  0  0  0  0
    1.1762   -3.1071    0.0405 C   0  0  0  0  0  0  0  0  0  0  0  0
    3.4110   -3.5511   -0.2381 C   0  0  0  0  0  0  0  0  0  0  0  0
    2.2079   -4.1509   -0.0761 C   0  0  0  0  0  0  0  0  0  0  0  0
    3.2122   -2.0918   -0.2333 C   0  0  0  0  0  0  0  0  0  0  0  0
   -0.1354   -3.3422    0.2111 C   0  0  0  0  0  0  0  0  0  0  0  0
    2.1489    3.2000   -0.1675 C   0  0  0  0  0  0  0  0  0  0  0  0
    3.0690    2.2225   -0.2714 C   0  0  0  0  0  0  0  0  0  0  0  0
    4.5014    2.3943   -0.4542 C   0  0  0  0  0  0  0  0  0  0  0  0
   -0.1564    5.4638    0.0891 C   0  0  0  0  0  0  0  0  0  0  0  0
    3.9563    0.2789   -0.3597 C   0  0  0  0  0  0  0  0  0  0  0  0
    5.1046    1.1975   -0.5160 C   0  0  0  0  0  0  0  0  0  0  0  0
   -5.2994   -0.9523   -0.5932 C   0  0  0  0  0  0  0  0  0  0  0  0
   -3.1402   -3.9459    0.6001 C   0  0  0  0  0  0  0  0  0  0  0  0
    4.1940   -1.1858   -0.3707 C   0  0  0  0  0  0  0  0  0  0  0  0
    4.7512   -4.1844   -0.4003 C   0  0  0  0  0  0  0  0  0  0  0  0
    5.1424    3.7380   -0.5513 C   0  0  0  0  0  0  0  0  0  0  0  0
    1.8945   -5.6073   -0.0152 C   0  0  0  0  0  0  0  0  0  0  0  0
    6.5233    0.8132   -0.6905 C   0  0  0  0  0  0  0  0  0  0  0  0
    5.4408   -4.4063    0.9352 C   0  0  0  0  0  0  0  0  0  0  0  0
   -6.7663   -0.6333   -0.4115 C   0  0  0  0  0  0  0  0  0  0  0  0
    5.5629    4.2663    0.8093 C   0  0  0  0  0  0  0  0  0  0  0  0
   -8.7522   -0.2348   -1.6347 C   0  0  0  0  0  0  0  0  0  0  0  0
   -4.1123    1.8015   -0.2552 H   0  0  0  0  0  0  0  0  0  0  0  0
   -3.8720    1.8354    1.5273 H   0  0  0  0  0  0  0  0  0  0  0  0
   -4.7217   -0.1611    1.3552 H   0  0  0  0  0  0  0  0  0  0  0  0
   -5.0363   -1.8519    1.3341 H   0  0  0  0  0  0  0  0  0  0  0  0
   -0.5067   -4.3593    0.2731 H   0  0  0  0  0  0  0  0  0  0  0  0
    2.4719    4.2360   -0.2140 H   0  0  0  0  0  0  0  0  0  0  0  0
    1.4149   -1.0136   -0.0191 H   0  0  0  0  0  0  0  0  0  0  0  0
   -0.5360    5.8857    1.0255 H   0  0  0  0  0  0  0  0  0  0  0  0
   -0.7599    5.8594   -0.7346 H   0  0  0  0  0  0  0  0  0  0  0  0
    0.8656    5.8281   -0.0464 H   0  0  0  0  0  0  0  0  0  0  0  0
   -5.2289   -1.9065   -1.1292 H   0  0  0  0  0  0  0  0  0  0  0  0
   -4.8555   -0.1698   -1.2175 H   0  0  0  0  0  0  0  0  0  0  0  0
   -4.2284   -3.9222    0.7079 H   0  0  0  0  0  0  0  0  0  0  0  0
   -2.7334   -4.4798    1.4645 H   0  0  0  0  0  0  0  0  0  0  0  0
   -2.9154   -4.5208   -0.3037 H   0  0  0  0  0  0  0  0  0  0  0  0
    5.2236   -1.5025   -0.4894 H   0  0  0  0  0  0  0  0  0  0  0  0
    4.6402   -5.1567   -0.8959 H   0  0  0  0  0  0  0  0  0  0  0  0
    5.3952   -3.6057   -1.0710 H   0  0  0  0  0  0  0  0  0  0  0  0
    6.0354    3.6732   -1.1856 H   0  0  0  0  0  0  0  0  0  0  0  0
    4.4943    4.4610   -1.0581 H   0  0  0  0  0  0  0  0  0  0  0  0
    2.7932   -6.2261   -0.0904 H   0  0  0  0  0  0  0  0  0  0  0  0
    1.2285   -5.8938   -0.8358 H   0  0  0  0  0  0  0  0  0  0  0  0
    1.4090   -5.8585    0.9337 H   0  0  0  0  0  0  0  0  0  0  0  0
   -4.4629    4.1108    0.6552 H   0  0  0  0  0  0  0  0  0  0  0  0
    6.8677    0.2152    0.1591 H   0  0  0  0  0  0  0  0  0  0  0  0
    7.1776    1.6871   -0.7597 H   0  0  0  0  0  0  0  0  0  0  0  0
    6.6545    0.2286   -1.6063 H   0  0  0  0  0  0  0  0  0  0  0  0
    6.4081   -4.8958    0.7830 H   0  0  0  0  0  0  0  0  0  0  0  0
    4.8414   -5.0452    1.5927 H   0  0  0  0  0  0  0  0  0  0  0  0
    5.6222   -3.4589    1.4536 H   0  0  0  0  0  0  0  0  0  0  0  0
    6.0525    5.2396    0.7007 H   0  0  0  0  0  0  0  0  0  0  0  0
    6.2697    3.5886    1.3001 H   0  0  0  0  0  0  0  0  0  0  0  0
    4.7004    4.3969    1.4714 H   0  0  0  0  0  0  0  0  0  0  0  0
   -9.0938   -0.1834   -2.6720 H   0  0  0  0  0  0  0  0  0  0  0  0
   -8.9303    0.7337   -1.1578 H   0  0  0  0  0  0  0  0  0  0  0  0
   -9.3059   -1.0267   -1.1214 H   0  0  0  0  0  0  0  0  0  0  0  0
  1 14  1  0  0  0  0
  1 65  1  0  0  0  0
  2 39  1  0  0  0  0
  2 41  1  0  0  0  0
  3 39  2  0  0  0  0
  4  9  2  0  0  0  0
  4 17  1  0  0  0  0
  5 12  1  0  0  0  0
  5 18  2  0  0  0  0
  6 20  1  0  0  0  0
  6 23  1  0  0  0  0
  6 48  1  0  0  0  0
  7 26  1  0  0  0  0
  7 29  2  0  0  0  0
  8  9  1  0  0  0  0
  8 11  1  0  0  0  0
  8 12  2  0  0  0  0
  9 10  1  0  0  0  0
 10 14  2  0  0  0  0
 10 15  1  0  0  0  0
 11 14  1  0  0  0  0
 11 42  1  0  0  0  0
 11 43  1  0  0  0  0
 12 13  1  0  0  0  0
 13 16  2  0  0  0  0
 13 19  1  0  0  0  0
 15 17  2  0  0  0  0
 15 28  1  0  0  0  0
 16 18  1  0  0  0  0
 16 32  1  0  0  0  0
 17 25  1  0  0  0  0
 18 24  1  0  0  0  0
 19 31  1  0  0  0  0
 19 44  1  0  0  0  0
 19 45  1  0  0  0  0
 20 22  1  0  0  0  0
 20 24  2  0  0  0  0
 21 22  2  0  0  0  0
 21 23  1  0  0  0  0
 21 34  1  0  0  0  0
 22 36  1  0  0  0  0
 23 33  2  0  0  0  0
 24 46  1  0  0  0  0
 25 26  2  0  0  0  0
 25 47  1  0  0  0  0
 26 27  1  0  0  0  0
 27 30  2  0  0  0  0
 27 35  1  0  0  0  0
 28 49  1  0  0  0  0
 28 50  1  0  0  0  0
 28 51  1  0  0  0  0
 29 30  1  0  0  0  0
 29 33  1  0  0  0  0
 30 37  1  0  0  0  0
 31 39  1  0  0  0  0
 31 52  1  0  0  0  0
 31 53  1  0  0  0  0
 32 54  1  0  0  0  0
 32 55  1  0  0  0  0
 32 56  1  0  0  0  0
 33 57  1  0  0  0  0
 34 38  1  0  0  0  0
 34 58  1  0  0  0  0
 34 59  1  0  0  0  0
 35 40  1  0  0  0  0
 35 60  1  0  0  0  0
 35 61  1  0  0  0  0
 36 62  1  0  0  0  0
 36 63  1  0  0  0  0
 36 64  1  0  0  0  0
 37 66  1  0  0  0  0
 37 67  1  0  0  0  0
 37 68  1  0  0  0  0
 38 69  1  0  0  0  0
 38 70  1  0  0  0  0
 38 71  1  0  0  0  0
 40 72  1  0  0  0  0
 40 73  1  0  0  0  0
 40 74  1  0  0  0  0
 41 75  1  0  0  0  0
 41 76  1  0  0  0  0
 41 77  1  0  0  0  0
M  END
> <PUBCHEM_COMPOUND_CID>
141837

> <PUBCHEM_CONFORMER_RMSD>
1

> <PUBCHEM_CONFORMER_DIVERSEORDER>
2
5
6
4
1
3

> <PUBCHEM_MMFF94_PARTIAL_CHARGES>
44
1 -0.53
10 0.01
11 0.28
12 0.17
13 -0.14
14 -0.06
15 -0.14
16 -0.12
17 0.17
18 0.42
19 0.14
2 -0.43
20 0.1
21 -0.14
22 -0.14
23 0.1
24 -0.14
25 -0.15
26 0.17
27 -0.14
28 0.14
29 0.42
3 -0.57
30 -0.12
31 0.06
32 0.14
33 -0.14
34 0.14
35 0.14
36 0.14
37 0.14
39 0.66
4 -0.62
41 0.28
46 0.15
47 0.15
48 0.4
5 -0.62
57 0.15
6 -0.6
65 0.45
7 -0.62
8 -0.12
9 0.42

> <PUBCHEM_EFFECTIVE_ROTOR_COUNT>
6.2

> <PUBCHEM_PHARMACOPHORE_FEATURES>
14
1 1 donor
1 3 acceptor
1 38 hydrophobe
1 4 acceptor
1 40 hydrophobe
1 5 acceptor
1 6 cation
1 6 donor
1 7 acceptor
5 4 9 10 15 17 rings
5 5 12 13 16 18 rings
5 6 20 21 22 23 rings
5 7 26 27 29 30 rings
5 8 9 10 11 14 rings

> <PUBCHEM_HEAVY_ATOM_COUNT>
41

> <PUBCHEM_ATOM_DEF_STEREO_COUNT>
0

> <PUBCHEM_ATOM_UDEF_STEREO_COUNT>
0

> <PUBCHEM_BOND_DEF_STEREO_COUNT>
0

> <PUBCHEM_BOND_UDEF_STEREO_COUNT>
0

> <PUBCHEM_ISOTOPIC_ATOM_COUNT>
0

> <PUBCHEM_COMPONENT_COUNT>
1

> <PUBCHEM_CACTVS_TAUTO_COUNT>
91

> <PUBCHEM_CONFORMER_ID>
00022A0D00000002

> <PUBCHEM_MMFF94_ENERGY>
120.8721

> <PUBCHEM_FEATURE_SELFOVERLAP>
71.329

> <PUBCHEM_SHAPE_FINGERPRINT>
10006869 2 18412258437356114150
10439779 11 18338515236790869746
10653451 467 17899148388771975339
10675989 125 18410012160511116498
10864689 126 18195254532216420980
1100329 8 18049449132421525778
11135609 187 18338512053856515441
11513181 2 18129105523970091798
12440605 4 18269007397349151617
12645989 146 17476922350754981567
12677640 9 17980482256637340257
12838862 33 18339631360814361928
13560911 43 18334859355875196354
1361 2 18339363075286357801
13617811 41 18338789109153701129
14117953 113 18411419544580703612
14394314 77 18196098965082411969
14415360 78 17905874126414341837
14725015 67 18412543215684492312
15274700 259 17750214982013472895
15276724 80 18339362964535073437
15320294 125 17971167431341313328
15320467 1 18338524139788393698
15351339 4 18335695001854719057
15400415 2 17834117828875459017
15439362 3 18410005577418307245
15890870 6 18335986488484332878
15927050 60 18340213989880633149
16067689 302 18340211903698035535
16628084 112 18410008798353746085
16664035 1 18340205288699450025
16664035 7 18268134371709211210
19301676 85 18409449176858437515
20609170 92 18114738248906662757
20721686 56 18335992990490455691
20764821 26 18193286187068563190
21133410 38 18200612336076125715
21344244 246 18410568510039041135
22311459 1 18338800138672090553
23522609 53 17774741779235804555
23559900 14 18124594447284946657
3882209 13 17830423138929788386
4394409 98 18045506571123854869
5265222 85 17757000269166986189
58083652 198 18336827495153721411
6036956 94 18118133686436512493
9961470 85 18267576906392545376

> <PUBCHEM_SHAPE_MULTIPOLES>
806.23
16
8.69
0.9
20.69
0.64
-0.15
1.23
-5.04
-9.53
1.2
0.88
0.06
-0.53

> <PUBCHEM_SHAPE_SELFOVERLAP>
1783.715

> <PUBCHEM_SHAPE_VOLUME>
437.2

> <PUBCHEM_COORDINATE_TYPE>
2
5
10

$$$$
