144205
  -OEChem-11012400363D

 27 27  0     0  0  0  0  0  0999 V2000
   -0.2463   -0.0433   -0.0134 Si  0  0  0  0  0  0  0  0  0  0  0  0
    0.6377    1.2656   -0.5333 O   0  0  0  0  0  0  0  0  0  0  0  0
    0.7327   -1.2897    0.4899 O   0  0  0  0  0  0  0  0  0  0  0  0
   -1.5695    0.4335    1.3007 C   0  0  0  0  0  0  0  0  0  0  0  0
   -1.5572   -0.6090   -1.3046 C   0  0  0  0  0  0  0  0  0  0  0  0
   -2.8838    0.1174    0.6337 C   0  0  0  0  0  0  0  0  0  0  0  0
   -2.8779   -0.3819   -0.6142 C   0  0  0  0  0  0  0  0  0  0  0  0
    1.3961    2.0072    0.4111 C   0  0  0  0  0  0  0  0  0  0  0  0
    1.7598   -1.7546   -0.3737 C   0  0  0  0  0  0  0  0  0  0  0  0
    2.1043    3.1379   -0.3041 C   0  0  0  0  0  0  0  0  0  0  0  0
    2.5040   -2.8830    0.3079 C   0  0  0  0  0  0  0  0  0  0  0  0
   -1.5088    1.4971    1.5459 H   0  0  0  0  0  0  0  0  0  0  0  0
   -1.4391   -0.1648    2.2068 H   0  0  0  0  0  0  0  0  0  0  0  0
   -1.4226   -1.6664   -1.5485 H   0  0  0  0  0  0  0  0  0  0  0  0
   -1.4831   -0.0048   -2.2130 H   0  0  0  0  0  0  0  0  0  0  0  0
   -3.8130    0.2945    1.1633 H   0  0  0  0  0  0  0  0  0  0  0  0
   -3.8022   -0.6219   -1.1273 H   0  0  0  0  0  0  0  0  0  0  0  0
    0.7425    2.4297    1.1838 H   0  0  0  0  0  0  0  0  0  0  0  0
    2.1427    1.3629    0.8921 H   0  0  0  0  0  0  0  0  0  0  0  0
    1.3303   -2.1233   -1.3136 H   0  0  0  0  0  0  0  0  0  0  0  0
    2.4664   -0.9462   -0.5997 H   0  0  0  0  0  0  0  0  0  0  0  0
    2.7000    3.7311    0.3955 H   0  0  0  0  0  0  0  0  0  0  0  0
    2.7639    2.7467   -1.0858 H   0  0  0  0  0  0  0  0  0  0  0  0
    1.3811    3.7955   -0.7977 H   0  0  0  0  0  0  0  0  0  0  0  0
    3.3043   -3.2662   -0.3313 H   0  0  0  0  0  0  0  0  0  0  0  0
    2.9399   -2.5423    1.2530 H   0  0  0  0  0  0  0  0  0  0  0  0
    1.8216   -3.7044    0.5500 H   0  0  0  0  0  0  0  0  0  0  0  0
  1  2  1  0  0  0  0
  1  3  1  0  0  0  0
  1  4  1  0  0  0  0
  1  5  1  0  0  0  0
  2  8  1  0  0  0  0
  3  9  1  0  0  0  0
  4  6  1  0  0  0  0
  4 12  1  0  0  0  0
  4 13  1  0  0  0  0
  5  7  1  0  0  0  0
  5 14  1  0  0  0  0
  5 15  1  0  0  0  0
  6  7  2  0  0  0  0
  6 16  1  0  0  0  0
  7 17  1  0  0  0  0
  8 10  1  0  0  0  0
  8 18  1  0  0  0  0
  8 19  1  0  0  0  0
  9 11  1  0  0  0  0
  9 20  1  0  0  0  0
  9 21  1  0  0  0  0
 10 22  1  0  0  0  0
 10 23  1  0  0  0  0
 10 24  1  0  0  0  0
 11 25  1  0  0  0  0
 11 26  1  0  0  0  0
 11 27  1  0  0  0  0
M  END
> <PUBCHEM_COMPOUND_CID>
144205

> <PUBCHEM_CONFORMER_RMSD>
0.6

> <PUBCHEM_CONFORMER_DIVERSEORDER>
1
3
6
7
2
4
5

> <PUBCHEM_MMFF94_PARTIAL_CHARGES>
11
1 0.76
16 0.15
17 0.15
2 -0.58
3 -0.58
4 0.06
5 0.06
6 -0.29
7 -0.29
8 0.28
9 0.28

> <PUBCHEM_EFFECTIVE_ROTOR_COUNT>
4.6

> <PUBCHEM_PHARMACOPHORE_FEATURES>
1
5 1 4 5 6 7 rings

> <PUBCHEM_HEAVY_ATOM_COUNT>
11

> <PUBCHEM_ATOM_DEF_STEREO_COUNT>
0

> <PUBCHEM_ATOM_UDEF_STEREO_COUNT>
0

> <PUBCHEM_BOND_DEF_STEREO_COUNT>
0

> <PUBCHEM_BOND_UDEF_STEREO_COUNT>
0

> <PUBCHEM_ISOTOPIC_ATOM_COUNT>
0

> <PUBCHEM_COMPONENT_COUNT>
1

> <PUBCHEM_CACTVS_TAUTO_COUNT>
1

> <PUBCHEM_CONFORMER_ID>
0002334D00000001

> <PUBCHEM_MMFF94_ENERGY>
5.9936

> <PUBCHEM_FEATURE_SELFOVERLAP>
5.074

> <PUBCHEM_SHAPE_FINGERPRINT>
1 1 18265049313595318860
100427 49 18265613187014077460
11357001 24 17399236348357059010
12326174 3 18114728413046166192
12423570 1 10114789720796836957
13024252 1 16882749617336823635
14817 1 15625645125353414417
16945 1 18410574002410441613
17841504 4 18336277742864394379
19021347 4 17833834146163257962
20361792 2 18195800778324440959
20711985 327 18269271270647607398
20711985 344 17471275272003183754
20871998 184 17477488599332060086
21061003 4 18189059685535362875
228727 97 17630332076124319897
23552423 10 18271522091382543119
305870 269 18339926038124875605
3071541 236 17404005415665487712
528862 383 18411980290667392491
58734987 140 18266160765005305084
58734987 86 18336826399145483954
7364860 26 18341612637369100173
81228 2 17545883728843748064

> <PUBCHEM_SHAPE_MULTIPOLES>
232.85
4.01
3.16
1.1
1.46
0.77
0
-0.68
-0.05
-4.78
0.03
0.54
-0.02
-0.58

> <PUBCHEM_SHAPE_SELFOVERLAP>
432.597

> <PUBCHEM_SHAPE_VOLUME>
146.6

> <PUBCHEM_COORDINATE_TYPE>
2
5
10

$$$$
