141184
  -OEChem-11012401103D

 18 18  0     0  0  0  0  0  0999 V2000
    2.5095   -0.0001    0.0002 O   0  5  0  0  0  0  0  0  0  0  0  0
    0.5876    3.4954   -0.0006 O   0  5  0  0  0  0  0  0  0  0  0  0
    2.4911    2.4019    0.0004 O   0  0  0  0  0  0  0  0  0  0  0  0
    0.5872   -3.4956    0.0000 O   0  5  0  0  0  0  0  0  0  0  0  0
    2.4908   -2.4022   -0.0002 O   0  0  0  0  0  0  0  0  0  0  0  0
   -3.5858    1.0978    0.0005 O   0  5  0  0  0  0  0  0  0  0  0  0
   -3.5860   -1.0974   -0.0004 O   0  0  0  0  0  0  0  0  0  0  0  0
    1.2304   -0.0002    0.0001 N   0  3  0  0  0  0  0  0  0  0  0  0
    1.2386    2.4251   -0.0002 N   0  3  0  0  0  0  0  0  0  0  0  0
    1.2382   -2.4252    0.0000 N   0  3  0  0  0  0  0  0  0  0  0  0
   -2.9778    0.0002    0.0002 N   0  3  0  0  0  0  0  0  0  0  0  0
    0.5291    1.1903    0.0001 C   0  0  0  0  0  0  0  0  0  0  0  0
    0.5289   -1.1903    0.0000 C   0  0  0  0  0  0  0  0  0  0  0  0
   -1.5579    0.0001   -0.0001 C   0  0  0  0  0  0  0  0  0  0  0  0
   -0.8618    1.2039    0.0000 C   0  0  0  0  0  0  0  0  0  0  0  0
   -0.8620   -1.2038   -0.0001 C   0  0  0  0  0  0  0  0  0  0  0  0
   -1.4025    2.1469    0.0000 H   0  0  0  0  0  0  0  0  0  0  0  0
   -1.4028   -2.1466   -0.0001 H   0  0  0  0  0  0  0  0  0  0  0  0
  1  8  1  0  0  0  0
  2  9  1  0  0  0  0
  3  9  2  0  0  0  0
  4 10  1  0  0  0  0
  5 10  2  0  0  0  0
  6 11  1  0  0  0  0
  7 11  2  0  0  0  0
  8 12  2  0  0  0  0
  8 13  1  0  0  0  0
  9 12  1  0  0  0  0
 10 13  1  0  0  0  0
 11 14  1  0  0  0  0
 12 15  1  0  0  0  0
 13 16  2  0  0  0  0
 14 15  2  0  0  0  0
 14 16  1  0  0  0  0
 15 17  1  0  0  0  0
 16 18  1  0  0  0  0
M  CHG  8   1  -1   2  -1   4  -1   6  -1   8   1   9   1  10   1  11   1
M  END
> <PUBCHEM_COMPOUND_CID>
141184

> <PUBCHEM_CONFORMER_RMSD>
0.6

> <PUBCHEM_CONFORMER_DIVERSEORDER>
1

> <PUBCHEM_MMFF94_PARTIAL_CHARGES>
18
1 -0.75
10 0.91
11 0.91
12 0.22
13 0.22
14 0.13
15 -0.15
16 -0.15
17 0.15
18 0.15
2 -0.52
3 -0.52
4 -0.52
5 -0.52
6 -0.52
7 -0.52
8 0.57
9 0.91

> <PUBCHEM_EFFECTIVE_ROTOR_COUNT>
3

> <PUBCHEM_PHARMACOPHORE_FEATURES>
11
1 1 anion
1 2 acceptor
1 3 acceptor
1 4 acceptor
1 4 anion
1 5 acceptor
1 6 acceptor
1 6 anion
1 7 acceptor
3 8 9 12 cation
6 8 12 13 14 15 16 rings

> <PUBCHEM_HEAVY_ATOM_COUNT>
16

> <PUBCHEM_ATOM_DEF_STEREO_COUNT>
0

> <PUBCHEM_ATOM_UDEF_STEREO_COUNT>
0

> <PUBCHEM_BOND_DEF_STEREO_COUNT>
0

> <PUBCHEM_BOND_UDEF_STEREO_COUNT>
0

> <PUBCHEM_ISOTOPIC_ATOM_COUNT>
0

> <PUBCHEM_COMPONENT_COUNT>
1

> <PUBCHEM_CACTVS_TAUTO_COUNT>
1

> <PUBCHEM_CONFORMER_ID>
0002278000000001

> <PUBCHEM_MMFF94_ENERGY>
59.1119

> <PUBCHEM_FEATURE_SELFOVERLAP>
56.07

> <PUBCHEM_SHAPE_FINGERPRINT>
1 1 18338234993594001589
10967382 1 18338797926225050757
12553582 1 18050570638493026091
13380535 76 18052536870004114916
14648413 74 18408042905606327921
15442244 35 18196937656742549193
16945 1 18410573985415188741
17990270 104 18409164390149854507
193761 8 18410575080700433989
20510252 161 16757462346136791712
20645477 70 18335410305974419319
21524375 3 17972592457548539393
2334 1 17978229692265864641
23526114 1 18410573980914519263
23530152 11 18122627424897429663
23552423 10 18412544327674723135
23557571 272 17408525048643534406
241688 4 17906172854121069234
257057 1 18049714123034445795
2748010 2 18048042053568988503
3071541 12 18411423899134514733
3071541 158 18189054192203463781
352729 6 17762337319987445095
54173680 148 17257371838886702371
7364860 26 18411136935363335297
81228 2 17545601154154917169

> <PUBCHEM_SHAPE_MULTIPOLES>
268.26
4.14
3.77
0.54
3.6
0
0
0
0
-2.79
0
0.02
0
0

> <PUBCHEM_SHAPE_SELFOVERLAP>
572.291

> <PUBCHEM_SHAPE_VOLUME>
147.6

> <PUBCHEM_COORDINATE_TYPE>
2
5
10

$$$$
