519888
  -OEChem-11012400563D

 27 28  0     0  0  0  0  0  0999 V2000
    0.7547    3.2863   -0.0513 N   0  0  0  0  0  0  0  0  0  0  0  0
    2.7739   -2.0240   -0.2962 C   0  0  0  0  0  0  0  0  0  0  0  0
    3.6216   -0.9214    0.3238 C   0  0  0  0  0  0  0  0  0  0  0  0
    1.3419   -1.5964    0.0031 C   0  0  0  0  0  0  0  0  0  0  0  0
    2.8592    0.3562   -0.0076 C   0  0  0  0  0  0  0  0  0  0  0  0
    1.4267   -0.0964   -0.0118 C   0  0  0  0  0  0  0  0  0  0  0  0
    0.3707    0.7240   -0.0264 C   0  0  0  0  0  0  0  0  0  0  0  0
   -1.0093    0.1867   -0.0034 C   0  0  0  0  0  0  0  0  0  0  0  0
   -1.6509   -0.0656   -1.2010 C   0  0  0  0  0  0  0  0  0  0  0  0
   -1.6179   -0.0478    1.2148 C   0  0  0  0  0  0  0  0  0  0  0  0
    0.5818    2.1387   -0.0396 C   0  0  0  0  0  0  0  0  0  0  0  0
   -2.9507   -0.5713   -1.1795 C   0  0  0  0  0  0  0  0  0  0  0  0
   -2.9177   -0.5536    1.2361 C   0  0  0  0  0  0  0  0  0  0  0  0
   -3.5841   -0.8153    0.0389 C   0  0  0  0  0  0  0  0  0  0  0  0
    3.0065   -3.0093    0.1187 H   0  0  0  0  0  0  0  0  0  0  0  0
    2.9408   -2.0643   -1.3799 H   0  0  0  0  0  0  0  0  0  0  0  0
    4.6412   -0.9091   -0.0728 H   0  0  0  0  0  0  0  0  0  0  0  0
    3.6820   -1.0579    1.4109 H   0  0  0  0  0  0  0  0  0  0  0  0
    1.0491   -1.9477    0.9991 H   0  0  0  0  0  0  0  0  0  0  0  0
    0.6565   -2.0067   -0.7439 H   0  0  0  0  0  0  0  0  0  0  0  0
    3.1441    0.7137   -1.0038 H   0  0  0  0  0  0  0  0  0  0  0  0
    3.0714    1.1328    0.7332 H   0  0  0  0  0  0  0  0  0  0  0  0
   -1.1675    0.1201   -2.1562 H   0  0  0  0  0  0  0  0  0  0  0  0
   -1.1088    0.1520    2.1538 H   0  0  0  0  0  0  0  0  0  0  0  0
   -3.4695   -0.7753   -2.1116 H   0  0  0  0  0  0  0  0  0  0  0  0
   -3.4109   -0.7438    2.1848 H   0  0  0  0  0  0  0  0  0  0  0  0
   -4.5960   -1.2092    0.0556 H   0  0  0  0  0  0  0  0  0  0  0  0
  1 11  3  0  0  0  0
  2  3  1  0  0  0  0
  2  4  1  0  0  0  0
  2 15  1  0  0  0  0
  2 16  1  0  0  0  0
  3  5  1  0  0  0  0
  3 17  1  0  0  0  0
  3 18  1  0  0  0  0
  4  6  1  0  0  0  0
  4 19  1  0  0  0  0
  4 20  1  0  0  0  0
  5  6  1  0  0  0  0
  5 21  1  0  0  0  0
  5 22  1  0  0  0  0
  6  7  2  0  0  0  0
  7  8  1  0  0  0  0
  7 11  1  0  0  0  0
  8  9  2  0  0  0  0
  8 10  1  0  0  0  0
  9 12  1  0  0  0  0
  9 23  1  0  0  0  0
 10 13  2  0  0  0  0
 10 24  1  0  0  0  0
 12 14  2  0  0  0  0
 12 25  1  0  0  0  0
 13 14  1  0  0  0  0
 13 26  1  0  0  0  0
 14 27  1  0  0  0  0
M  END
> <PUBCHEM_COMPOUND_CID>
519888

> <PUBCHEM_CONFORMER_RMSD>
0.6

> <PUBCHEM_CONFORMER_DIVERSEORDER>
1
2

> <PUBCHEM_MMFF94_PARTIAL_CHARGES>
17
1 -0.56
10 -0.15
11 0.49
12 -0.15
13 -0.15
14 -0.15
23 0.15
24 0.15
25 0.15
26 0.15
27 0.15
4 0.14
5 0.14
6 -0.28
7 0.04
8 0.03
9 -0.15

> <PUBCHEM_EFFECTIVE_ROTOR_COUNT>
1.8

> <PUBCHEM_PHARMACOPHORE_FEATURES>
3
1 1 acceptor
5 2 3 4 5 6 rings
6 8 9 10 12 13 14 rings

> <PUBCHEM_HEAVY_ATOM_COUNT>
14

> <PUBCHEM_ATOM_DEF_STEREO_COUNT>
0

> <PUBCHEM_ATOM_UDEF_STEREO_COUNT>
0

> <PUBCHEM_BOND_DEF_STEREO_COUNT>
0

> <PUBCHEM_BOND_UDEF_STEREO_COUNT>
0

> <PUBCHEM_ISOTOPIC_ATOM_COUNT>
0

> <PUBCHEM_COMPONENT_COUNT>
1

> <PUBCHEM_CACTVS_TAUTO_COUNT>
1

> <PUBCHEM_CONFORMER_ID>
0007EED000000001

> <PUBCHEM_MMFF94_ENERGY>
31.3731

> <PUBCHEM_FEATURE_SELFOVERLAP>
15.223

> <PUBCHEM_SHAPE_FINGERPRINT>
10219947 1 18412544331758771762
10618630 7 18337394825166558774
108231 29 18261116283267348914
11578080 2 17344030097170535057
12202030 40 17460049563484699443
12759256 9 18339079409987095684
13296908 3 18337669720031806430
15219456 202 17895754139898318205
15477762 27 18339637944703632831
15906896 17 17689717463196553705
16945 1 18339081604535880005
17841504 4 18336835276827184025
200 152 18272359867766760327
20201158 50 18113618967059177867
20361792 2 18341891870351874510
20645477 70 18263915717534655063
20711985 327 18343867718696159220
20711985 344 17974560299984100800
20871998 22 18270689653664066270
21061003 4 18408046203724460209
21296965 67 18411415077255643629
21639500 275 18194115441736628789
22112679 90 17202775924370440225
22445834 79 17918276441534502371
2255824 54 18197501933339640060
232386 152 16630242623211266367
23388829 49 18201440302301572032
23402539 116 18337386042232777562
23419403 2 14501641897416966497
23526113 38 18042106726635681353
23598291 2 17987522678982364965
2748010 2 18340195276971634916
3286 77 18188495786763258675
58734987 86 18409453608767924872
7364860 26 18267584795782880265
77492 1 17703514388683896237
81228 2 18047750399710210152

> <PUBCHEM_SHAPE_MULTIPOLES>
283.13
5.71
2.22
1.05
0.29
1.96
-0.02
-3.1
-0.18
-1.58
0.12
0.92
-0.16
0.03

> <PUBCHEM_SHAPE_SELFOVERLAP>
603.586

> <PUBCHEM_SHAPE_VOLUME>
156.3

> <PUBCHEM_COORDINATE_TYPE>
2
5
10

$$$$
