136853
  -OEChem-11012400543D

 40 41  0     0  0  0  0  0  0999 V2000
   -0.5320   -0.0548   -0.5479 C   0  0  0  0  0  0  0  0  0  0  0  0
    0.5320   -0.0163    0.5504 C   0  0  0  0  0  0  0  0  0  0  0  0
   -1.9426   -0.0516    0.0436 C   0  0  0  0  0  0  0  0  0  0  0  0
    1.9420    0.0139   -0.0419 C   0  0  0  0  0  0  0  0  0  0  0  0
   -3.0055   -0.0566   -1.0571 C   0  0  0  0  0  0  0  0  0  0  0  0
    3.0055    0.0184    1.0583 C   0  0  0  0  0  0  0  0  0  0  0  0
   -4.3997   -0.0180   -0.4853 C   0  0  0  0  0  0  0  0  0  0  0  0
    4.3997    0.0128    0.4855 C   0  0  0  0  0  0  0  0  0  0  0  0
   -5.0522   -1.2081   -0.1992 C   0  0  0  0  0  0  0  0  0  0  0  0
    5.0279   -1.1979    0.2329 C   0  0  0  0  0  0  0  0  0  0  0  0
   -5.0080    1.2069   -0.2537 C   0  0  0  0  0  0  0  0  0  0  0  0
    5.0324    1.2182    0.2193 C   0  0  0  0  0  0  0  0  0  0  0  0
   -6.3422   -1.1726    0.3301 C   0  0  0  0  0  0  0  0  0  0  0  0
    6.3180   -1.2033   -0.2974 C   0  0  0  0  0  0  0  0  0  0  0  0
   -6.2980    1.2423    0.2757 C   0  0  0  0  0  0  0  0  0  0  0  0
    6.3225    1.2126   -0.3112 C   0  0  0  0  0  0  0  0  0  0  0  0
   -6.9650    0.0525    0.5677 C   0  0  0  0  0  0  0  0  0  0  0  0
    6.9652    0.0018   -0.5696 C   0  0  0  0  0  0  0  0  0  0  0  0
   -0.3933   -0.9512   -1.1646 H   0  0  0  0  0  0  0  0  0  0  0  0
   -0.4091    0.8135   -1.2067 H   0  0  0  0  0  0  0  0  0  0  0  0
    0.3809    0.8691    1.1798 H   0  0  0  0  0  0  0  0  0  0  0  0
    0.4220   -0.8956    1.1967 H   0  0  0  0  0  0  0  0  0  0  0  0
   -2.0714   -0.9273    0.6922 H   0  0  0  0  0  0  0  0  0  0  0  0
   -2.0701    0.8336    0.6797 H   0  0  0  0  0  0  0  0  0  0  0  0
    2.0560    0.9023   -0.6760 H   0  0  0  0  0  0  0  0  0  0  0  0
    2.0834   -0.8584   -0.6926 H   0  0  0  0  0  0  0  0  0  0  0  0
   -2.8610    0.8019   -1.7257 H   0  0  0  0  0  0  0  0  0  0  0  0
   -2.8907   -0.9475   -1.6881 H   0  0  0  0  0  0  0  0  0  0  0  0
    2.8762    0.8966    1.7041 H   0  0  0  0  0  0  0  0  0  0  0  0
    2.8758   -0.8534    1.7126 H   0  0  0  0  0  0  0  0  0  0  0  0
   -4.5749   -2.1673   -0.3787 H   0  0  0  0  0  0  0  0  0  0  0  0
    4.5315   -2.1418    0.4393 H   0  0  0  0  0  0  0  0  0  0  0  0
   -4.4960    2.1389   -0.4757 H   0  0  0  0  0  0  0  0  0  0  0  0
    4.5395    2.1662    0.4152 H   0  0  0  0  0  0  0  0  0  0  0  0
   -6.8615   -2.0989    0.5580 H   0  0  0  0  0  0  0  0  0  0  0  0
    6.8183   -2.1460   -0.4992 H   0  0  0  0  0  0  0  0  0  0  0  0
   -6.7829    2.1962    0.4613 H   0  0  0  0  0  0  0  0  0  0  0  0
    6.8265    2.1509   -0.5238 H   0  0  0  0  0  0  0  0  0  0  0  0
   -7.9694    0.0802    0.9802 H   0  0  0  0  0  0  0  0  0  0  0  0
    7.9696   -0.0025   -0.9829 H   0  0  0  0  0  0  0  0  0  0  0  0
  1  2  1  0  0  0  0
  1  3  1  0  0  0  0
  1 19  1  0  0  0  0
  1 20  1  0  0  0  0
  2  4  1  0  0  0  0
  2 21  1  0  0  0  0
  2 22  1  0  0  0  0
  3  5  1  0  0  0  0
  3 23  1  0  0  0  0
  3 24  1  0  0  0  0
  4  6  1  0  0  0  0
  4 25  1  0  0  0  0
  4 26  1  0  0  0  0
  5  7  1  0  0  0  0
  5 27  1  0  0  0  0
  5 28  1  0  0  0  0
  6  8  1  0  0  0  0
  6 29  1  0  0  0  0
  6 30  1  0  0  0  0
  7  9  2  0  0  0  0
  7 11  1  0  0  0  0
  8 10  2  0  0  0  0
  8 12  1  0  0  0  0
  9 13  1  0  0  0  0
  9 31  1  0  0  0  0
 10 14  1  0  0  0  0
 10 32  1  0  0  0  0
 11 15  2  0  0  0  0
 11 33  1  0  0  0  0
 12 16  2  0  0  0  0
 12 34  1  0  0  0  0
 13 17  2  0  0  0  0
 13 35  1  0  0  0  0
 14 18  2  0  0  0  0
 14 36  1  0  0  0  0
 15 17  1  0  0  0  0
 15 37  1  0  0  0  0
 16 18  1  0  0  0  0
 16 38  1  0  0  0  0
 17 39  1  0  0  0  0
 18 40  1  0  0  0  0
M  END
> <PUBCHEM_COMPOUND_CID>
136853

> <PUBCHEM_CONFORMER_RMSD>
0.8

> <PUBCHEM_CONFORMER_DIVERSEORDER>
1
46
20
45
11
5
26
35
36
12
27
38
31
2
39
14
29
15
41
28
23
44
4
42
19
25
37
43
8
34
3
16
13
18
24
40
21
32
10
17
6
22
33
9
7
30

> <PUBCHEM_MMFF94_PARTIAL_CHARGES>
24
10 -0.15
11 -0.15
12 -0.15
13 -0.15
14 -0.15
15 -0.15
16 -0.15
17 -0.15
18 -0.15
31 0.15
32 0.15
33 0.15
34 0.15
35 0.15
36 0.15
37 0.15
38 0.15
39 0.15
40 0.15
5 0.14
6 0.14
7 -0.14
8 -0.14
9 -0.15

> <PUBCHEM_EFFECTIVE_ROTOR_COUNT>
7

> <PUBCHEM_PHARMACOPHORE_FEATURES>
4
3 1 3 5 hydrophobe
3 2 4 6 hydrophobe
6 7 9 11 13 15 17 rings
6 8 10 12 14 16 18 rings

> <PUBCHEM_HEAVY_ATOM_COUNT>
18

> <PUBCHEM_ATOM_DEF_STEREO_COUNT>
0

> <PUBCHEM_ATOM_UDEF_STEREO_COUNT>
0

> <PUBCHEM_BOND_DEF_STEREO_COUNT>
0

> <PUBCHEM_BOND_UDEF_STEREO_COUNT>
0

> <PUBCHEM_ISOTOPIC_ATOM_COUNT>
0

> <PUBCHEM_COMPONENT_COUNT>
1

> <PUBCHEM_CACTVS_TAUTO_COUNT>
1

> <PUBCHEM_CONFORMER_ID>
0002169500000001

> <PUBCHEM_MMFF94_ENERGY>
34.8552

> <PUBCHEM_FEATURE_SELFOVERLAP>
20.298

> <PUBCHEM_SHAPE_FINGERPRINT>
10299344 5 18410293609691909354
10638233 991 16805613580900882172
10968037 39 15429755086346599323
11315181 36 18187365446445586541
11524674 6 16559029411380963487
11724838 91 12251909205032671626
12091667 2 17917990581997121167
12166972 35 18409732884621835384
12236239 1 18410855460133592456
12516196 113 17458344143266164948
12730499 353 17749106669739308922
12916748 109 17095238099595451676
13073987 5 15502643858912955140
13533116 47 17168416066038625786
13914758 101 12463580564477023999
14123256 10 15502374525787600291
1420 363 16732984223762968353
14251732 16 18260267473038203995
14251752 14 17847061064655027121
14251764 18 18273213110612761255
14251764 46 18410291410663158186
14849402 71 18041850639079796197
14933364 13 18410575088963567813
15183329 4 16200433558999212755
15716309 27 18187363229641224579
17093844 174 12103843458782797735
17844677 252 18410858758668787593
20281389 69 17846776312940192041
21095086 128 18333449841612339995
21150785 3 17749113296667799670
220451 1 17967810539708634243
22224240 67 15285358444637117656
23035841 295 18334573538200693539
23081809 10 18201991140473423687
23198884 109 18261112967763352729
23402539 116 10735877274954819147
23536379 177 18412262826427061874
28498 318 16200439039963012636
29717793 49 17704356563768687484
328311 84 18272093794252655238
34797466 226 17313110748340046526
4073 2 18187087303567562714
4325135 7 15430036556358689403
4463277 17 18410572889940351244
4938544 92 17313378969359132861
542803 24 18410568491888318533
5758199 1 17458064858970539313
57583515 80 12031788067799231511
59755656 215 15769783433401924292
59755656 520 18412821404637253607

> <PUBCHEM_SHAPE_MULTIPOLES>
370.43
24.11
1.27
0.87
0
0.02
0
0.25
-0.01
0
0
0
0
0

> <PUBCHEM_SHAPE_SELFOVERLAP>
763.511

> <PUBCHEM_SHAPE_VOLUME>
204.2

> <PUBCHEM_COORDINATE_TYPE>
2
5
10

$$$$
