1551380
  -OEChem-11012401223D

 30 31  0     0  0  0  0  0  0999 V2000
    2.5854    0.4520   -0.4666 C   0  0  0  0  0  0  0  0  0  0  0  0
   -2.5642   -0.4496    0.4641 C   0  0  0  0  0  0  0  0  0  0  0  0
    1.2901    0.9779   -0.9313 C   0  0  0  0  0  0  0  0  0  0  0  0
   -1.2701   -0.9477    0.9031 C   0  0  0  0  0  0  0  0  0  0  0  0
    3.4837    1.3080    0.1501 C   0  0  0  0  0  0  0  0  0  0  0  0
   -3.4743   -1.3140   -0.1446 C   0  0  0  0  0  0  0  0  0  0  0  0
    2.8807   -0.8888   -0.6547 C   0  0  0  0  0  0  0  0  0  0  0  0
   -2.8954    0.8924    0.6517 C   0  0  0  0  0  0  0  0  0  0  0  0
    0.0895    0.5488   -0.5111 C   0  0  0  0  0  0  0  0  0  0  0  0
   -0.0667   -0.5051    0.4702 C   0  0  0  0  0  0  0  0  0  0  0  0
    4.7103    0.8103    0.5899 C   0  0  0  0  0  0  0  0  0  0  0  0
   -4.7153   -0.8363   -0.5660 C   0  0  0  0  0  0  0  0  0  0  0  0
    4.1072   -1.3864   -0.2147 C   0  0  0  0  0  0  0  0  0  0  0  0
   -4.1365    1.3699    0.2304 C   0  0  0  0  0  0  0  0  0  0  0  0
    5.0219   -0.5369    0.4077 C   0  0  0  0  0  0  0  0  0  0  0  0
   -5.0463    0.5055   -0.3784 C   0  0  0  0  0  0  0  0  0  0  0  0
    1.3430    1.7877   -1.6546 H   0  0  0  0  0  0  0  0  0  0  0  0
   -1.2977   -1.7571    1.6290 H   0  0  0  0  0  0  0  0  0  0  0  0
    3.2521    2.3595    0.2983 H   0  0  0  0  0  0  0  0  0  0  0  0
   -3.2308   -2.3626   -0.2983 H   0  0  0  0  0  0  0  0  0  0  0  0
    2.1908   -1.5639   -1.1541 H   0  0  0  0  0  0  0  0  0  0  0  0
   -2.2094    1.5816    1.1385 H   0  0  0  0  0  0  0  0  0  0  0  0
   -0.7828    1.0165   -0.9534 H   0  0  0  0  0  0  0  0  0  0  0  0
    0.8034   -0.9705    0.9194 H   0  0  0  0  0  0  0  0  0  0  0  0
    5.4227    1.4717    1.0744 H   0  0  0  0  0  0  0  0  0  0  0  0
   -5.4239   -1.5092   -1.0399 H   0  0  0  0  0  0  0  0  0  0  0  0
    4.3520   -2.4346   -0.3604 H   0  0  0  0  0  0  0  0  0  0  0  0
   -4.3961    2.4138    0.3796 H   0  0  0  0  0  0  0  0  0  0  0  0
    5.9773   -0.9243    0.7494 H   0  0  0  0  0  0  0  0  0  0  0  0
   -6.0129    0.8772   -0.7057 H   0  0  0  0  0  0  0  0  0  0  0  0
  1  3  1  0  0  0  0
  1  5  2  0  0  0  0
  1  7  1  0  0  0  0
  2  4  1  0  0  0  0
  2  6  2  0  0  0  0
  2  8  1  0  0  0  0
  3  9  2  0  0  0  0
  3 17  1  0  0  0  0
  4 10  2  0  0  0  0
  4 18  1  0  0  0  0
  5 11  1  0  0  0  0
  5 19  1  0  0  0  0
  6 12  1  0  0  0  0
  6 20  1  0  0  0  0
  7 13  2  0  0  0  0
  7 21  1  0  0  0  0
  8 14  2  0  0  0  0
  8 22  1  0  0  0  0
  9 10  1  0  0  0  0
  9 23  1  0  0  0  0
 10 24  1  0  0  0  0
 11 15  2  0  0  0  0
 11 25  1  0  0  0  0
 12 16  2  0  0  0  0
 12 26  1  0  0  0  0
 13 15  1  0  0  0  0
 13 27  1  0  0  0  0
 14 16  1  0  0  0  0
 14 28  1  0  0  0  0
 15 29  1  0  0  0  0
 16 30  1  0  0  0  0
M  END
> <PUBCHEM_COMPOUND_CID>
1551380

> <PUBCHEM_CONFORMER_RMSD>
0.6

> <PUBCHEM_CONFORMER_DIVERSEORDER>
1
2
3

> <PUBCHEM_MMFF94_PARTIAL_CHARGES>
30
1 0.03
10 -0.15
11 -0.15
12 -0.15
13 -0.15
14 -0.15
15 -0.15
16 -0.15
17 0.15
18 0.15
19 0.15
2 0.03
20 0.15
21 0.15
22 0.15
23 0.15
24 0.15
25 0.15
26 0.15
27 0.15
28 0.15
29 0.15
3 -0.18
30 0.15
4 -0.18
5 -0.15
6 -0.15
7 -0.15
8 -0.15
9 -0.15

> <PUBCHEM_EFFECTIVE_ROTOR_COUNT>
3

> <PUBCHEM_PHARMACOPHORE_FEATURES>
2
6 1 5 7 11 13 15 rings
6 2 6 8 12 14 16 rings

> <PUBCHEM_HEAVY_ATOM_COUNT>
16

> <PUBCHEM_ATOM_DEF_STEREO_COUNT>
0

> <PUBCHEM_ATOM_UDEF_STEREO_COUNT>
0

> <PUBCHEM_BOND_DEF_STEREO_COUNT>
2

> <PUBCHEM_BOND_UDEF_STEREO_COUNT>
0

> <PUBCHEM_ISOTOPIC_ATOM_COUNT>
0

> <PUBCHEM_COMPONENT_COUNT>
1

> <PUBCHEM_CACTVS_TAUTO_COUNT>
1

> <PUBCHEM_CONFORMER_ID>
0017AC1400000001

> <PUBCHEM_MMFF94_ENERGY>
52.2352

> <PUBCHEM_FEATURE_SELFOVERLAP>
10.149

> <PUBCHEM_SHAPE_FINGERPRINT>
11370993 70 18202283606224439782
11401426 45 18335137596440085463
12107183 9 17622451540958802018
12236239 1 18409165511426235091
12670546 56 18411415094382784929
128620 24 14045744815560479577
12916748 109 18187651310293363417
13167823 11 18343863324797188727
13583140 156 17560512997107320730
13675066 3 18113907077849719809
13897977 58 8862942784306920823
14004511 7 18186806876525298945
14123238 8 16773797008595776709
1420 363 12535628292832395093
14251764 38 18131354115475219041
14787075 74 11671768377919631646
15375358 24 18334861636344067658
15788980 27 18411421717343681115
15848700 24 18113336410177703876
15885798 251 17894910711590659156
16752209 62 16588291770476110788
17834072 14 18343305868138223544
17834072 33 18272930552829375782
17834072 8 18040155097654319799
18186145 218 15792017821752290612
19489759 90 18201718444483615057
200 152 18131631188320479223
20300324 65 18272931635699243553
20645477 70 18271811185842552030
22224240 67 18342164601962158834
23402539 116 18343297068256824861
23557571 272 14764086544186144889
23559900 14 18342175592023911304
265663 24 18272932725987973031
26918003 58 18342174466731728778
2838139 119 16298925612583863687
314173 85 17458344130887723708
34797466 226 17274830206782945428
351380 180 18342737424895601289
42 15 18408887334572957636
4214541 1 18412826876161279089
5104073 3 18410859875412578267
522135 26 12179840607056364100
5283173 99 18270959038382153025
573450 72 18341610404260510547
633830 44 17095528417366427759
6442390 28 10879984766449852332
67856867 119 18269271433840761116
69090 78 18411699897985692558
7495541 125 16916779746992606275
9709674 26 18341342144761487214
9971528 1 18186803582512444436
9981440 41 17180252621712321417

> <PUBCHEM_SHAPE_MULTIPOLES>
329.27
12.27
1.46
0.9
0.2
0
0
0.06
0.09
-0.01
0
-0.02
-0.01
-0.02

> <PUBCHEM_SHAPE_SELFOVERLAP>
703.229

> <PUBCHEM_SHAPE_VOLUME>
170.9

> <PUBCHEM_COORDINATE_TYPE>
2
5
10

$$$$
