9214
  -OEChem-11012400393D

 20 22  0     0  0  0  0  0  0999 V2000
   -0.6994    0.6943    0.0001 C   0  0  0  0  0  0  0  0  0  0  0  0
    0.6994    0.6942    0.0000 C   0  0  0  0  0  0  0  0  0  0  0  0
   -0.6994   -0.6944    0.0000 C   0  0  0  0  0  0  0  0  0  0  0  0
    0.6994   -0.6944    0.0000 C   0  0  0  0  0  0  0  0  0  0  0  0
   -1.8380    1.4424    0.0001 C   0  0  0  0  0  0  0  0  0  0  0  0
    1.8380    1.4424   -0.0002 C   0  0  0  0  0  0  0  0  0  0  0  0
   -1.8381   -1.4424   -0.0001 C   0  0  0  0  0  0  0  0  0  0  0  0
    1.8380   -1.4424    0.0001 C   0  0  0  0  0  0  0  0  0  0  0  0
   -3.0321    0.7107    0.0000 C   0  0  0  0  0  0  0  0  0  0  0  0
    3.0321    0.7107   -0.0001 C   0  0  0  0  0  0  0  0  0  0  0  0
   -3.0322   -0.7107   -0.0001 C   0  0  0  0  0  0  0  0  0  0  0  0
    3.0322   -0.7107    0.0001 C   0  0  0  0  0  0  0  0  0  0  0  0
   -1.8308    2.5240    0.0001 H   0  0  0  0  0  0  0  0  0  0  0  0
    1.8308    2.5241   -0.0002 H   0  0  0  0  0  0  0  0  0  0  0  0
   -1.8310   -2.5240   -0.0002 H   0  0  0  0  0  0  0  0  0  0  0  0
    1.8309   -2.5240    0.0001 H   0  0  0  0  0  0  0  0  0  0  0  0
   -3.9831    1.2382    0.0000 H   0  0  0  0  0  0  0  0  0  0  0  0
    3.9831    1.2382   -0.0001 H   0  0  0  0  0  0  0  0  0  0  0  0
   -3.9832   -1.2381   -0.0001 H   0  0  0  0  0  0  0  0  0  0  0  0
    3.9833   -1.2381    0.0002 H   0  0  0  0  0  0  0  0  0  0  0  0
  1  2  1  0  0  0  0
  1  3  1  0  0  0  0
  1  5  2  0  0  0  0
  2  4  1  0  0  0  0
  2  6  2  0  0  0  0
  3  4  1  0  0  0  0
  3  7  2  0  0  0  0
  4  8  2  0  0  0  0
  5  9  1  0  0  0  0
  5 13  1  0  0  0  0
  6 10  1  0  0  0  0
  6 14  1  0  0  0  0
  7 11  1  0  0  0  0
  7 15  1  0  0  0  0
  8 12  1  0  0  0  0
  8 16  1  0  0  0  0
  9 11  2  0  0  0  0
  9 17  1  0  0  0  0
 10 12  2  0  0  0  0
 10 18  1  0  0  0  0
 11 19  1  0  0  0  0
 12 20  1  0  0  0  0
M  END
> <PUBCHEM_COMPOUND_CID>
9214

> <PUBCHEM_CONFORMER_RMSD>
0.4

> <PUBCHEM_CONFORMER_DIVERSEORDER>
1

> <PUBCHEM_MMFF94_PARTIAL_CHARGES>
16
10 -0.15
11 -0.15
12 -0.15
13 0.15
14 0.15
15 0.15
16 0.15
17 0.15
18 0.15
19 0.15
20 0.15
5 -0.15
6 -0.15
7 -0.15
8 -0.15
9 -0.15

> <PUBCHEM_EFFECTIVE_ROTOR_COUNT>
0

> <PUBCHEM_PHARMACOPHORE_FEATURES>
3
4 1 2 3 4 rings
6 1 3 5 7 9 11 rings
6 2 4 6 8 10 12 rings

> <PUBCHEM_HEAVY_ATOM_COUNT>
12

> <PUBCHEM_ATOM_DEF_STEREO_COUNT>
0

> <PUBCHEM_ATOM_UDEF_STEREO_COUNT>
0

> <PUBCHEM_BOND_DEF_STEREO_COUNT>
0

> <PUBCHEM_BOND_UDEF_STEREO_COUNT>
0

> <PUBCHEM_ISOTOPIC_ATOM_COUNT>
0

> <PUBCHEM_COMPONENT_COUNT>
1

> <PUBCHEM_CACTVS_TAUTO_COUNT>
1

> <PUBCHEM_CONFORMER_ID>
000023FE00000001

> <PUBCHEM_MMFF94_ENERGY>
67.7807

> <PUBCHEM_FEATURE_SELFOVERLAP>
15.87

> <PUBCHEM_SHAPE_FINGERPRINT>
10608611 8 18410851066377111680
10967382 1 18410575110448765415
11471102 20 18410851053739694581
11769659 78 18410567388081970310
12032990 46 18410581686028059715
12491281 212 18340500971026321745
12897270 3 18410574028101137172
13380535 21 18338530684764755750
13380535 76 18410571790423552647
14144814 61 18410855442948292787
14325111 11 18410856563934971233
15219456 202 18411699889358548809
15442244 35 18195246607441986466
16945 1 18410573985151451142
17844478 74 18113910359595104497
193761 8 15744442619216891622
19973954 147 18410857663446624996
200 152 18059562607972499271
20201158 50 18411981342860682846
20871998 184 18201724011083471383
21501502 16 18410856563934756869
23402539 116 18201427057250081405
23402655 69 18341881958285001229
23463225 33 18335699416943753938
23552423 10 18261393385682300926
23559900 14 18270117899845430566
2748010 2 18410573993741385903
369184 2 18411981364535687083
5084963 1 18413389834430335065
528886 8 18411132545732731098
53812653 166 18271801358893893352
57096353 35 18266740357951652487
7364860 26 18272088297190037602
8809292 202 18260835920392028618

> <PUBCHEM_SHAPE_MULTIPOLES>
246.95
4.97
1.64
0.62
0
0
0
0
0
0
0
0
0
0

> <PUBCHEM_SHAPE_SELFOVERLAP>
570.955

> <PUBCHEM_SHAPE_VOLUME>
122.1

> <PUBCHEM_COORDINATE_TYPE>
2
5
10

$$$$
