69949
  -OEChem-11012401223D

 18 17  0     0  0  0  0  0  0999 V2000
   -1.9143    0.3464   -0.8932 O   0  0  0  0  0  0  0  0  0  0  0  0
    1.1508   -0.6926   -1.3072 O   0  0  0  0  0  0  0  0  0  0  0  0
    0.0531    0.4437    0.5164 C   0  0  0  0  0  0  0  0  0  0  0  0
    0.1474    1.9436    0.2554 C   0  0  0  0  0  0  0  0  0  0  0  0
   -1.2996   -0.1061    0.0722 C   0  0  0  0  0  0  0  0  0  0  0  0
    1.2208   -0.2661   -0.1544 C   0  0  0  0  0  0  0  0  0  0  0  0
   -1.8488   -1.2661    0.8644 C   0  0  0  0  0  0  0  0  0  0  0  0
    2.4906   -0.4030    0.6463 C   0  0  0  0  0  0  0  0  0  0  0  0
    0.1238    0.2781    1.5984 H   0  0  0  0  0  0  0  0  0  0  0  0
    0.1430    2.1625   -0.8185 H   0  0  0  0  0  0  0  0  0  0  0  0
   -0.6974    2.4738    0.7081 H   0  0  0  0  0  0  0  0  0  0  0  0
    1.0721    2.3574    0.6713 H   0  0  0  0  0  0  0  0  0  0  0  0
   -2.8023   -1.5866    0.4355 H   0  0  0  0  0  0  0  0  0  0  0  0
   -2.0139   -0.9574    1.8995 H   0  0  0  0  0  0  0  0  0  0  0  0
   -1.1460   -2.1019    0.8262 H   0  0  0  0  0  0  0  0  0  0  0  0
    2.8819    0.5870    0.8917 H   0  0  0  0  0  0  0  0  0  0  0  0
    2.2878   -0.9666    1.5603 H   0  0  0  0  0  0  0  0  0  0  0  0
    3.2388   -0.9436    0.0599 H   0  0  0  0  0  0  0  0  0  0  0  0
  1  5  2  0  0  0  0
  2  6  2  0  0  0  0
  3  4  1  0  0  0  0
  3  5  1  0  0  0  0
  3  6  1  0  0  0  0
  3  9  1  0  0  0  0
  4 10  1  0  0  0  0
  4 11  1  0  0  0  0
  4 12  1  0  0  0  0
  5  7  1  0  0  0  0
  6  8  1  0  0  0  0
  7 13  1  0  0  0  0
  7 14  1  0  0  0  0
  7 15  1  0  0  0  0
  8 16  1  0  0  0  0
  8 17  1  0  0  0  0
  8 18  1  0  0  0  0
M  END
> <PUBCHEM_COMPOUND_CID>
69949

> <PUBCHEM_CONFORMER_RMSD>
0.4

> <PUBCHEM_CONFORMER_DIVERSEORDER>
1
26
29
4
22
15
9
2
8
7
10
25
23
5
17
31
6
28
13
30
24
11
12
18
21
27
14
19
16
20
3

> <PUBCHEM_MMFF94_PARTIAL_CHARGES>
7
1 -0.57
2 -0.57
3 0.12
5 0.45
6 0.45
7 0.06
8 0.06

> <PUBCHEM_EFFECTIVE_ROTOR_COUNT>
2

> <PUBCHEM_PHARMACOPHORE_FEATURES>
4
1 1 acceptor
1 2 acceptor
1 3 anion
1 4 hydrophobe

> <PUBCHEM_HEAVY_ATOM_COUNT>
8

> <PUBCHEM_ATOM_DEF_STEREO_COUNT>
0

> <PUBCHEM_ATOM_UDEF_STEREO_COUNT>
0

> <PUBCHEM_BOND_DEF_STEREO_COUNT>
0

> <PUBCHEM_BOND_UDEF_STEREO_COUNT>
0

> <PUBCHEM_ISOTOPIC_ATOM_COUNT>
0

> <PUBCHEM_COMPONENT_COUNT>
1

> <PUBCHEM_CACTVS_TAUTO_COUNT>
5

> <PUBCHEM_CONFORMER_ID>
0001113D00000001

> <PUBCHEM_MMFF94_ENERGY>
9.1282

> <PUBCHEM_FEATURE_SELFOVERLAP>
20.297

> <PUBCHEM_SHAPE_FINGERPRINT>
137420 1 13143175494374972337
14128692 85 17458351874476374890
21040471 1 17546460980959429440
23552449 11 18122918778430731651
24536 1 18271539623148797488
29004967 10 18273221906019974714

> <PUBCHEM_SHAPE_MULTIPOLES>
152.9
2.8
1.43
1.03
0.36
0.65
-0.2
-1.04
0.26
-0.18
0.26
0.04
-0.16
0.34

> <PUBCHEM_SHAPE_SELFOVERLAP>
283.903

> <PUBCHEM_SHAPE_VOLUME>
96.9

> <PUBCHEM_COORDINATE_TYPE>
2
5
10

$$$$
