64799
  -OEChem-11012400443D

 18 18  0     0  0  0  0  0  0999 V2000
    1.3242   -1.5309   -0.0075 O   0  0  0  0  0  0  0  0  0  0  0  0
    4.3720    0.1132    0.0155 N   0  0  0  0  0  0  0  0  0  0  0  0
   -0.5665   -0.1347   -0.0033 C   0  0  0  0  0  0  0  0  0  0  0  0
    0.8687   -0.3681   -0.0078 C   0  0  0  0  0  0  0  0  0  0  0  0
   -1.0607    1.1697   -0.0033 C   0  0  0  0  0  0  0  0  0  0  0  0
   -1.4490   -1.2148    0.0015 C   0  0  0  0  0  0  0  0  0  0  0  0
   -2.4374    1.3940    0.0015 C   0  0  0  0  0  0  0  0  0  0  0  0
   -2.8258   -0.9905    0.0063 C   0  0  0  0  0  0  0  0  0  0  0  0
    1.8401    0.8237   -0.0125 C   0  0  0  0  0  0  0  0  0  0  0  0
   -3.3199    0.3139    0.0063 C   0  0  0  0  0  0  0  0  0  0  0  0
    3.2543    0.4245    0.0034 C   0  0  0  0  0  0  0  0  0  0  0  0
   -0.4130    2.0404   -0.0078 H   0  0  0  0  0  0  0  0  0  0  0  0
   -1.0895   -2.2405    0.0016 H   0  0  0  0  0  0  0  0  0  0  0  0
    1.6540    1.4187   -0.9134 H   0  0  0  0  0  0  0  0  0  0  0  0
    1.6424    1.4363    0.8740 H   0  0  0  0  0  0  0  0  0  0  0  0
   -2.8229    2.4094    0.0013 H   0  0  0  0  0  0  0  0  0  0  0  0
   -3.5133   -1.8314    0.0100 H   0  0  0  0  0  0  0  0  0  0  0  0
   -4.3918    0.4885    0.0099 H   0  0  0  0  0  0  0  0  0  0  0  0
  1  4  2  0  0  0  0
  2 11  3  0  0  0  0
  3  4  1  0  0  0  0
  3  5  2  0  0  0  0
  3  6  1  0  0  0  0
  4  9  1  0  0  0  0
  5  7  1  0  0  0  0
  5 12  1  0  0  0  0
  6  8  2  0  0  0  0
  6 13  1  0  0  0  0
  7 10  2  0  0  0  0
  7 16  1  0  0  0  0
  8 10  1  0  0  0  0
  8 17  1  0  0  0  0
  9 11  1  0  0  0  0
  9 14  1  0  0  0  0
  9 15  1  0  0  0  0
 10 18  1  0  0  0  0
M  END
> <PUBCHEM_COMPOUND_CID>
64799

> <PUBCHEM_CONFORMER_RMSD>
0.4

> <PUBCHEM_CONFORMER_DIVERSEORDER>
1
10
4
7
8
9
6
5
3
12
2
11

> <PUBCHEM_MMFF94_PARTIAL_CHARGES>
16
1 -0.57
10 -0.15
11 0.36
12 0.15
13 0.15
16 0.15
17 0.15
18 0.15
2 -0.56
3 0.09
4 0.42
5 -0.15
6 -0.15
7 -0.15
8 -0.15
9 0.26

> <PUBCHEM_EFFECTIVE_ROTOR_COUNT>
2

> <PUBCHEM_PHARMACOPHORE_FEATURES>
3
1 1 acceptor
1 2 acceptor
6 3 5 6 7 8 10 rings

> <PUBCHEM_HEAVY_ATOM_COUNT>
11

> <PUBCHEM_ATOM_DEF_STEREO_COUNT>
0

> <PUBCHEM_ATOM_UDEF_STEREO_COUNT>
0

> <PUBCHEM_BOND_DEF_STEREO_COUNT>
0

> <PUBCHEM_BOND_UDEF_STEREO_COUNT>
0

> <PUBCHEM_ISOTOPIC_ATOM_COUNT>
0

> <PUBCHEM_COMPONENT_COUNT>
1

> <PUBCHEM_CACTVS_TAUTO_COUNT>
2

> <PUBCHEM_CONFORMER_ID>
0000FD1F00000001

> <PUBCHEM_MMFF94_ENERGY>
24.8336

> <PUBCHEM_FEATURE_SELFOVERLAP>
15.223

> <PUBCHEM_SHAPE_FINGERPRINT>
10608611 8 18412541003053947152
11062470 55 12540690431534404228
12897270 3 18412261757101595813
12932764 1 17489575766742265850
13024252 1 15430034366468408017
13380535 76 18410292497321928863
14144814 61 18408038494400569288
14325111 11 18410856577247056580
14897335 6 18338511950185956487
15219456 202 18129953281736452295
15775835 57 18336830805507727025
16945 1 18410576223219795989
20201158 50 18341895190393171107
20645464 45 18202571674265443799
20871998 184 18201162164968293647
21501502 16 18339356345088435499
23402539 116 18341603846082839543
23402655 69 18269822135375454461
23463225 33 18333729100812719496
23552423 10 18261956241473775139
2748010 2 18265901254865801511
369184 2 16298382470344364137
6333449 129 18413387644339768933
7364860 26 18197779899497180214

> <PUBCHEM_SHAPE_MULTIPOLES>
215.52
6.21
1.42
0.6
4.89
0.08
0
-0.63
-0.03
-0.64
0
-0.05
-0.01
0

> <PUBCHEM_SHAPE_SELFOVERLAP>
446.04

> <PUBCHEM_SHAPE_VOLUME>
121.1

> <PUBCHEM_COORDINATE_TYPE>
2
5
10

$$$$
