36299
  -OEChem-11012400463D

 19 19  0     1  0  0  0  0  0999 V2000
    1.7059   -0.0187   -0.0060 N   0  0  3  0  0  0  0  0  0  0  0  0
    2.4208   -1.1421   -0.4201 N   0  0  0  0  0  0  0  0  0  0  0  0
    0.2956   -0.0078   -0.0024 C   0  0  0  0  0  0  0  0  0  0  0  0
   -0.3930    1.1884   -0.2036 C   0  0  0  0  0  0  0  0  0  0  0  0
   -0.4107   -1.1932    0.2015 C   0  0  0  0  0  0  0  0  0  0  0  0
    2.4688    1.1424    0.4243 C   0  0  0  0  0  0  0  0  0  0  0  0
   -1.7878    1.1994   -0.2008 C   0  0  0  0  0  0  0  0  0  0  0  0
   -1.8055   -1.1824    0.2041 C   0  0  0  0  0  0  0  0  0  0  0  0
   -2.4941    0.0139    0.0029 C   0  0  0  0  0  0  0  0  0  0  0  0
    0.1269    2.1265   -0.3758 H   0  0  0  0  0  0  0  0  0  0  0  0
    0.0944   -2.1398    0.3725 H   0  0  0  0  0  0  0  0  0  0  0  0
    3.5124    0.8775    0.6316 H   0  0  0  0  0  0  0  0  0  0  0  0
    2.0568    1.5673    1.3466 H   0  0  0  0  0  0  0  0  0  0  0  0
    2.4748    1.9131   -0.3538 H   0  0  0  0  0  0  0  0  0  0  0  0
   -2.3244    2.1302   -0.3598 H   0  0  0  0  0  0  0  0  0  0  0  0
   -2.3558   -2.1048    0.3653 H   0  0  0  0  0  0  0  0  0  0  0  0
   -3.5801    0.0224    0.0050 H   0  0  0  0  0  0  0  0  0  0  0  0
    2.3784   -1.8510    0.3103 H   0  0  0  0  0  0  0  0  0  0  0  0
    1.9800   -1.5407   -1.2477 H   0  0  0  0  0  0  0  0  0  0  0  0
  1  2  1  0  0  0  0
  1  3  1  0  0  0  0
  1  6  1  0  0  0  0
  2 18  1  0  0  0  0
  2 19  1  0  0  0  0
  3  4  2  0  0  0  0
  3  5  1  0  0  0  0
  4  7  1  0  0  0  0
  4 10  1  0  0  0  0
  5  8  2  0  0  0  0
  5 11  1  0  0  0  0
  6 12  1  0  0  0  0
  6 13  1  0  0  0  0
  6 14  1  0  0  0  0
  7  9  2  0  0  0  0
  7 15  1  0  0  0  0
  8  9  1  0  0  0  0
  8 16  1  0  0  0  0
  9 17  1  0  0  0  0
M  END
> <PUBCHEM_COMPOUND_CID>
36299

> <PUBCHEM_CONFORMER_RMSD>
0.4

> <PUBCHEM_CONFORMER_DIVERSEORDER>
1
3
2

> <PUBCHEM_MMFF94_PARTIAL_CHARGES>
16
1 -0.48
10 0.15
11 0.15
15 0.15
16 0.15
17 0.15
18 0.36
19 0.36
2 -0.71
3 0.1
4 -0.15
5 -0.15
6 0.37
7 -0.15
8 -0.15
9 -0.15

> <PUBCHEM_EFFECTIVE_ROTOR_COUNT>
1

> <PUBCHEM_PHARMACOPHORE_FEATURES>
2
1 2 donor
6 3 4 5 7 8 9 rings

> <PUBCHEM_HEAVY_ATOM_COUNT>
9

> <PUBCHEM_ATOM_DEF_STEREO_COUNT>
0

> <PUBCHEM_ATOM_UDEF_STEREO_COUNT>
0

> <PUBCHEM_BOND_DEF_STEREO_COUNT>
0

> <PUBCHEM_BOND_UDEF_STEREO_COUNT>
0

> <PUBCHEM_ISOTOPIC_ATOM_COUNT>
0

> <PUBCHEM_COMPONENT_COUNT>
1

> <PUBCHEM_CACTVS_TAUTO_COUNT>
1

> <PUBCHEM_CONFORMER_ID>
00008DCB00000001

> <PUBCHEM_MMFF94_ENERGY>
33.8116

> <PUBCHEM_FEATURE_SELFOVERLAP>
10.148

> <PUBCHEM_SHAPE_FINGERPRINT>
10857977 72 18263917916009024681
12524768 44 18410291432143230478
12897270 3 18411139168693640300
14325111 11 18411135818556021165
14390081 3 18342453776723363688
16714656 1 18335141977311995663
16945 1 18266743669550876093
19973954 147 18412265029919689240
20645464 45 18342451552093600848
21040471 1 18262516966486210221
23552423 10 18187087264738347982
2748010 2 18409449189204184559
29004967 10 18339083816443985634
369184 2 18343017800460560097
5084963 1 18041286460754177693

> <PUBCHEM_SHAPE_MULTIPOLES>
175.25
3.62
1.53
0.65
1.24
0.01
-0.01
-0.11
-0.08
-0.03
0.02
0.05
-0.01
0.36

> <PUBCHEM_SHAPE_SELFOVERLAP>
355.776

> <PUBCHEM_SHAPE_VOLUME>
103

> <PUBCHEM_COORDINATE_TYPE>
2
5
10

$$$$
