23263496
  -OEChem-11012401173D

 36 35  0     0  0  0  0  0  0999 V2000
   -2.5328    0.0055    0.1254 S   0  0  0  0  0  0  0  0  0  0  0  0
    0.4621    0.0000   -0.0149 Si  0  0  0  0  0  0  0  0  0  0  0  0
    0.5423    1.3596    0.9662 O   0  0  0  0  0  0  0  0  0  0  0  0
    1.7777   -0.0023   -1.0583 O   0  0  0  0  0  0  0  0  0  0  0  0
    0.5374   -1.3596    0.9667 O   0  0  0  0  0  0  0  0  0  0  0  0
   -1.1282    0.0024   -1.0266 C   0  0  0  0  0  0  0  0  0  0  0  0
    0.5282    2.6527    0.3780 C   0  0  0  0  0  0  0  0  0  0  0  0
    3.0939   -0.0043   -0.5235 C   0  0  0  0  0  0  0  0  0  0  0  0
    0.5188   -2.6528    0.3792 C   0  0  0  0  0  0  0  0  0  0  0  0
   -3.8743    0.0014   -1.0870 C   0  0  0  0  0  0  0  0  0  0  0  0
    0.6102    3.6938    1.4739 C   0  0  0  0  0  0  0  0  0  0  0  0
    4.0896   -0.0059   -1.6639 C   0  0  0  0  0  0  0  0  0  0  0  0
    0.5970   -3.6937    1.4756 C   0  0  0  0  0  0  0  0  0  0  0  0
   -5.2218    0.0032   -0.3907 C   0  0  0  0  0  0  0  0  0  0  0  0
   -1.1692    0.8917   -1.6621 H   0  0  0  0  0  0  0  0  0  0  0  0
   -1.1722   -0.8874   -1.6612 H   0  0  0  0  0  0  0  0  0  0  0  0
    1.3829    2.7744   -0.2987 H   0  0  0  0  0  0  0  0  0  0  0  0
   -0.3974    2.8059   -0.1897 H   0  0  0  0  0  0  0  0  0  0  0  0
    3.2572    0.8875    0.0940 H   0  0  0  0  0  0  0  0  0  0  0  0
    3.2543   -0.8964    0.0942 H   0  0  0  0  0  0  0  0  0  0  0  0
   -0.4073   -2.8031   -0.1885 H   0  0  0  0  0  0  0  0  0  0  0  0
    1.3731   -2.7779   -0.2973 H   0  0  0  0  0  0  0  0  0  0  0  0
   -3.7886   -0.8887   -1.7182 H   0  0  0  0  0  0  0  0  0  0  0  0
   -3.7890    0.8877   -1.7236 H   0  0  0  0  0  0  0  0  0  0  0  0
   -0.2314    3.5914    2.1670 H   0  0  0  0  0  0  0  0  0  0  0  0
    1.5246    3.5633    2.0621 H   0  0  0  0  0  0  0  0  0  0  0  0
    0.6013    4.7041    1.0554 H   0  0  0  0  0  0  0  0  0  0  0  0
    3.9458   -0.8854   -2.3002 H   0  0  0  0  0  0  0  0  0  0  0  0
    3.9485    0.8740   -2.3003 H   0  0  0  0  0  0  0  0  0  0  0  0
    5.1162   -0.0074   -1.2870 H   0  0  0  0  0  0  0  0  0  0  0  0
    1.5118   -3.5662    2.0639 H   0  0  0  0  0  0  0  0  0  0  0  0
   -0.2444   -3.5881    2.1685 H   0  0  0  0  0  0  0  0  0  0  0  0
    0.5848   -4.7042    1.0574 H   0  0  0  0  0  0  0  0  0  0  0  0
   -5.3510   -0.8842    0.2384 H   0  0  0  0  0  0  0  0  0  0  0  0
   -5.3514    0.8943    0.2329 H   0  0  0  0  0  0  0  0  0  0  0  0
   -6.0256    0.0007   -1.1345 H   0  0  0  0  0  0  0  0  0  0  0  0
  1  6  1  0  0  0  0
  1 10  1  0  0  0  0
  2  3  1  0  0  0  0
  2  4  1  0  0  0  0
  2  5  1  0  0  0  0
  2  6  1  0  0  0  0
  3  7  1  0  0  0  0
  4  8  1  0  0  0  0
  5  9  1  0  0  0  0
  6 15  1  0  0  0  0
  6 16  1  0  0  0  0
  7 11  1  0  0  0  0
  7 17  1  0  0  0  0
  7 18  1  0  0  0  0
  8 12  1  0  0  0  0
  8 19  1  0  0  0  0
  8 20  1  0  0  0  0
  9 13  1  0  0  0  0
  9 21  1  0  0  0  0
  9 22  1  0  0  0  0
 10 14  1  0  0  0  0
 10 23  1  0  0  0  0
 10 24  1  0  0  0  0
 11 25  1  0  0  0  0
 11 26  1  0  0  0  0
 11 27  1  0  0  0  0
 12 28  1  0  0  0  0
 12 29  1  0  0  0  0
 12 30  1  0  0  0  0
 13 31  1  0  0  0  0
 13 32  1  0  0  0  0
 13 33  1  0  0  0  0
 14 34  1  0  0  0  0
 14 35  1  0  0  0  0
 14 36  1  0  0  0  0
M  END
> <PUBCHEM_COMPOUND_CID>
23263496

> <PUBCHEM_CONFORMER_RMSD>
0.8

> <PUBCHEM_CONFORMER_DIVERSEORDER>
1
101
6
61
67
79
50
77
40
96
105
38
3
75
34
23
91
52
73
62
63
28
84
44
55
49
25
83
81
11
43
30
100
102
20
21
18
54
60
106
48
103
15
82
68
110
47
5
39
66
69
86
58
51
53
97
112
89
24
88
27
93
65
22
107
46
41
114
98
90
76
8
85
104
109
108
26
80
13
113
95
36
35
17
57
99
71
19
59
32
94
31
14
37
56
45
29
12
64
92
74
70
16
78
111
87
7
2
4
10
9
33
72
42

> <PUBCHEM_MMFF94_PARTIAL_CHARGES>
10
1 -0.46
10 0.23
2 0.97
3 -0.58
4 -0.58
5 -0.58
6 0.15
7 0.28
8 0.28
9 0.28

> <PUBCHEM_EFFECTIVE_ROTOR_COUNT>
9

> <PUBCHEM_PHARMACOPHORE_FEATURES>
1
1 14 hydrophobe

> <PUBCHEM_HEAVY_ATOM_COUNT>
14

> <PUBCHEM_ATOM_DEF_STEREO_COUNT>
0

> <PUBCHEM_ATOM_UDEF_STEREO_COUNT>
0

> <PUBCHEM_BOND_DEF_STEREO_COUNT>
0

> <PUBCHEM_BOND_UDEF_STEREO_COUNT>
0

> <PUBCHEM_ISOTOPIC_ATOM_COUNT>
0

> <PUBCHEM_COMPONENT_COUNT>
1

> <PUBCHEM_CACTVS_TAUTO_COUNT>
1

> <PUBCHEM_CONFORMER_ID>
0162F90800000001

> <PUBCHEM_MMFF94_ENERGY>
6.4889

> <PUBCHEM_FEATURE_SELFOVERLAP>
5.074

> <PUBCHEM_SHAPE_FINGERPRINT>
10366900 7 18261108591608344063
12596602 18 17699587033068956907
12932764 1 18338498804076956551
13149001 5 18195821879688176644
13380536 167 17762341310207339384
13380536 261 18195812860299052802
14943834 7 17689441486004374066
17041 50 18130781248921884589
187816 3 18410866455777202966
21524375 3 17551481750710893889
22112679 90 17985825922055400491
2255824 54 18270668870623061565
23402539 116 18271818869580924340
23419403 2 17907603645234950432
23526113 38 18340778103849027334
23558518 356 17690262129663788463
266924 1 17977392637747578046
2748010 2 18046624792018820947
298252 57 16950854694837772764
3060560 45 18337378431276227735
3250762 1 17762907966770167722
4175511 335 18187919543669830679
68419 9 17692537715095919040
81228 2 18056505914324432672
81539 233 17603867771404259383

> <PUBCHEM_SHAPE_MULTIPOLES>
292.57
6.4
3.74
1.51
7.3
0
0.01
-0.01
-4.17
-1.96
3.43
-0.8
0
0.01

> <PUBCHEM_SHAPE_SELFOVERLAP>
508.174

> <PUBCHEM_SHAPE_VOLUME>
194.7

> <PUBCHEM_COORDINATE_TYPE>
2
5
10

$$$$
