98018
  -OEChem-11012401193D

 18 17  0     1  0  0  0  0  0999 V2000
   -1.3203    0.2655    0.2009 O   0  0  0  0  0  0  0  0  0  0  0  0
    0.0268   -1.5039   -0.4048 O   0  0  0  0  0  0  0  0  0  0  0  0
    3.3527   -0.5760    0.0776 N   0  0  0  0  0  0  0  0  0  0  0  0
    1.0082    0.5909    0.3638 C   0  0  1  0  0  0  0  0  0  0  0  0
    0.9314    1.8443   -0.5015 C   0  0  0  0  0  0  0  0  0  0  0  0
   -0.1203   -0.3590    0.0034 C   0  0  0  0  0  0  0  0  0  0  0  0
   -2.4804   -0.5148   -0.1055 C   0  0  0  0  0  0  0  0  0  0  0  0
   -3.7179    0.3144    0.1647 C   0  0  0  0  0  0  0  0  0  0  0  0
    2.3199   -0.0615    0.2014 C   0  0  0  0  0  0  0  0  0  0  0  0
    0.8854    0.8611    1.4197 H   0  0  0  0  0  0  0  0  0  0  0  0
    0.9758    1.5959   -1.5687 H   0  0  0  0  0  0  0  0  0  0  0  0
   -0.0005    2.3938   -0.3305 H   0  0  0  0  0  0  0  0  0  0  0  0
    1.7618    2.5253   -0.2830 H   0  0  0  0  0  0  0  0  0  0  0  0
   -2.4547   -0.8080   -1.1609 H   0  0  0  0  0  0  0  0  0  0  0  0
   -2.4925   -1.4130    0.5218 H   0  0  0  0  0  0  0  0  0  0  0  0
   -4.6256   -0.2526   -0.0599 H   0  0  0  0  0  0  0  0  0  0  0  0
   -3.7485    0.6306    1.2127 H   0  0  0  0  0  0  0  0  0  0  0  0
   -3.7109    1.2259   -0.4421 H   0  0  0  0  0  0  0  0  0  0  0  0
  1  6  1  0  0  0  0
  1  7  1  0  0  0  0
  2  6  2  0  0  0  0
  3  9  3  0  0  0  0
  4  5  1  0  0  0  0
  4  6  1  0  0  0  0
  4  9  1  0  0  0  0
  4 10  1  0  0  0  0
  5 11  1  0  0  0  0
  5 12  1  0  0  0  0
  5 13  1  0  0  0  0
  7  8  1  0  0  0  0
  7 14  1  0  0  0  0
  7 15  1  0  0  0  0
  8 16  1  0  0  0  0
  8 17  1  0  0  0  0
  8 18  1  0  0  0  0
M  END
> <PUBCHEM_COMPOUND_CID>
98018

> <PUBCHEM_CONFORMER_RMSD>
0.6

> <PUBCHEM_CONFORMER_DIVERSEORDER>
4
23
6
18
28
29
13
12
16
25
7
10
22
9
8
21
24
1
19
3
5
15
30
27
20
26
2
11
14
17

> <PUBCHEM_MMFF94_PARTIAL_CHARGES>
7
1 -0.43
2 -0.57
3 -0.56
4 0.26
6 0.66
7 0.28
9 0.36

> <PUBCHEM_EFFECTIVE_ROTOR_COUNT>
3

> <PUBCHEM_PHARMACOPHORE_FEATURES>
3
1 2 acceptor
1 3 acceptor
1 5 hydrophobe

> <PUBCHEM_HEAVY_ATOM_COUNT>
9

> <PUBCHEM_ATOM_DEF_STEREO_COUNT>
0

> <PUBCHEM_ATOM_UDEF_STEREO_COUNT>
1

> <PUBCHEM_BOND_DEF_STEREO_COUNT>
0

> <PUBCHEM_BOND_UDEF_STEREO_COUNT>
0

> <PUBCHEM_ISOTOPIC_ATOM_COUNT>
0

> <PUBCHEM_COMPONENT_COUNT>
1

> <PUBCHEM_CACTVS_TAUTO_COUNT>
1

> <PUBCHEM_CONFORMER_ID>
00017EE200000004

> <PUBCHEM_MMFF94_ENERGY>
5.8503

> <PUBCHEM_FEATURE_SELFOVERLAP>
15.223

> <PUBCHEM_SHAPE_FINGERPRINT>
10219947 1 18411139121253782131
11062470 55 13758354475019388939
12932764 1 16733531819350789763
14325111 11 18341330097483138755
14993402 34 18410860970882439156
21040471 1 18126284383343875681
23552423 10 18119804965653464214
29004967 10 18113617893749539288
5084963 1 18412542149857311313

> <PUBCHEM_SHAPE_MULTIPOLES>
168.5
5.11
1.33
0.66
2.45
0.39
0
-0.38
-0.4
-0.45
0.26
-0.01
0.04
-0.14

> <PUBCHEM_SHAPE_SELFOVERLAP>
314.881

> <PUBCHEM_SHAPE_VOLUME>
104

> <PUBCHEM_COORDINATE_TYPE>
2
5
10

$$$$
