11829680
  -OEChem-11012401073D

 21 21  0     0  0  0  0  0  0999 V2000
    3.4333   -0.9448    0.5615 F   0  0  0  0  0  0  0  0  0  0  0  0
    3.8882    0.5177   -0.9835 F   0  0  0  0  0  0  0  0  0  0  0  0
    0.6548   -0.0123    0.7851 C   0  0  0  0  0  0  0  0  0  0  0  0
    1.6417    0.2749   -0.3581 C   0  0  0  0  0  0  0  0  0  0  0  0
   -0.7782   -0.0159    0.3709 C   0  0  0  0  0  0  0  0  0  0  0  0
    3.0921    0.2801    0.0904 C   0  0  0  0  0  0  0  0  0  0  0  0
   -1.5194    1.1650    0.4135 C   0  0  0  0  0  0  0  0  0  0  0  0
   -1.3771   -1.2001   -0.0585 C   0  0  0  0  0  0  0  0  0  0  0  0
   -2.8596    1.1616    0.0268 C   0  0  0  0  0  0  0  0  0  0  0  0
   -2.7173   -1.2035   -0.4454 C   0  0  0  0  0  0  0  0  0  0  0  0
   -3.4585   -0.0226   -0.4028 C   0  0  0  0  0  0  0  0  0  0  0  0
    0.8005    0.7286    1.5824 H   0  0  0  0  0  0  0  0  0  0  0  0
    0.9022   -0.9785    1.2446 H   0  0  0  0  0  0  0  0  0  0  0  0
    1.5187   -0.4827   -1.1422 H   0  0  0  0  0  0  0  0  0  0  0  0
    1.4082    1.2383   -0.8272 H   0  0  0  0  0  0  0  0  0  0  0  0
    3.2973    1.0304    0.8589 H   0  0  0  0  0  0  0  0  0  0  0  0
   -1.0638    2.0946    0.7443 H   0  0  0  0  0  0  0  0  0  0  0  0
   -0.8099   -2.1262   -0.0981 H   0  0  0  0  0  0  0  0  0  0  0  0
   -3.4367    2.0811    0.0594 H   0  0  0  0  0  0  0  0  0  0  0  0
   -3.1836   -2.1255   -0.7804 H   0  0  0  0  0  0  0  0  0  0  0  0
   -4.5019   -0.0253   -0.7043 H   0  0  0  0  0  0  0  0  0  0  0  0
  1  6  1  0  0  0  0
  2  6  1  0  0  0  0
  3  4  1  0  0  0  0
  3  5  1  0  0  0  0
  3 12  1  0  0  0  0
  3 13  1  0  0  0  0
  4  6  1  0  0  0  0
  4 14  1  0  0  0  0
  4 15  1  0  0  0  0
  5  7  2  0  0  0  0
  5  8  1  0  0  0  0
  6 16  1  0  0  0  0
  7  9  1  0  0  0  0
  7 17  1  0  0  0  0
  8 10  2  0  0  0  0
  8 18  1  0  0  0  0
  9 11  2  0  0  0  0
  9 19  1  0  0  0  0
 10 11  1  0  0  0  0
 10 20  1  0  0  0  0
 11 21  1  0  0  0  0
M  END
> <PUBCHEM_COMPOUND_CID>
11829680

> <PUBCHEM_CONFORMER_RMSD>
0.6

> <PUBCHEM_CONFORMER_DIVERSEORDER>
1
5
3
6
4
2

> <PUBCHEM_MMFF94_PARTIAL_CHARGES>
15
1 -0.34
10 -0.15
11 -0.15
17 0.15
18 0.15
19 0.15
2 -0.34
20 0.15
21 0.15
3 0.14
5 -0.14
6 0.68
7 -0.15
8 -0.15
9 -0.15

> <PUBCHEM_EFFECTIVE_ROTOR_COUNT>
3

> <PUBCHEM_PHARMACOPHORE_FEATURES>
1
6 5 7 8 9 10 11 rings

> <PUBCHEM_HEAVY_ATOM_COUNT>
11

> <PUBCHEM_ATOM_DEF_STEREO_COUNT>
0

> <PUBCHEM_ATOM_UDEF_STEREO_COUNT>
0

> <PUBCHEM_BOND_DEF_STEREO_COUNT>
0

> <PUBCHEM_BOND_UDEF_STEREO_COUNT>
0

> <PUBCHEM_ISOTOPIC_ATOM_COUNT>
0

> <PUBCHEM_COMPONENT_COUNT>
1

> <PUBCHEM_CACTVS_TAUTO_COUNT>
1

> <PUBCHEM_CONFORMER_ID>
00B481B000000001

> <PUBCHEM_MMFF94_ENERGY>
19.8442

> <PUBCHEM_FEATURE_SELFOVERLAP>
5.074

> <PUBCHEM_SHAPE_FINGERPRINT>
12932764 1 18343023315298795208
13024252 1 17894914044738065939
13296908 3 16630809902465354624
14144814 61 18408885131196686656
14325111 11 18410009922912296032
15669948 3 18342171206461511766
15775835 57 18186522081275312789
18186145 218 18131634486781737192
190213 19 17822007614200315568
20201158 50 17561085799715654319
20279233 1 16988559104654245862
20281407 28 17418375817549107742
20711983 171 18410294679180892868
21061003 4 16271932648511988555
23402539 116 18201989998291886077
23552423 10 18192424384542574089
23559900 14 18059851745466239000
3248919 1 17748826341054324106
528716 315 18410578417752931471
57812782 119 17704067395745900780
93112 12 18412263969110071052

> <PUBCHEM_SHAPE_MULTIPOLES>
211.83
6.6
1.23
0.81
4.95
0.06
0.02
0.04
1.27
-0.85
-0.02
0.3
-0.02
-0.37

> <PUBCHEM_SHAPE_SELFOVERLAP>
429.573

> <PUBCHEM_SHAPE_VOLUME>
123.7

> <PUBCHEM_COORDINATE_TYPE>
2
5
10

$$$$
