57349457
  -OEChem-11012400523D

 37 37  0     1  0  0  0  0  0999 V2000
   -4.0821   -1.4256   -1.3584 O   0  0  0  0  0  0  0  0  0  0  0  0
   -1.3561   -1.2258   -1.4565 O   0  0  0  0  0  0  0  0  0  0  0  0
   -5.5304   -0.7129    0.9011 O   0  0  0  0  0  0  0  0  0  0  0  0
   -0.9278   -0.8060    1.3573 O   0  0  0  0  0  0  0  0  0  0  0  0
   -5.6400    2.0413    0.5344 O   0  0  0  0  0  0  0  0  0  0  0  0
    1.2645    0.2583    0.1835 N   0  0  0  0  0  0  0  0  0  0  0  0
    2.3138    0.8595   -0.4095 N   0  0  0  0  0  0  0  0  0  0  0  0
   -3.3884   -0.9316   -0.2060 C   0  0  1  0  0  0  0  0  0  0  0  0
   -2.0888   -0.2567   -0.6928 C   0  0  1  0  0  0  0  0  0  0  0  0
   -4.3433    0.0006    0.5632 C   0  0  1  0  0  0  0  0  0  0  0  0
   -1.1728    0.2375    0.4345 C   0  0  2  0  0  0  0  0  0  0  0  0
   -4.7345    1.2535   -0.2213 C   0  0  0  0  0  0  0  0  0  0  0  0
    0.1235    0.7695   -0.1423 C   0  0  0  0  0  0  0  0  0  0  0  0
    3.6245    0.4234   -0.1612 C   0  0  0  0  0  0  0  0  0  0  0  0
    4.7005    1.0608   -0.7789 C   0  0  0  0  0  0  0  0  0  0  0  0
    3.8510   -0.6476    0.7031 C   0  0  0  0  0  0  0  0  0  0  0  0
    6.0033    0.6272   -0.5322 C   0  0  0  0  0  0  0  0  0  0  0  0
    5.1535   -1.0813    0.9499 C   0  0  0  0  0  0  0  0  0  0  0  0
    6.2297   -0.4440    0.3322 C   0  0  0  0  0  0  0  0  0  0  0  0
   -3.1592   -1.8180    0.3971 H   0  0  0  0  0  0  0  0  0  0  0  0
   -2.3178    0.5527   -1.3950 H   0  0  0  0  0  0  0  0  0  0  0  0
   -3.8830    0.2983    1.5121 H   0  0  0  0  0  0  0  0  0  0  0  0
   -1.6574    1.0631    0.9666 H   0  0  0  0  0  0  0  0  0  0  0  0
   -3.8633    1.8733   -0.4491 H   0  0  0  0  0  0  0  0  0  0  0  0
   -5.2388    0.9853   -1.1554 H   0  0  0  0  0  0  0  0  0  0  0  0
    0.0335    1.6221   -0.8412 H   0  0  0  0  0  0  0  0  0  0  0  0
   -4.8983   -1.8523   -1.0459 H   0  0  0  0  0  0  0  0  0  0  0  0
   -0.6745   -0.7546   -1.9647 H   0  0  0  0  0  0  0  0  0  0  0  0
   -6.1108   -0.1023    1.3869 H   0  0  0  0  0  0  0  0  0  0  0  0
   -0.4283   -0.4279    2.1010 H   0  0  0  0  0  0  0  0  0  0  0  0
   -5.8624    2.8196   -0.0045 H   0  0  0  0  0  0  0  0  0  0  0  0
    2.1804    1.6391   -1.0441 H   0  0  0  0  0  0  0  0  0  0  0  0
    4.5376    1.8965   -1.4547 H   0  0  0  0  0  0  0  0  0  0  0  0
    3.0373   -1.1677    1.2014 H   0  0  0  0  0  0  0  0  0  0  0  0
    6.8412    1.1233   -1.0130 H   0  0  0  0  0  0  0  0  0  0  0  0
    5.3304   -1.9153    1.6229 H   0  0  0  0  0  0  0  0  0  0  0  0
    7.2438   -0.7817    0.5244 H   0  0  0  0  0  0  0  0  0  0  0  0
  1  8  1  0  0  0  0
  1 27  1  0  0  0  0
  2  9  1  0  0  0  0
  2 28  1  0  0  0  0
  3 10  1  0  0  0  0
  3 29  1  0  0  0  0
  4 11  1  0  0  0  0
  4 30  1  0  0  0  0
  5 12  1  0  0  0  0
  5 31  1  0  0  0  0
  6  7  1  0  0  0  0
  6 13  2  3  0  0  0
  7 14  1  0  0  0  0
  7 32  1  0  0  0  0
  8  9  1  0  0  0  0
  8 10  1  0  0  0  0
  8 20  1  0  0  0  0
  9 11  1  0  0  0  0
  9 21  1  0  0  0  0
 10 12  1  0  0  0  0
 10 22  1  0  0  0  0
 11 13  1  0  0  0  0
 11 23  1  0  0  0  0
 12 24  1  0  0  0  0
 12 25  1  0  0  0  0
 13 26  1  0  0  0  0
 14 15  2  0  0  0  0
 14 16  1  0  0  0  0
 15 17  1  0  0  0  0
 15 33  1  0  0  0  0
 16 18  2  0  0  0  0
 16 34  1  0  0  0  0
 17 19  2  0  0  0  0
 17 35  1  0  0  0  0
 18 19  1  0  0  0  0
 18 36  1  0  0  0  0
 19 37  1  0  0  0  0
M  END
> <PUBCHEM_COMPOUND_CID>
57349457

> <PUBCHEM_CONFORMER_RMSD>
0.8

> <PUBCHEM_CONFORMER_DIVERSEORDER>
1
114
61
63
130
134
2
70
48
95
69
141
43
85
112
155
144
41
138
148
22
83
116
156
9
132
18
38
125
51
109
89
47
145
45
122
143
108
5
34
160
93
37
3
77
60
49
13
92
55
21
105
88
124
133
87
30
82
50
11
40
102
46
96
128
107
97
111
54
98
150
157
7
79
80
59
72
75
100
120
17
106
28
15
4
56
36
140
137
94
86
158
24
74
129
33
58
135
139
53
119
131
84
99
118
62
16
67
19
153
29
136
147
66
152
32
146
57
149
65
121
126
73
90
39
68
26
91
154
151
52
104
127
142
35
115
23
71
27
6
103
31
117
25
113
44
14
78
81
159
8
20
12
42
101
64
110
123
10
76

> <PUBCHEM_MMFF94_PARTIAL_CHARGES>
31
1 -0.68
10 0.28
11 0.34
12 0.28
13 0.33
14 0.1
15 -0.15
16 -0.15
17 -0.15
18 -0.15
19 -0.15
2 -0.68
26 0.06
27 0.4
28 0.4
29 0.4
3 -0.68
30 0.4
31 0.4
32 0.4
33 0.15
34 0.15
35 0.15
36 0.15
37 0.15
4 -0.68
5 -0.68
6 -0.49
7 -0.46
8 0.28
9 0.28

> <PUBCHEM_EFFECTIVE_ROTOR_COUNT>
7

> <PUBCHEM_PHARMACOPHORE_FEATURES>
13
1 1 acceptor
1 1 donor
1 2 acceptor
1 2 donor
1 3 acceptor
1 3 donor
1 4 acceptor
1 4 donor
1 5 acceptor
1 5 donor
1 6 acceptor
1 7 donor
6 14 15 16 17 18 19 rings

> <PUBCHEM_HEAVY_ATOM_COUNT>
19

> <PUBCHEM_ATOM_DEF_STEREO_COUNT>
4

> <PUBCHEM_ATOM_UDEF_STEREO_COUNT>
0

> <PUBCHEM_BOND_DEF_STEREO_COUNT>
0

> <PUBCHEM_BOND_UDEF_STEREO_COUNT>
1

> <PUBCHEM_ISOTOPIC_ATOM_COUNT>
0

> <PUBCHEM_COMPONENT_COUNT>
1

> <PUBCHEM_CACTVS_TAUTO_COUNT>
1

> <PUBCHEM_CONFORMER_ID>
036B155100000001

> <PUBCHEM_MMFF94_ENERGY>
50.9272

> <PUBCHEM_FEATURE_SELFOVERLAP>
66.016

> <PUBCHEM_SHAPE_FINGERPRINT>
11287383 113 16225767445554756332
11858739 19 17703514299001318934
12091667 2 18412826901730492901
12236239 1 18409450284653070480
12616971 3 18409440406576534022
12916748 109 13551189979319841508
13533116 47 18260827069329237706
14123238 8 14056716859611412072
1420 363 13912326776169376104
14251718 22 8646764499928509280
14251731 8 17846779611190030553
14251752 14 18342457011055173200
14251764 18 18408888438791087289
14848160 23 15770055046970049950
15183329 4 18334851706147330524
17093844 174 18131344219964559169
17834072 33 18409167727481796736
17834072 8 17489867137692917697
17844677 252 16298103181337209332
19489759 90 16487257655726611985
200 152 18335137605241088224
20281389 69 18407759222948517713
20645477 70 17603863374259445314
21267235 1 18114184104221526018
21315763 178 18341040870465342954
220451 1 18342742931381128910
23081809 10 18334856138727724668
23402539 116 18408882940668634533
23536379 177 18334013882529360328
23559900 14 16271923848361414834
26918003 58 16128656370749627498
29717793 49 18411987940990421646
300161 21 18272647961493574960
3004659 81 17967814930088025842
3009799 131 15338834236304702129
351380 3 18411132554855707958
42788 4 18186522111566846184
4325135 7 9295283945771179601
474229 33 10809345542169123257
5104073 3 17702663409528462075
5283173 99 15051742928028461011
5385378 56 17345490210326618167
542803 24 18260547831634706036
559249 180 18202278104444985263
59755656 215 17632304419843785646
7226269 152 17489591147410465577

> <PUBCHEM_SHAPE_MULTIPOLES>
351.7
16.54
1.38
1.08
4.84
0.21
-0.21
1.16
1.53
-0.75
0.04
-0.7
-0.29
-1.41

> <PUBCHEM_SHAPE_SELFOVERLAP>
710.063

> <PUBCHEM_SHAPE_VOLUME>
204

> <PUBCHEM_COORDINATE_TYPE>
2
5
10

$$$$
