136274
  -OEChem-11012400583D

 10  9  0     0  0  0  0  0  0999 V2000
    0.6298    1.2542   -0.1590 F   0  0  0  0  0  0  0  0  0  0  0  0
    1.5834   -0.6959   -0.0327 F   0  0  0  0  0  0  0  0  0  0  0  0
   -1.9477    0.0901    0.1046 N   0  0  0  0  0  0  0  0  0  0  0  0
   -0.7469   -0.6509   -0.2555 C   0  0  0  0  0  0  0  0  0  0  0  0
    0.4813    0.0026    0.3425 C   0  0  0  0  0  0  0  0  0  0  0  0
   -0.6525   -0.6799   -1.3463 H   0  0  0  0  0  0  0  0  0  0  0  0
   -0.8258   -1.6856    0.0928 H   0  0  0  0  0  0  0  0  0  0  0  0
    0.4519    0.0564    1.4347 H   0  0  0  0  0  0  0  0  0  0  0  0
   -2.7542   -0.3252   -0.3600 H   0  0  0  0  0  0  0  0  0  0  0  0
   -1.8782    1.0461   -0.2419 H   0  0  0  0  0  0  0  0  0  0  0  0
  1  5  1  0  0  0  0
  2  5  1  0  0  0  0
  3  4  1  0  0  0  0
  3  9  1  0  0  0  0
  3 10  1  0  0  0  0
  4  5  1  0  0  0  0
  4  6  1  0  0  0  0
  4  7  1  0  0  0  0
  5  8  1  0  0  0  0
M  END
> <PUBCHEM_COMPOUND_CID>
136274

> <PUBCHEM_CONFORMER_RMSD>
0.4

> <PUBCHEM_CONFORMER_DIVERSEORDER>
1
3
2

> <PUBCHEM_MMFF94_PARTIAL_CHARGES>
7
1 -0.34
10 0.36
2 -0.34
3 -0.99
4 0.27
5 0.68
9 0.36

> <PUBCHEM_EFFECTIVE_ROTOR_COUNT>
1

> <PUBCHEM_PHARMACOPHORE_FEATURES>
2
1 3 cation
1 3 donor

> <PUBCHEM_HEAVY_ATOM_COUNT>
5

> <PUBCHEM_ATOM_DEF_STEREO_COUNT>
0

> <PUBCHEM_ATOM_UDEF_STEREO_COUNT>
0

> <PUBCHEM_BOND_DEF_STEREO_COUNT>
0

> <PUBCHEM_BOND_UDEF_STEREO_COUNT>
0

> <PUBCHEM_ISOTOPIC_ATOM_COUNT>
0

> <PUBCHEM_COMPONENT_COUNT>
1

> <PUBCHEM_CACTVS_TAUTO_COUNT>
1

> <PUBCHEM_CONFORMER_ID>
0002145200000001

> <PUBCHEM_MMFF94_ENERGY>
-1.0693

> <PUBCHEM_FEATURE_SELFOVERLAP>
10.148

> <PUBCHEM_SHAPE_FINGERPRINT>
139733 1 9222937188696288226
20096714 4 18339081621879318441
21015797 1 8860461207489162730
5460574 1 8502653714167803499
5943 1 14716487916999158094

> <PUBCHEM_SHAPE_MULTIPOLES>
83.37
1.91
0.98
0.6
0.55
0.17
-0.02
-0.13
-0.04
-0.23
0.08
0.02
-0.01
-0.06

> <PUBCHEM_SHAPE_SELFOVERLAP>
144.486

> <PUBCHEM_SHAPE_VOLUME>
55.9

> <PUBCHEM_COORDINATE_TYPE>
2
5
10

$$$$
