6491
  -OEChem-11012400563D

 17 17  0     0  0  0  0  0  0999 V2000
   -1.3392    1.8271    0.0003 O   0  0  0  0  0  0  0  0  0  0  0  0
    2.7441   -0.2572    0.0006 O   0  0  0  0  0  0  0  0  0  0  0  0
    0.5569   -1.0833   -0.0002 N   0  0  0  0  0  0  0  0  0  0  0  0
    0.8703    1.1197   -0.0006 N   0  0  0  0  0  0  0  0  0  0  0  0
   -0.7927   -0.5567    0.0000 C   0  0  0  0  0  0  0  0  0  0  0  0
   -0.4923    0.9440   -0.0003 C   0  0  0  0  0  0  0  0  0  0  0  0
   -1.5398   -0.9533    1.2665 C   0  0  0  0  0  0  0  0  0  0  0  0
   -1.5401   -0.9539   -1.2660 C   0  0  0  0  0  0  0  0  0  0  0  0
    1.5328   -0.0863   -0.0003 C   0  0  0  0  0  0  0  0  0  0  0  0
    0.7749   -2.0749    0.0003 H   0  0  0  0  0  0  0  0  0  0  0  0
   -1.6487   -2.0413    1.3350 H   0  0  0  0  0  0  0  0  0  0  0  0
   -1.0086   -0.6183    2.1653 H   0  0  0  0  0  0  0  0  0  0  0  0
   -2.5399   -0.5068    1.2930 H   0  0  0  0  0  0  0  0  0  0  0  0
   -1.0092   -0.6193   -2.1650 H   0  0  0  0  0  0  0  0  0  0  0  0
   -1.6490   -2.0420   -1.3340 H   0  0  0  0  0  0  0  0  0  0  0  0
   -2.5403   -0.5075   -1.2924 H   0  0  0  0  0  0  0  0  0  0  0  0
    1.3297    2.0232   -0.0005 H   0  0  0  0  0  0  0  0  0  0  0  0
  1  6  2  0  0  0  0
  2  9  2  0  0  0  0
  3  5  1  0  0  0  0
  3  9  1  0  0  0  0
  3 10  1  0  0  0  0
  4  6  1  0  0  0  0
  4  9  1  0  0  0  0
  4 17  1  0  0  0  0
  5  6  1  0  0  0  0
  5  7  1  0  0  0  0
  5  8  1  0  0  0  0
  7 11  1  0  0  0  0
  7 12  1  0  0  0  0
  7 13  1  0  0  0  0
  8 14  1  0  0  0  0
  8 15  1  0  0  0  0
  8 16  1  0  0  0  0
M  END
> <PUBCHEM_COMPOUND_CID>
6491

> <PUBCHEM_CONFORMER_RMSD>
0.4

> <PUBCHEM_CONFORMER_DIVERSEORDER>
1

> <PUBCHEM_MMFF94_PARTIAL_CHARGES>
9
1 -0.57
10 0.37
17 0.37
2 -0.57
3 -0.73
4 -0.49
5 0.36
6 0.57
9 0.69

> <PUBCHEM_EFFECTIVE_ROTOR_COUNT>
0.6

> <PUBCHEM_PHARMACOPHORE_FEATURES>
6
1 1 acceptor
1 2 acceptor
1 3 donor
1 4 donor
3 5 7 8 hydrophobe
5 3 4 5 6 9 rings

> <PUBCHEM_HEAVY_ATOM_COUNT>
9

> <PUBCHEM_ATOM_DEF_STEREO_COUNT>
0

> <PUBCHEM_ATOM_UDEF_STEREO_COUNT>
0

> <PUBCHEM_BOND_DEF_STEREO_COUNT>
0

> <PUBCHEM_BOND_UDEF_STEREO_COUNT>
0

> <PUBCHEM_ISOTOPIC_ATOM_COUNT>
0

> <PUBCHEM_COMPONENT_COUNT>
1

> <PUBCHEM_CACTVS_TAUTO_COUNT>
5

> <PUBCHEM_CONFORMER_ID>
0000195B00000001

> <PUBCHEM_MMFF94_ENERGY>
19.4187

> <PUBCHEM_FEATURE_SELFOVERLAP>
30.517

> <PUBCHEM_SHAPE_FINGERPRINT>
12423570 1 10731146995290383483
13024252 1 18113056021500593174
137420 1 15115093837410172483
18185500 45 17769369757677829095
21040471 1 18050285873396942596
23552423 10 18261398784994574046
24536 1 18113334228133707628
29004967 10 18045788046057717275
369184 2 17489299781066049506
5084963 1 17774715463237802098
5943 1 12348494235799953159
68250623 7 17979069388869851759

> <PUBCHEM_SHAPE_MULTIPOLES>
163.52
2.52
1.48
0.98
1.49
0.67
0
-0.58
0
-0.45
0
-0.65
-0.32
0

> <PUBCHEM_SHAPE_SELFOVERLAP>
334.79

> <PUBCHEM_SHAPE_VOLUME>
97.3

> <PUBCHEM_COORDINATE_TYPE>
2
5
10

$$$$
