26040
  -OEChem-10312420462D

 11  5  0     0  0  0  0  0  0999 V2000
    3.2500    0.0000    0.0000 Fe  0  0  0  0  0  0  0  0  0  0  0  0
    0.0000    3.7500    0.0000 O   0  0  0  0  0  0  0  0  0  0  0  0
    3.0000    2.5000    0.0000 O   0  0  0  0  0  0  0  0  0  0  0  0
    3.0000    5.0000    0.0000 O   0  0  0  0  0  0  0  0  0  0  0  0
    3.0000    7.5000    0.0000 O   0  0  0  0  0  0  0  0  0  0  0  0
    6.0000    3.7500    0.0000 O   0  0  0  0  0  0  0  0  0  0  0  0
    1.0000    3.7500    0.0000 C   0  0  0  0  0  2  0  0  0  0  0  0
    4.0000    2.5000    0.0000 C   0  0  0  0  0  2  0  0  0  0  0  0
    4.0000    5.0000    0.0000 C   0  0  0  0  0  2  0  0  0  0  0  0
    4.0000    7.5000    0.0000 C   0  0  0  0  0  2  0  0  0  0  0  0
    7.0000    3.7500    0.0000 C   0  0  0  0  0  2  0  0  0  0  0  0
  2  7  2  0  0  0  0
  3  8  2  0  0  0  0
  4  9  2  0  0  0  0
  5 10  2  0  0  0  0
  6 11  2  0  0  0  0
M  END
> <PUBCHEM_COMPOUND_CID>
26040

> <PUBCHEM_COMPOUND_CANONICALIZED>
1

> <PUBCHEM_CACTVS_COMPLEXITY>
2

> <PUBCHEM_CACTVS_HBOND_ACCEPTOR>
5

> <PUBCHEM_CACTVS_HBOND_DONOR>
0

> <PUBCHEM_CACTVS_ROTATABLE_BOND>
0

> <PUBCHEM_CACTVS_SUBSKEYS>
AAADcQBgOAAAAAAgAAAAAAAAAAAAAAAAAAAAAAAAAAAAAAAAAAAAAgAAAAAAAAAAAAAAAAAAAAAIAAAAAAAAAAAAAAAAAAAAAAAAAAAAAAAAAAAAAAAAAAAAAAAAAAAAAAAAAAAAAAAAAAAAAAAAAAAAAA==

> <PUBCHEM_IUPAC_OPENEYE_NAME>
formaldehyde;iron

> <PUBCHEM_IUPAC_CAS_NAME>
formaldehyde;iron

> <PUBCHEM_IUPAC_NAME_MARKUP>
formaldehyde;iron

> <PUBCHEM_IUPAC_NAME>
formaldehyde;iron

> <PUBCHEM_IUPAC_SYSTEMATIC_NAME>
iron;methanal

> <PUBCHEM_IUPAC_TRADITIONAL_NAME>
formaldehyde;iron

> <PUBCHEM_IUPAC_INCHI>
InChI=1S/5CO.Fe/c5*1-2;

> <PUBCHEM_IUPAC_INCHIKEY>
FYOFOKCECDGJBF-UHFFFAOYSA-N

> <PUBCHEM_EXACT_MASS>
195.909509

> <PUBCHEM_MOLECULAR_FORMULA>
C5FeO5

> <PUBCHEM_MOLECULAR_WEIGHT>
195.90

> <PUBCHEM_REFERENCE_STANDARDIZATION>
Bypass - this structure was created from CID 26040

> <PUBCHEM_OPENEYE_CAN_SMILES>
C=O.C=O.C=O.C=O.C=O.[Fe]

> <PUBCHEM_OPENEYE_ISO_SMILES>
C=O.C=O.C=O.C=O.C=O.[Fe]

> <PUBCHEM_CACTVS_TPSA>
85.4

> <PUBCHEM_MONOISOTOPIC_WEIGHT>
195.909509

> <PUBCHEM_TOTAL_CHARGE>
0

> <PUBCHEM_HEAVY_ATOM_COUNT>
11

> <PUBCHEM_ATOM_DEF_STEREO_COUNT>
0

> <PUBCHEM_ATOM_UDEF_STEREO_COUNT>
0

> <PUBCHEM_BOND_DEF_STEREO_COUNT>
0

> <PUBCHEM_BOND_UDEF_STEREO_COUNT>
0

> <PUBCHEM_ISOTOPIC_ATOM_COUNT>
0

> <PUBCHEM_COMPONENT_COUNT>
6

> <PUBCHEM_CACTVS_TAUTO_COUNT>
-1

> <PUBCHEM_COORDINATE_TYPE>
1
5
255

$$$$
