10242091
  -OEChem-11012400573D

 30 31  0     0  0  0  0  0  0999 V2000
   -2.7520   -0.8942   -0.1075 C   0  0  0  0  0  0  0  0  0  0  0  0
    2.7517   -0.8942    0.1076 C   0  0  0  0  0  0  0  0  0  0  0  0
   -2.0315    0.2944    0.0115 C   0  0  0  0  0  0  0  0  0  0  0  0
    2.0328    0.2943   -0.0124 C   0  0  0  0  0  0  0  0  0  0  0  0
   -4.1467   -0.8684   -0.0956 C   0  0  0  0  0  0  0  0  0  0  0  0
    4.1464   -0.8685    0.0968 C   0  0  0  0  0  0  0  0  0  0  0  0
   -2.7058    1.5085    0.1424 C   0  0  0  0  0  0  0  0  0  0  0  0
    2.7058    1.5084   -0.1429 C   0  0  0  0  0  0  0  0  0  0  0  0
   -2.0639   -2.2141   -0.2490 C   0  0  0  0  0  0  0  0  0  0  0  0
    2.0635   -2.2140    0.2486 C   0  0  0  0  0  0  0  0  0  0  0  0
   -4.8209    0.3456    0.0352 C   0  0  0  0  0  0  0  0  0  0  0  0
    4.8207    0.3456   -0.0335 C   0  0  0  0  0  0  0  0  0  0  0  0
   -4.1004    1.5340    0.1542 C   0  0  0  0  0  0  0  0  0  0  0  0
    4.1004    1.5339   -0.1533 C   0  0  0  0  0  0  0  0  0  0  0  0
   -0.6004    0.2944    0.0024 C   0  0  0  0  0  0  0  0  0  0  0  0
    0.6002    0.2943   -0.0045 C   0  0  0  0  0  0  0  0  0  0  0  0
   -4.7244   -1.7843   -0.1870 H   0  0  0  0  0  0  0  0  0  0  0  0
    4.7241   -1.7844    0.1889 H   0  0  0  0  0  0  0  0  0  0  0  0
   -2.1596    2.4442    0.2362 H   0  0  0  0  0  0  0  0  0  0  0  0
    2.1595    2.4439   -0.2374 H   0  0  0  0  0  0  0  0  0  0  0  0
   -1.4394   -2.4177    0.6273 H   0  0  0  0  0  0  0  0  0  0  0  0
   -2.7788   -3.0397   -0.3359 H   0  0  0  0  0  0  0  0  0  0  0  0
   -1.4418   -2.2290   -1.1501 H   0  0  0  0  0  0  0  0  0  0  0  0
    2.7783   -3.0397    0.3365 H   0  0  0  0  0  0  0  0  0  0  0  0
    1.4405   -2.2288    1.1491 H   0  0  0  0  0  0  0  0  0  0  0  0
    1.4399   -2.4178   -0.6283 H   0  0  0  0  0  0  0  0  0  0  0  0
   -5.9067    0.3659    0.0444 H   0  0  0  0  0  0  0  0  0  0  0  0
    5.9066    0.3658   -0.0418 H   0  0  0  0  0  0  0  0  0  0  0  0
   -4.6256    2.4793    0.2561 H   0  0  0  0  0  0  0  0  0  0  0  0
    4.6256    2.4792   -0.2549 H   0  0  0  0  0  0  0  0  0  0  0  0
  1  3  1  0  0  0  0
  1  5  2  0  0  0  0
  1  9  1  0  0  0  0
  2  4  1  0  0  0  0
  2  6  2  0  0  0  0
  2 10  1  0  0  0  0
  3  7  2  0  0  0  0
  3 15  1  0  0  0  0
  4  8  2  0  0  0  0
  4 16  1  0  0  0  0
  5 11  1  0  0  0  0
  5 17  1  0  0  0  0
  6 12  1  0  0  0  0
  6 18  1  0  0  0  0
  7 13  1  0  0  0  0
  7 19  1  0  0  0  0
  8 14  1  0  0  0  0
  8 20  1  0  0  0  0
  9 21  1  0  0  0  0
  9 22  1  0  0  0  0
  9 23  1  0  0  0  0
 10 24  1  0  0  0  0
 10 25  1  0  0  0  0
 10 26  1  0  0  0  0
 11 13  2  0  0  0  0
 11 27  1  0  0  0  0
 12 14  2  0  0  0  0
 12 28  1  0  0  0  0
 13 29  1  0  0  0  0
 14 30  1  0  0  0  0
 15 16  3  0  0  0  0
M  END
> <PUBCHEM_COMPOUND_CID>
10242091

> <PUBCHEM_CONFORMER_RMSD>
0.4

> <PUBCHEM_CONFORMER_DIVERSEORDER>
1

> <PUBCHEM_MMFF94_PARTIAL_CHARGES>
24
1 -0.14
10 0.14
11 -0.15
12 -0.15
13 -0.15
14 -0.15
15 -0.07
16 -0.07
17 0.15
18 0.15
19 0.15
2 -0.14
20 0.15
27 0.15
28 0.15
29 0.15
3 0.07
30 0.15
4 0.07
5 -0.15
6 -0.15
7 -0.15
8 -0.15
9 0.14

> <PUBCHEM_EFFECTIVE_ROTOR_COUNT>
0

> <PUBCHEM_PHARMACOPHORE_FEATURES>
2
6 1 3 5 7 11 13 rings
6 2 4 6 8 12 14 rings

> <PUBCHEM_HEAVY_ATOM_COUNT>
16

> <PUBCHEM_ATOM_DEF_STEREO_COUNT>
0

> <PUBCHEM_ATOM_UDEF_STEREO_COUNT>
0

> <PUBCHEM_BOND_DEF_STEREO_COUNT>
0

> <PUBCHEM_BOND_UDEF_STEREO_COUNT>
0

> <PUBCHEM_ISOTOPIC_ATOM_COUNT>
0

> <PUBCHEM_COMPONENT_COUNT>
1

> <PUBCHEM_CACTVS_TAUTO_COUNT>
1

> <PUBCHEM_CONFORMER_ID>
009C482B00000001

> <PUBCHEM_MMFF94_ENERGY>
36.3959

> <PUBCHEM_FEATURE_SELFOVERLAP>
10.149

> <PUBCHEM_SHAPE_FINGERPRINT>
10014705 185 18259981561787947445
10616163 171 18340487867134271215
11471102 20 18408885122960316196
12107183 9 17690844458409494449
12251169 10 18410855451554090629
12500047 106 18413383246156114227
13167823 11 18410572885639959782
13675066 3 17894356553398187245
13760787 19 18413389851736726822
138480 1 17762055432652734851
15196674 1 18410573989446801703
15242433 33 18411139138423108327
15375358 24 18408042913695472754
15442244 35 18194965132491578128
15536298 74 18412263913291411302
17834072 33 18412543227725291029
17834074 16 18410857663446462598
1813 80 16877948217440530428
18186145 218 17894344475649256224
19050596 39 18410290324258004408
200 152 18272931635097928345
20645477 56 18407759227301189029
20645477 70 18341614772221450438
21267235 1 18410865360028045411
21709351 56 18408317800682780316
23402539 116 18272363170939496053
23402655 69 18410576201892691644
23559900 14 18343298163320471992
300161 21 18411129242818698669
3545911 37 18410857659162233212
42 15 18334859402581135581
4214541 1 18411138026253633325
474 4 17749676302197657804
4921388 177 16878514543586529475
4990 188 18130799953678018860
5104073 3 18410011039514110082
542803 24 17530967990250868940
543358 83 18339365154329954402
58051976 100 18409450293058395407
58051976 378 18413670214316940398
69090 78 18409728452483890123
77779 3 18410294709198151940
8272917 22 18341618049139007438
9709674 26 18411987957237322111

> <PUBCHEM_SHAPE_MULTIPOLES>
329.27
10.73
2.04
0.63
0
0.64
0
-1.88
0
0
0
0
0.01
-0.42

> <PUBCHEM_SHAPE_SELFOVERLAP>
706.519

> <PUBCHEM_SHAPE_VOLUME>
171.6

> <PUBCHEM_COORDINATE_TYPE>
2
5
10

$$$$
