12132
  -OEChem-11012401263D

 28 30  0     0  0  0  0  0  0999 V2000
   -0.8887   -1.0085    0.7646 N   0  0  0  0  0  0  0  0  0  0  0  0
   -0.8860    1.2072    0.5900 N   0  0  0  0  0  0  0  0  0  0  0  0
    1.1410    0.1498    1.5876 C   0  0  0  0  0  0  0  0  0  0  0  0
   -0.2034    0.1544    0.9811 C   0  0  0  0  0  0  0  0  0  0  0  0
   -2.0938   -0.6847    0.1957 C   0  0  0  0  0  0  0  0  0  0  0  0
   -2.0679    0.7038    0.0973 C   0  0  0  0  0  0  0  0  0  0  0  0
    2.2843    0.0481    0.5877 C   0  0  0  0  0  0  0  0  0  0  0  0
   -3.1712   -1.4632   -0.2283 C   0  0  0  0  0  0  0  0  0  0  0  0
   -3.1742    1.3719   -0.4542 C   0  0  0  0  0  0  0  0  0  0  0  0
    2.8243    1.2085    0.0721 C   0  0  0  0  0  0  0  0  0  0  0  0
    2.7456   -1.2012    0.2270 C   0  0  0  0  0  0  0  0  0  0  0  0
   -4.2636   -0.7818   -0.7749 C   0  0  0  0  0  0  0  0  0  0  0  0
   -4.2671    0.6105   -0.8866 C   0  0  0  0  0  0  0  0  0  0  0  0
    3.8717    1.1154   -0.8445 C   0  0  0  0  0  0  0  0  0  0  0  0
    3.7930   -1.2944   -0.6894 C   0  0  0  0  0  0  0  0  0  0  0  0
    4.3560   -0.1360   -1.2251 C   0  0  0  0  0  0  0  0  0  0  0  0
    1.2279   -0.6680    2.3159 H   0  0  0  0  0  0  0  0  0  0  0  0
    1.2702    1.0644    2.1820 H   0  0  0  0  0  0  0  0  0  0  0  0
   -0.5668   -1.9423    0.9824 H   0  0  0  0  0  0  0  0  0  0  0  0
   -3.1662   -2.5437   -0.1404 H   0  0  0  0  0  0  0  0  0  0  0  0
   -3.1866    2.4533   -0.5455 H   0  0  0  0  0  0  0  0  0  0  0  0
    2.4515    2.1862    0.3621 H   0  0  0  0  0  0  0  0  0  0  0  0
    2.3118   -2.1075    0.6387 H   0  0  0  0  0  0  0  0  0  0  0  0
   -5.1260   -1.3474   -1.1190 H   0  0  0  0  0  0  0  0  0  0  0  0
   -5.1309    1.1119   -1.3157 H   0  0  0  0  0  0  0  0  0  0  0  0
    4.3097    2.0173   -1.2621 H   0  0  0  0  0  0  0  0  0  0  0  0
    4.1700   -2.2687   -0.9862 H   0  0  0  0  0  0  0  0  0  0  0  0
    5.1713   -0.2085   -1.9389 H   0  0  0  0  0  0  0  0  0  0  0  0
  1  4  1  0  0  0  0
  1  5  1  0  0  0  0
  1 19  1  0  0  0  0
  2  4  2  0  0  0  0
  2  6  1  0  0  0  0
  3  4  1  0  0  0  0
  3  7  1  0  0  0  0
  3 17  1  0  0  0  0
  3 18  1  0  0  0  0
  5  6  1  0  0  0  0
  5  8  2  0  0  0  0
  6  9  2  0  0  0  0
  7 10  2  0  0  0  0
  7 11  1  0  0  0  0
  8 12  1  0  0  0  0
  8 20  1  0  0  0  0
  9 13  1  0  0  0  0
  9 21  1  0  0  0  0
 10 14  1  0  0  0  0
 10 22  1  0  0  0  0
 11 15  2  0  0  0  0
 11 23  1  0  0  0  0
 12 13  2  0  0  0  0
 12 24  1  0  0  0  0
 13 25  1  0  0  0  0
 14 16  2  0  0  0  0
 14 26  1  0  0  0  0
 15 16  1  0  0  0  0
 15 27  1  0  0  0  0
 16 28  1  0  0  0  0
M  END
> <PUBCHEM_COMPOUND_CID>
12132

> <PUBCHEM_CONFORMER_RMSD>
0.6

> <PUBCHEM_CONFORMER_DIVERSEORDER>
1
2
3

> <PUBCHEM_MMFF94_PARTIAL_CHARGES>
26
1 0.03
10 -0.15
11 -0.15
12 -0.15
13 -0.15
14 -0.15
15 -0.15
16 -0.15
19 0.27
2 -0.57
20 0.15
21 0.15
22 0.15
23 0.15
24 0.15
25 0.15
26 0.15
27 0.15
28 0.15
3 0.32
4 0.01
5 -0.15
6 0.23
7 -0.14
8 -0.15
9 -0.15

> <PUBCHEM_EFFECTIVE_ROTOR_COUNT>
2

> <PUBCHEM_PHARMACOPHORE_FEATURES>
5
1 1 donor
3 1 2 4 cation
5 1 2 4 5 6 rings
6 5 6 8 9 12 13 rings
6 7 10 11 14 15 16 rings

> <PUBCHEM_HEAVY_ATOM_COUNT>
16

> <PUBCHEM_ATOM_DEF_STEREO_COUNT>
0

> <PUBCHEM_ATOM_UDEF_STEREO_COUNT>
0

> <PUBCHEM_BOND_DEF_STEREO_COUNT>
0

> <PUBCHEM_BOND_UDEF_STEREO_COUNT>
0

> <PUBCHEM_ISOTOPIC_ATOM_COUNT>
0

> <PUBCHEM_COMPONENT_COUNT>
1

> <PUBCHEM_CACTVS_TAUTO_COUNT>
1

> <PUBCHEM_CONFORMER_ID>
00002F6400000001

> <PUBCHEM_MMFF94_ENERGY>
32.1748

> <PUBCHEM_FEATURE_SELFOVERLAP>
25.479

> <PUBCHEM_SHAPE_FINGERPRINT>
10465860 71 18410853278490815609
10498660 4 17676196966436440029
11543360 7 18335985341190039724
12186901 62 18410007720126816773
12251169 10 9223226343227381698
12346177 29 14620523272440108027
12363563 72 16415482640461394688
12507560 40 8862950472045004362
12670546 177 18408322189638014854
12707595 3 16917347052121785562
12892183 10 9655577400670667614
13296908 3 17489581281490700313
13675066 3 11959734884502812395
14252887 29 14836401424414255794
14420673 8 10302445388939702412
15188451 53 12175608565273925621
15239191 94 16343704347909407302
15342168 16 15285363898892116583
16752209 62 17346034463812275987
1798214 20 17846779589978970814
1813 80 14907907093294800312
18186145 218 17822005402308008321
193927 3 15769783480335217662
19862831 5 18333450928317784448
200 152 17704073979994069074
20281475 54 17775007877280022483
20325693 3 18410294701277955175
20361792 2 15985105210611302168
204376 136 14345794950548670697
20645477 70 16916778613073656660
20671657 53 17132114645384959472
20871999 31 18410012152227162903
21065198 48 10015578406910078526
21065199 12 9511465515414073902
21713013 43 18272654575199970198
22079108 93 16008757888058974817
22646028 28 15267342920397661548
22854114 59 12324241650601065193
231179 274 15140680289332856628
23402539 116 18113332020984851620
23402655 69 18333736788762208868
23403322 49 17703512103608600102
23557571 272 17605285174993861202
23559900 14 18343577460843858608
2838139 119 16662919070082151716
3082319 5 18408887325967179306
32948 21 18201153252673569425
4028521 119 17748543731895205885
42 15 11383837073241128796
4280585 95 17407412338761035198
465052 167 16558188332140437055
474 4 16443069434378519100
4921388 177 17967541206979113163
4990 188 18409445877710559162
5281201 14 18335707143442259196
5924683 9 8430302520951540401
633830 44 16877941581800349641
90316 7 11887683896209631883
93112 12 18410293605544401272
94968 8 17275386529865332662
960060 61 18060412538686876805
9709674 26 18337953518517239450

> <PUBCHEM_SHAPE_MULTIPOLES>
319.31
9.42
1.49
1.18
0.15
0.06
-0.12
0.46
4.55
-0.1
0.15
0.48
-0.04
0.07

> <PUBCHEM_SHAPE_SELFOVERLAP>
707.823

> <PUBCHEM_SHAPE_VOLUME>
169.3

> <PUBCHEM_COORDINATE_TYPE>
2
5
10

$$$$
