75881
  -OEChem-11012401183D

 30 30  0     0  0  0  0  0  0999 V2000
   -1.4057   -3.3378   -0.0004 O   0  0  0  0  0  0  0  0  0  0  0  0
    3.5937    0.4517    0.0000 O   0  0  0  0  0  0  0  0  0  0  0  0
   -2.1881    2.8860    0.0002 O   0  0  0  0  0  0  0  0  0  0  0  0
   -3.1648   -1.8677    0.0003 O   0  0  0  0  0  0  0  0  0  0  0  0
    3.2002   -1.8069    0.0001 O   0  0  0  0  0  0  0  0  0  0  0  0
   -0.0354    3.6747   -0.0008 O   0  0  0  0  0  0  0  0  0  0  0  0
   -0.9544   -1.0171    0.0006 C   0  0  0  0  0  0  0  0  0  0  0  0
    1.3582   -0.3181   -0.0001 C   0  0  0  0  0  0  0  0  0  0  0  0
   -0.4035    1.3352   -0.0001 C   0  0  0  0  0  0  0  0  0  0  0  0
    0.4036   -1.3352    0.0003 C   0  0  0  0  0  0  0  0  0  0  0  0
   -1.3580    0.3180    0.0004 C   0  0  0  0  0  0  0  0  0  0  0  0
    0.9547    1.0170   -0.0004 C   0  0  0  0  0  0  0  0  0  0  0  0
   -1.9499   -2.0772    0.0000 C   0  0  0  0  0  0  0  0  0  0  0  0
    2.7741   -0.6499   -0.0001 C   0  0  0  0  0  0  0  0  0  0  0  0
   -0.8242    2.7273   -0.0004 C   0  0  0  0  0  0  0  0  0  0  0  0
   -2.3315   -4.4305   -0.0006 C   0  0  0  0  0  0  0  0  0  0  0  0
    5.0028    0.1965    0.0003 C   0  0  0  0  0  0  0  0  0  0  0  0
   -2.6717    4.2339    0.0003 C   0  0  0  0  0  0  0  0  0  0  0  0
    0.7363   -2.3698    0.0004 H   0  0  0  0  0  0  0  0  0  0  0  0
   -2.4204    0.5471    0.0005 H   0  0  0  0  0  0  0  0  0  0  0  0
    1.6842    1.8226   -0.0007 H   0  0  0  0  0  0  0  0  0  0  0  0
   -2.9523   -4.3993   -0.9009 H   0  0  0  0  0  0  0  0  0  0  0  0
   -2.9521   -4.3999    0.8998 H   0  0  0  0  0  0  0  0  0  0  0  0
   -1.7582   -5.3614   -0.0010 H   0  0  0  0  0  0  0  0  0  0  0  0
    5.5222    1.1584    0.0004 H   0  0  0  0  0  0  0  0  0  0  0  0
    5.2867   -0.3566   -0.8998 H   0  0  0  0  0  0  0  0  0  0  0  0
    5.2863   -0.3565    0.9008 H   0  0  0  0  0  0  0  0  0  0  0  0
   -2.3342    4.7562    0.9005 H   0  0  0  0  0  0  0  0  0  0  0  0
   -3.7645    4.2027    0.0008 H   0  0  0  0  0  0  0  0  0  0  0  0
   -2.3350    4.7560   -0.9002 H   0  0  0  0  0  0  0  0  0  0  0  0
  1 13  1  0  0  0  0
  1 16  1  0  0  0  0
  2 14  1  0  0  0  0
  2 17  1  0  0  0  0
  3 15  1  0  0  0  0
  3 18  1  0  0  0  0
  4 13  2  0  0  0  0
  5 14  2  0  0  0  0
  6 15  2  0  0  0  0
  7 10  2  0  0  0  0
  7 11  1  0  0  0  0
  7 13  1  0  0  0  0
  8 10  1  0  0  0  0
  8 12  2  0  0  0  0
  8 14  1  0  0  0  0
  9 11  2  0  0  0  0
  9 12  1  0  0  0  0
  9 15  1  0  0  0  0
 10 19  1  0  0  0  0
 11 20  1  0  0  0  0
 12 21  1  0  0  0  0
 16 22  1  0  0  0  0
 16 23  1  0  0  0  0
 16 24  1  0  0  0  0
 17 25  1  0  0  0  0
 17 26  1  0  0  0  0
 17 27  1  0  0  0  0
 18 28  1  0  0  0  0
 18 29  1  0  0  0  0
 18 30  1  0  0  0  0
M  END
> <PUBCHEM_COMPOUND_CID>
75881

> <PUBCHEM_CONFORMER_RMSD>
0.8

> <PUBCHEM_CONFORMER_DIVERSEORDER>
2
5
6
1
3
4

> <PUBCHEM_MMFF94_PARTIAL_CHARGES>
21
1 -0.43
10 -0.15
11 -0.15
12 -0.15
13 0.63
14 0.63
15 0.63
16 0.28
17 0.28
18 0.28
19 0.15
2 -0.43
20 0.15
21 0.15
3 -0.43
4 -0.57
5 -0.57
6 -0.57
7 0.09
8 0.09
9 0.09

> <PUBCHEM_EFFECTIVE_ROTOR_COUNT>
6

> <PUBCHEM_PHARMACOPHORE_FEATURES>
4
1 4 acceptor
1 5 acceptor
1 6 acceptor
6 7 8 9 10 11 12 rings

> <PUBCHEM_HEAVY_ATOM_COUNT>
18

> <PUBCHEM_ATOM_DEF_STEREO_COUNT>
0

> <PUBCHEM_ATOM_UDEF_STEREO_COUNT>
0

> <PUBCHEM_BOND_DEF_STEREO_COUNT>
0

> <PUBCHEM_BOND_UDEF_STEREO_COUNT>
0

> <PUBCHEM_ISOTOPIC_ATOM_COUNT>
0

> <PUBCHEM_COMPONENT_COUNT>
1

> <PUBCHEM_CACTVS_TAUTO_COUNT>
1

> <PUBCHEM_CONFORMER_ID>
0001286900000002

> <PUBCHEM_MMFF94_ENERGY>
57.0206

> <PUBCHEM_FEATURE_SELFOVERLAP>
20.298

> <PUBCHEM_SHAPE_FINGERPRINT>
10319926 262 18197473222659374610
10411042 1 18122344846415174406
12173636 292 18121779431044959164
12532896 13 18124312709934636684
12553582 1 18265892634671967562
12788726 201 18337941338106149563
13140716 1 18266458904449777961
138480 1 16249127286803005443
13955234 65 17112697549343827955
14178342 30 18335968789188090450
14790565 3 18267310841705939705
15042514 8 18410014329707328674
16945 1 18410575076368614886
17539 30 18341604945098608118
19591789 44 18123192294875117139
20510252 161 18270681952618873656
20645477 70 17255667016360381295
21029758 11 18266170828240500823
21041028 32 18117576217087233147
21426921 1 18410576206398577534
21524375 3 17612039174560375784
221490 88 17470731477509645522
2255824 54 17331407982597895391
23366157 5 17322663536504290910
23419403 2 17685180135412366244
23557571 272 18272661138606246228
23558518 356 18261398806501240930
23559900 14 17618775195310088619
2748010 2 17905628613134918173
3071541 12 17401772315980939051
3091708 16 9202529144682840176
352729 6 18122626041754157130
458136 41 17547869455217694449
474229 33 18193278494846030849
532947 4 17187012428069118308
54173680 148 18410009952924332502
6138700 20 16827281334749513870
633830 44 17553196606324101700
68521 5 18410858801955635564
6992083 37 18197800975038735227
7364860 26 17474108082002352615
77188 2 18050568748363946454
81228 2 18410855464423129386

> <PUBCHEM_SHAPE_MULTIPOLES>
335.22
5.75
5.75
0.58
8.09
0.85
0
-0.85
0
-8.09
0
0
0
0

> <PUBCHEM_SHAPE_SELFOVERLAP>
700.759

> <PUBCHEM_SHAPE_VOLUME>
191.2

> <PUBCHEM_COORDINATE_TYPE>
2
5
10

$$$$
