236
  -OEChem-11012401163D

 17 16  0     1  0  0  0  0  0999 V2000
    0.6999   -1.5909    0.8957 O   0  0  0  0  0  0  0  0  0  0  0  0
    2.0189   -0.9167   -0.8203 O   0  0  0  0  0  0  0  0  0  0  0  0
   -2.1454   -0.6099   -1.0603 O   0  0  0  0  0  0  0  0  0  0  0  0
    1.7805    1.6835    0.0853 N   0  0  0  0  0  0  0  0  0  0  0  0
   -2.1032    0.1565    1.1081 N   0  0  0  0  0  0  0  0  0  0  0  0
    0.6990    0.7437    0.3906 C   0  0  1  0  0  0  0  0  0  0  0  0
   -0.5175    1.0666   -0.4797 C   0  0  0  0  0  0  0  0  0  0  0  0
    1.2275   -0.6457    0.0740 C   0  0  0  0  0  0  0  0  0  0  0  0
   -1.6597    0.1129   -0.1934 C   0  0  0  0  0  0  0  0  0  0  0  0
    0.4822    0.8128    1.4611 H   0  0  0  0  0  0  0  0  0  0  0  0
   -0.8691    2.0889   -0.2946 H   0  0  0  0  0  0  0  0  0  0  0  0
   -0.2732    0.9867   -1.5466 H   0  0  0  0  0  0  0  0  0  0  0  0
    2.0355    1.6193   -0.8994 H   0  0  0  0  0  0  0  0  0  0  0  0
    2.6134    1.4403    0.6199 H   0  0  0  0  0  0  0  0  0  0  0  0
   -1.7155    0.7905    1.7990 H   0  0  0  0  0  0  0  0  0  0  0  0
   -2.8660   -0.4370    1.4170 H   0  0  0  0  0  0  0  0  0  0  0  0
    1.0342   -2.4881    0.6824 H   0  0  0  0  0  0  0  0  0  0  0  0
  1  8  1  0  0  0  0
  1 17  1  0  0  0  0
  2  8  2  0  0  0  0
  3  9  2  0  0  0  0
  4  6  1  0  0  0  0
  4 13  1  0  0  0  0
  4 14  1  0  0  0  0
  5  9  1  0  0  0  0
  5 15  1  0  0  0  0
  5 16  1  0  0  0  0
  6  7  1  0  0  0  0
  6  8  1  0  0  0  0
  6 10  1  0  0  0  0
  7  9  1  0  0  0  0
  7 11  1  0  0  0  0
  7 12  1  0  0  0  0
M  END
> <PUBCHEM_COMPOUND_CID>
236

> <PUBCHEM_CONFORMER_RMSD>
0.6

> <PUBCHEM_CONFORMER_DIVERSEORDER>
2
5
25
16
17
1
18
23
4
19
24
22
9
13
7
6
15
20
10
11
12
8
3
14
21

> <PUBCHEM_MMFF94_PARTIAL_CHARGES>
14
1 -0.65
13 0.36
14 0.36
15 0.37
16 0.37
17 0.5
2 -0.57
3 -0.57
4 -0.99
5 -0.8
6 0.33
7 0.06
8 0.66
9 0.57

> <PUBCHEM_EFFECTIVE_ROTOR_COUNT>
3

> <PUBCHEM_PHARMACOPHORE_FEATURES>
7
1 1 acceptor
1 2 acceptor
1 3 acceptor
1 4 cation
1 4 donor
1 5 donor
3 1 2 8 anion

> <PUBCHEM_HEAVY_ATOM_COUNT>
9

> <PUBCHEM_ATOM_DEF_STEREO_COUNT>
0

> <PUBCHEM_ATOM_UDEF_STEREO_COUNT>
1

> <PUBCHEM_BOND_DEF_STEREO_COUNT>
0

> <PUBCHEM_BOND_UDEF_STEREO_COUNT>
0

> <PUBCHEM_ISOTOPIC_ATOM_COUNT>
0

> <PUBCHEM_COMPONENT_COUNT>
1

> <PUBCHEM_CACTVS_TAUTO_COUNT>
2

> <PUBCHEM_CONFORMER_ID>
000000EC00000002

> <PUBCHEM_MMFF94_ENERGY>
11.1714

> <PUBCHEM_FEATURE_SELFOVERLAP>
35.581

> <PUBCHEM_SHAPE_FINGERPRINT>
137420 1 13869430232181661528
18185500 45 18048307847535900314
21040471 1 18118682368671450160
21922407 69 17417519323976970017
23552333 60 18128798885085369927
23552423 10 18410004429770547813
24536 1 17345736521872819589
29004967 10 18186807958614600921
5084963 1 18197197338643606816

> <PUBCHEM_SHAPE_MULTIPOLES>
157.65
2.82
1.47
0.98
0.75
0.12
-0.03
-0.23
0.26
-0.78
-0.1
0.3
-0.18
-0.02

> <PUBCHEM_SHAPE_SELFOVERLAP>
301.291

> <PUBCHEM_SHAPE_VOLUME>
96.1

> <PUBCHEM_COORDINATE_TYPE>
2
5
10

$$$$
