10305
  -OEChem-11012401013D

 39 42  0     0  0  0  0  0  0999 V2000
   -1.2034   -0.6874   -0.0351 N   0  0  0  0  0  0  0  0  0  0  0  0
    1.1951   -0.7017    0.0361 N   0  0  0  0  0  0  0  0  0  0  0  0
    0.0083    1.3834    0.0006 N   0  0  0  0  0  0  0  0  0  0  0  0
   -0.0077   -1.2901    0.0004 C   0  0  0  0  0  0  0  0  0  0  0  0
   -1.1177    0.6526   -0.0329 C   0  0  0  0  0  0  0  0  0  0  0  0
    1.1254    0.6393    0.0337 C   0  0  0  0  0  0  0  0  0  0  0  0
   -0.0164   -2.7370    0.0002 C   0  0  0  0  0  0  0  0  0  0  0  0
   -2.3594    1.3798   -0.0702 C   0  0  0  0  0  0  0  0  0  0  0  0
    2.3758    1.3514    0.0705 C   0  0  0  0  0  0  0  0  0  0  0  0
   -1.0841   -3.4282    0.5728 C   0  0  0  0  0  0  0  0  0  0  0  0
   -3.5138    0.8333    0.4997 C   0  0  0  0  0  0  0  0  0  0  0  0
    3.5234    0.7911   -0.4999 C   0  0  0  0  0  0  0  0  0  0  0  0
    1.0429   -3.4407   -0.5727 C   0  0  0  0  0  0  0  0  0  0  0  0
   -2.4210    2.6386   -0.6765 C   0  0  0  0  0  0  0  0  0  0  0  0
    2.4527    2.6095    0.6765 C   0  0  0  0  0  0  0  0  0  0  0  0
   -1.0925   -4.8232    0.5725 C   0  0  0  0  0  0  0  0  0  0  0  0
   -4.7170    1.5380    0.4637 C   0  0  0  0  0  0  0  0  0  0  0  0
    4.7349    1.4813   -0.4643 C   0  0  0  0  0  0  0  0  0  0  0  0
    1.0346   -4.8355   -0.5732 C   0  0  0  0  0  0  0  0  0  0  0  0
   -3.6242    3.3435   -0.7124 C   0  0  0  0  0  0  0  0  0  0  0  0
    3.6643    3.2999    0.7119 C   0  0  0  0  0  0  0  0  0  0  0  0
   -0.0333   -5.5267   -0.0005 C   0  0  0  0  0  0  0  0  0  0  0  0
   -4.7721    2.7931   -0.1424 C   0  0  0  0  0  0  0  0  0  0  0  0
    4.8054    2.7357    0.1415 C   0  0  0  0  0  0  0  0  0  0  0  0
   -1.9198   -2.9089    1.0358 H   0  0  0  0  0  0  0  0  0  0  0  0
   -3.5021   -0.1385    0.9879 H   0  0  0  0  0  0  0  0  0  0  0  0
    3.4998   -0.1806   -0.9880 H   0  0  0  0  0  0  0  0  0  0  0  0
    1.8848   -2.9312   -1.0355 H   0  0  0  0  0  0  0  0  0  0  0  0
   -1.5464    3.0914   -1.1381 H   0  0  0  0  0  0  0  0  0  0  0  0
    1.5838    3.0728    1.1383 H   0  0  0  0  0  0  0  0  0  0  0  0
   -1.9227   -5.3617    1.0201 H   0  0  0  0  0  0  0  0  0  0  0  0
   -5.6106    1.1108    0.9092 H   0  0  0  0  0  0  0  0  0  0  0  0
    5.6232    1.0434   -0.9102 H   0  0  0  0  0  0  0  0  0  0  0  0
    1.8582   -5.3839   -1.0212 H   0  0  0  0  0  0  0  0  0  0  0  0
   -3.6681    4.3200   -1.1859 H   0  0  0  0  0  0  0  0  0  0  0  0
    3.7200    4.2758    1.1853 H   0  0  0  0  0  0  0  0  0  0  0  0
   -0.0397   -6.6128   -0.0008 H   0  0  0  0  0  0  0  0  0  0  0  0
   -5.7089    3.3420   -0.1704 H   0  0  0  0  0  0  0  0  0  0  0  0
    5.7487    3.2733    0.1691 H   0  0  0  0  0  0  0  0  0  0  0  0
  1  4  2  0  0  0  0
  1  5  1  0  0  0  0
  2  4  1  0  0  0  0
  2  6  2  0  0  0  0
  3  5  2  0  0  0  0
  3  6  1  0  0  0  0
  4  7  1  0  0  0  0
  5  8  1  0  0  0  0
  6  9  1  0  0  0  0
  7 10  2  0  0  0  0
  7 13  1  0  0  0  0
  8 11  2  0  0  0  0
  8 14  1  0  0  0  0
  9 12  2  0  0  0  0
  9 15  1  0  0  0  0
 10 16  1  0  0  0  0
 10 25  1  0  0  0  0
 11 17  1  0  0  0  0
 11 26  1  0  0  0  0
 12 18  1  0  0  0  0
 12 27  1  0  0  0  0
 13 19  2  0  0  0  0
 13 28  1  0  0  0  0
 14 20  2  0  0  0  0
 14 29  1  0  0  0  0
 15 21  2  0  0  0  0
 15 30  1  0  0  0  0
 16 22  2  0  0  0  0
 16 31  1  0  0  0  0
 17 23  2  0  0  0  0
 17 32  1  0  0  0  0
 18 24  2  0  0  0  0
 18 33  1  0  0  0  0
 19 22  1  0  0  0  0
 19 34  1  0  0  0  0
 20 23  1  0  0  0  0
 20 35  1  0  0  0  0
 21 24  1  0  0  0  0
 21 36  1  0  0  0  0
 22 37  1  0  0  0  0
 23 38  1  0  0  0  0
 24 39  1  0  0  0  0
M  END
> <PUBCHEM_COMPOUND_CID>
10305

> <PUBCHEM_CONFORMER_RMSD>
0.6

> <PUBCHEM_CONFORMER_DIVERSEORDER>
1
2
3

> <PUBCHEM_MMFF94_PARTIAL_CHARGES>
36
1 -0.62
10 -0.15
11 -0.15
12 -0.15
13 -0.15
14 -0.15
15 -0.15
16 -0.15
17 -0.15
18 -0.15
19 -0.15
2 -0.62
20 -0.15
21 -0.15
22 -0.15
23 -0.15
24 -0.15
25 0.15
26 0.15
27 0.15
28 0.15
29 0.15
3 -0.62
30 0.15
31 0.15
32 0.15
33 0.15
34 0.15
35 0.15
36 0.15
37 0.15
38 0.15
39 0.15
4 0.62
5 0.62
6 0.62

> <PUBCHEM_EFFECTIVE_ROTOR_COUNT>
3

> <PUBCHEM_PHARMACOPHORE_FEATURES>
7
3 1 2 4 cation
3 1 3 5 cation
3 2 3 6 cation
6 1 2 3 4 5 6 rings
6 7 10 13 16 19 22 rings
6 8 11 14 17 20 23 rings
6 9 12 15 18 21 24 rings

> <PUBCHEM_HEAVY_ATOM_COUNT>
24

> <PUBCHEM_ATOM_DEF_STEREO_COUNT>
0

> <PUBCHEM_ATOM_UDEF_STEREO_COUNT>
0

> <PUBCHEM_BOND_DEF_STEREO_COUNT>
0

> <PUBCHEM_BOND_UDEF_STEREO_COUNT>
0

> <PUBCHEM_ISOTOPIC_ATOM_COUNT>
0

> <PUBCHEM_COMPONENT_COUNT>
1

> <PUBCHEM_CACTVS_TAUTO_COUNT>
1

> <PUBCHEM_CONFORMER_ID>
0000284100000001

> <PUBCHEM_MMFF94_ENERGY>
74.7343

> <PUBCHEM_FEATURE_SELFOVERLAP>
38.307

> <PUBCHEM_SHAPE_FINGERPRINT>
10074138 170 17979328065785505736
10319926 262 18054211401504439056
10411042 1 17185313682577492706
10940486 97 18189627214689209636
1100329 8 18339078182091056082
11045515 52 17180515400547725212
11056379 131 17905336474414119628
11833330 49 17688869061115773107
12107183 9 18335686249281381136
12160290 23 17912902161641095729
12173636 292 18338230574015086732
12516196 113 17329987994001977175
12553582 1 17041769158295436774
12730499 353 18338244752266678393
12788726 201 17982148308842423391
13004483 165 17547003491311091362
13134695 92 17546156407838297589
13140716 1 18410851027827427073
13590594 115 16826159836988847585
13690498 29 17764329606010725860
13692114 37 18268694151750115883
13757389 114 18190478231908883332
138480 1 17762055432651676007
13911987 19 17832173548936283462
13955234 65 18195249906298863809
14178342 30 18048863389499184192
14363568 33 17978527334074620507
14790565 3 18410576184174706689
15042514 8 17905610252054938226
15230672 131 18335990809944405038
15664445 248 17480592542032382311
15705408 1 18050285864680207508
15927050 60 18411419518885493230
16087824 20 18049723224925337983
17980427 26 18268983189995326557
1813 80 17122540944508044047
19591789 44 18410577283686353955
20101258 96 17544764885563261800
20600515 1 17477506651217067079
21033648 29 18341325673483429368
21049683 271 17685798829656424021
21120745 212 17471308716819111548
21304303 282 17692763389747120996
21796203 349 17475549104340666331
23558518 356 17901382613315415664
23559900 14 17760359999345486897
23845131 108 18409166615206502139
255183 313 18125459741487128323
283562 15 18269829982137928199
3091708 16 9336804794664639011
3103668 31 17975405026279829935
314173 41 17474392375073838479
3298306 158 18339369543781334422
3886686 26 18052501570469919504
4409770 3 18048023362167092311
532947 4 18196095443520082126
5385378 56 18196376922612795521
59025328 239 16395716483901012991
621550 34 18262521377940519045
6442390 28 18410295830385407685
6443956 14 17760931740690443454
6669772 16 18342182111874028806
6679774 75 18115579341185409578
6700243 42 17332570094118115700
7164475 11 17687749758838360060
7364860 26 18122343467498089685
77188 2 17329990196676199647
7808743 9 18191868044840285712
79837 15 18337954605207054747
9777508 108 18196649820555282960
9981440 41 18409163303549736809

> <PUBCHEM_SHAPE_MULTIPOLES>
478.97
8.09
8.07
0.79
0.35
14.22
0
-14.19
-0.02
-0.35
0.02
0
-0.07
1.32

> <PUBCHEM_SHAPE_SELFOVERLAP>
1073.343

> <PUBCHEM_SHAPE_VOLUME>
248.1

> <PUBCHEM_COORDINATE_TYPE>
2
5
10

$$$$
