118259
  -OEChem-11012401273D

 23 23  0     1  0  0  0  0  0999 V2000
   -0.0001   -1.7916    0.1911 N   0  0  0  0  0  0  0  0  0  0  0  0
   -1.2628    0.3444    0.3278 C   0  0  2  0  0  0  0  0  0  0  0  0
    1.2628    0.3446    0.3279 C   0  0  1  0  0  0  0  0  0  0  0  0
    0.0001    1.1251   -0.0615 C   0  0  0  0  0  0  0  0  0  0  0  0
   -1.2074   -1.0816   -0.2386 C   0  0  0  0  0  0  0  0  0  0  0  0
    1.2074   -1.0816   -0.2382 C   0  0  0  0  0  0  0  0  0  0  0  0
   -2.5171    1.0704   -0.1541 C   0  0  0  0  0  0  0  0  0  0  0  0
    2.5173    1.0702   -0.1544 C   0  0  0  0  0  0  0  0  0  0  0  0
   -1.3088    0.2844    1.4238 H   0  0  0  0  0  0  0  0  0  0  0  0
    1.3089    0.2848    1.4240 H   0  0  0  0  0  0  0  0  0  0  0  0
    0.0001    1.3140   -1.1433 H   0  0  0  0  0  0  0  0  0  0  0  0
    0.0000    2.1048    0.4320 H   0  0  0  0  0  0  0  0  0  0  0  0
   -2.0814   -1.6485    0.1026 H   0  0  0  0  0  0  0  0  0  0  0  0
   -1.2553   -1.0675   -1.3349 H   0  0  0  0  0  0  0  0  0  0  0  0
    1.2556   -1.0677   -1.3344 H   0  0  0  0  0  0  0  0  0  0  0  0
    2.0812   -1.6486    0.1034 H   0  0  0  0  0  0  0  0  0  0  0  0
   -0.0003   -1.8565    1.2093 H   0  0  0  0  0  0  0  0  0  0  0  0
   -2.5688    2.0787    0.2701 H   0  0  0  0  0  0  0  0  0  0  0  0
   -2.5312    1.1610   -1.2455 H   0  0  0  0  0  0  0  0  0  0  0  0
   -3.4194    0.5308    0.1524 H   0  0  0  0  0  0  0  0  0  0  0  0
    3.4194    0.5306    0.1523 H   0  0  0  0  0  0  0  0  0  0  0  0
    2.5312    1.1603   -1.2458 H   0  0  0  0  0  0  0  0  0  0  0  0
    2.5691    2.0786    0.2695 H   0  0  0  0  0  0  0  0  0  0  0  0
  1  5  1  0  0  0  0
  1  6  1  0  0  0  0
  1 17  1  0  0  0  0
  2  4  1  0  0  0  0
  2  5  1  0  0  0  0
  2  7  1  0  0  0  0
  2  9  1  0  0  0  0
  3  4  1  0  0  0  0
  3  6  1  0  0  0  0
  3  8  1  0  0  0  0
  3 10  1  0  0  0  0
  4 11  1  0  0  0  0
  4 12  1  0  0  0  0
  5 13  1  0  0  0  0
  5 14  1  0  0  0  0
  6 15  1  0  0  0  0
  6 16  1  0  0  0  0
  7 18  1  0  0  0  0
  7 19  1  0  0  0  0
  7 20  1  0  0  0  0
  8 21  1  0  0  0  0
  8 22  1  0  0  0  0
  8 23  1  0  0  0  0
M  END
> <PUBCHEM_COMPOUND_CID>
118259

> <PUBCHEM_CONFORMER_RMSD>
0.4

> <PUBCHEM_CONFORMER_DIVERSEORDER>
1
4
2
3

> <PUBCHEM_MMFF94_PARTIAL_CHARGES>
4
1 -0.9
17 0.36
5 0.27
6 0.27

> <PUBCHEM_EFFECTIVE_ROTOR_COUNT>
1.2

> <PUBCHEM_PHARMACOPHORE_FEATURES>
3
1 1 cation
1 1 donor
6 1 2 3 4 5 6 rings

> <PUBCHEM_HEAVY_ATOM_COUNT>
8

> <PUBCHEM_ATOM_DEF_STEREO_COUNT>
0

> <PUBCHEM_ATOM_UDEF_STEREO_COUNT>
2

> <PUBCHEM_BOND_DEF_STEREO_COUNT>
0

> <PUBCHEM_BOND_UDEF_STEREO_COUNT>
0

> <PUBCHEM_ISOTOPIC_ATOM_COUNT>
0

> <PUBCHEM_COMPONENT_COUNT>
1

> <PUBCHEM_CACTVS_TAUTO_COUNT>
1

> <PUBCHEM_CONFORMER_ID>
0001CDF300000001

> <PUBCHEM_MMFF94_ENERGY>
3.3191

> <PUBCHEM_FEATURE_SELFOVERLAP>
15.223

> <PUBCHEM_SHAPE_FINGERPRINT>
16714656 1 18194688300348147036
18185500 45 17331121594220458275
20096714 4 18339643343371885843
21040471 1 18411417327839592792
23235685 24 18411415120158051689
23552423 10 18334296500305046598
241688 4 16898493408154462706
2748010 2 18410862061498372039
29004967 10 18116162077540719105
5084963 1 18272370875393153184

> <PUBCHEM_SHAPE_MULTIPOLES>
159.66
3.03
1.71
0.66
0
0.51
0
-1.36
0.21
0
0.05
0
-0.01
0

> <PUBCHEM_SHAPE_SELFOVERLAP>
302.232

> <PUBCHEM_SHAPE_VOLUME>
96.9

> <PUBCHEM_COORDINATE_TYPE>
2
5
10

$$$$
