79378
  -OEChem-11012400573D

 17 16  0     0  0  0  0  0  0999 V2000
    3.6969   -0.0545   -0.0187 Cl  0  0  0  0  0  0  0  0  0  0  0  0
   -0.1890   -0.5168    0.0043 O   0  0  0  0  0  0  0  0  0  0  0  0
    1.1497    1.3593    0.0074 O   0  0  0  0  0  0  0  0  0  0  0  0
   -2.5815   -0.5877    0.0022 C   0  0  0  0  0  0  0  0  0  0  0  0
   -1.3490    0.3035    0.0042 C   0  0  0  0  0  0  0  0  0  0  0  0
   -3.8649    0.2231   -0.0130 C   0  0  0  0  0  0  0  0  0  0  0  0
    1.0135    0.1439    0.0060 C   0  0  0  0  0  0  0  0  0  0  0  0
    2.1244   -0.8709    0.0077 C   0  0  0  0  0  0  0  0  0  0  0  0
   -2.5524   -1.2541   -0.8683 H   0  0  0  0  0  0  0  0  0  0  0  0
   -2.5643   -1.2414    0.8825 H   0  0  0  0  0  0  0  0  0  0  0  0
   -1.3451    0.9401   -0.8885 H   0  0  0  0  0  0  0  0  0  0  0  0
   -1.3472    0.9391    0.8975 H   0  0  0  0  0  0  0  0  0  0  0  0
   -3.9198    0.8542   -0.9059 H   0  0  0  0  0  0  0  0  0  0  0  0
   -4.7339   -0.4422   -0.0136 H   0  0  0  0  0  0  0  0  0  0  0  0
   -3.9318    0.8684    0.8687 H   0  0  0  0  0  0  0  0  0  0  0  0
    2.0545   -1.4993   -0.8834 H   0  0  0  0  0  0  0  0  0  0  0  0
    2.0715   -1.4772    0.9153 H   0  0  0  0  0  0  0  0  0  0  0  0
  1  8  1  0  0  0  0
  2  5  1  0  0  0  0
  2  7  1  0  0  0  0
  3  7  2  0  0  0  0
  4  5  1  0  0  0  0
  4  6  1  0  0  0  0
  4  9  1  0  0  0  0
  4 10  1  0  0  0  0
  5 11  1  0  0  0  0
  5 12  1  0  0  0  0
  6 13  1  0  0  0  0
  6 14  1  0  0  0  0
  6 15  1  0  0  0  0
  7  8  1  0  0  0  0
  8 16  1  0  0  0  0
  8 17  1  0  0  0  0
M  END
> <PUBCHEM_COMPOUND_CID>
79378

> <PUBCHEM_CONFORMER_RMSD>
0.6

> <PUBCHEM_CONFORMER_DIVERSEORDER>
1
14
34
32
13
37
35
7
15
26
33
10
21
36
2
31
24
17
20
23
16
3
19
18
25
38
5
4
6
41
11
27
22
39
30
40
29
12
8
9
28

> <PUBCHEM_MMFF94_PARTIAL_CHARGES>
6
1 -0.29
2 -0.43
3 -0.57
5 0.28
7 0.66
8 0.35

> <PUBCHEM_EFFECTIVE_ROTOR_COUNT>
4

> <PUBCHEM_PHARMACOPHORE_FEATURES>
2
1 3 acceptor
1 6 hydrophobe

> <PUBCHEM_HEAVY_ATOM_COUNT>
8

> <PUBCHEM_ATOM_DEF_STEREO_COUNT>
0

> <PUBCHEM_ATOM_UDEF_STEREO_COUNT>
0

> <PUBCHEM_BOND_DEF_STEREO_COUNT>
0

> <PUBCHEM_BOND_UDEF_STEREO_COUNT>
0

> <PUBCHEM_ISOTOPIC_ATOM_COUNT>
0

> <PUBCHEM_COMPONENT_COUNT>
1

> <PUBCHEM_CACTVS_TAUTO_COUNT>
1

> <PUBCHEM_CONFORMER_ID>
0001361200000001

> <PUBCHEM_MMFF94_ENERGY>
3.269

> <PUBCHEM_FEATURE_SELFOVERLAP>
10.148

> <PUBCHEM_SHAPE_FINGERPRINT>
10219947 1 17918276441608056718
11062470 55 18131913753949929178
12932764 1 17023170661307754387
14325111 11 18410575119313000107
21293036 1 18334017194196941846
29004967 10 18410295791930772338
3248919 1 16845303764846793207
5460574 1 9295287239878992642

> <PUBCHEM_SHAPE_MULTIPOLES>
154.77
6.56
0.97
0.6
1.52
0.13
0
-0.28
0.05
-0.25
0
-0.01
-0.01
0

> <PUBCHEM_SHAPE_SELFOVERLAP>
271.627

> <PUBCHEM_SHAPE_VOLUME>
102.2

> <PUBCHEM_COORDINATE_TYPE>
2
5
10

$$$$
