92953
  -OEChem-11012400303D

 30 30  0     1  0  0  0  0  0999 V2000
   -3.2427    1.3208   -0.7553 O   0  0  0  0  0  0  0  0  0  0  0  0
   -2.3573    2.9834    0.4945 O   0  0  0  0  0  0  0  0  0  0  0  0
   -1.1025   -1.5701    1.5243 O   0  0  0  0  0  0  0  0  0  0  0  0
   -1.2253   -0.3126   -0.4244 N   0  0  0  0  0  0  0  0  0  0  0  0
   -2.1129   -3.7426    0.1829 N   0  0  0  0  0  0  0  0  0  0  0  0
   -1.0278    0.9879    0.1746 C   0  0  1  0  0  0  0  0  0  0  0  0
    0.2032    1.6878   -0.4161 C   0  0  0  0  0  0  0  0  0  0  0  0
    1.4736    0.8907   -0.2425 C   0  0  0  0  0  0  0  0  0  0  0  0
   -2.2586    1.8655   -0.0006 C   0  0  0  0  0  0  0  0  0  0  0  0
    2.2432    1.0785    0.8947 C   0  0  0  0  0  0  0  0  0  0  0  0
    1.8474   -0.0139   -1.2236 C   0  0  0  0  0  0  0  0  0  0  0  0
   -1.2463   -1.4917    0.3063 C   0  0  0  0  0  0  0  0  0  0  0  0
    3.4172    0.3422    1.0548 C   0  0  0  0  0  0  0  0  0  0  0  0
    3.0213   -0.7503   -1.0633 C   0  0  0  0  0  0  0  0  0  0  0  0
   -1.4388   -2.7035   -0.5822 C   0  0  0  0  0  0  0  0  0  0  0  0
    3.8061   -0.5722    0.0760 C   0  0  0  0  0  0  0  0  0  0  0  0
   -0.8983    0.8543    1.2555 H   0  0  0  0  0  0  0  0  0  0  0  0
    0.0461    1.8873   -1.4855 H   0  0  0  0  0  0  0  0  0  0  0  0
    0.3306    2.6784    0.0407 H   0  0  0  0  0  0  0  0  0  0  0  0
   -1.3833   -0.3479   -1.4274 H   0  0  0  0  0  0  0  0  0  0  0  0
    1.9471    1.7864    1.6633 H   0  0  0  0  0  0  0  0  0  0  0  0
    1.2459   -0.1589   -2.1164 H   0  0  0  0  0  0  0  0  0  0  0  0
    4.0280    0.4804    1.9421 H   0  0  0  0  0  0  0  0  0  0  0  0
    3.3243   -1.4619   -1.8257 H   0  0  0  0  0  0  0  0  0  0  0  0
   -0.4575   -3.0522   -0.9180 H   0  0  0  0  0  0  0  0  0  0  0  0
   -2.0391   -2.4526   -1.4620 H   0  0  0  0  0  0  0  0  0  0  0  0
    4.7200   -1.1456    0.2009 H   0  0  0  0  0  0  0  0  0  0  0  0
   -4.0128    1.9221   -0.8435 H   0  0  0  0  0  0  0  0  0  0  0  0
   -3.0116   -3.3984    0.5186 H   0  0  0  0  0  0  0  0  0  0  0  0
   -1.5648   -3.9756    1.0100 H   0  0  0  0  0  0  0  0  0  0  0  0
  1  9  1  0  0  0  0
  1 28  1  0  0  0  0
  2  9  2  0  0  0  0
  3 12  2  0  0  0  0
  4  6  1  0  0  0  0
  4 12  1  0  0  0  0
  4 20  1  0  0  0  0
  5 15  1  0  0  0  0
  5 29  1  0  0  0  0
  5 30  1  0  0  0  0
  6  7  1  0  0  0  0
  6  9  1  0  0  0  0
  6 17  1  0  0  0  0
  7  8  1  0  0  0  0
  7 18  1  0  0  0  0
  7 19  1  0  0  0  0
  8 10  2  0  0  0  0
  8 11  1  0  0  0  0
 10 13  1  0  0  0  0
 10 21  1  0  0  0  0
 11 14  2  0  0  0  0
 11 22  1  0  0  0  0
 12 15  1  0  0  0  0
 13 16  2  0  0  0  0
 13 23  1  0  0  0  0
 14 16  1  0  0  0  0
 14 24  1  0  0  0  0
 15 25  1  0  0  0  0
 15 26  1  0  0  0  0
 16 27  1  0  0  0  0
M  END
> <PUBCHEM_COMPOUND_CID>
92953

> <PUBCHEM_CONFORMER_RMSD>
0.8

> <PUBCHEM_CONFORMER_DIVERSEORDER>
1
10
5
3
7
15
2
12
4
14
9
8
6
11
13

> <PUBCHEM_MMFF94_PARTIAL_CHARGES>
25
1 -0.65
10 -0.15
11 -0.15
12 0.57
13 -0.15
14 -0.15
15 0.33
16 -0.15
2 -0.57
20 0.37
21 0.15
22 0.15
23 0.15
24 0.15
27 0.15
28 0.5
29 0.36
3 -0.57
30 0.36
4 -0.73
5 -0.99
6 0.36
7 0.14
8 -0.14
9 0.66

> <PUBCHEM_EFFECTIVE_ROTOR_COUNT>
6

> <PUBCHEM_PHARMACOPHORE_FEATURES>
8
1 1 acceptor
1 2 acceptor
1 3 acceptor
1 4 donor
1 5 cation
1 5 donor
3 1 2 9 anion
6 8 10 11 13 14 16 rings

> <PUBCHEM_HEAVY_ATOM_COUNT>
16

> <PUBCHEM_ATOM_DEF_STEREO_COUNT>
1

> <PUBCHEM_ATOM_UDEF_STEREO_COUNT>
0

> <PUBCHEM_BOND_DEF_STEREO_COUNT>
0

> <PUBCHEM_BOND_UDEF_STEREO_COUNT>
0

> <PUBCHEM_ISOTOPIC_ATOM_COUNT>
0

> <PUBCHEM_COMPONENT_COUNT>
1

> <PUBCHEM_CACTVS_TAUTO_COUNT>
2

> <PUBCHEM_CONFORMER_ID>
00016B1900000001

> <PUBCHEM_MMFF94_ENERGY>
32.0974

> <PUBCHEM_FEATURE_SELFOVERLAP>
40.657

> <PUBCHEM_SHAPE_FINGERPRINT>
11322862 65 18409452444805485727
116883 192 18268147741789383751
12500047 106 18339078186290590588
12553582 1 17905901622710470174
13083527 12 17689417700575982048
14115302 16 18265346023290507636
14178342 30 18336533985145637450
15207287 21 17987227838051351572
15279308 132 18269838605894389640
15852999 172 18201154339263060500
15885798 251 18120378915429944643
16752209 62 18259978297512348203
16945 1 18412269436376689524
18186145 218 18056194674570440900
20524608 308 18412825772101450442
20645476 183 17095820831688079976
21524375 3 18117276960914307187
23184049 29 18265613375850259150
23402539 116 18271225163161292885
23419403 2 14258213476255289255
23557571 272 18268423719176125082
23559900 14 18269841926848348902
23598291 2 17458927967161409332
23728640 28 18336823096178918898
257057 1 17907008831030104999
2748010 2 18121238492714169775
305870 269 17978227154146395257
3071541 236 18408598150019161399
43471831 8 18049441435787604633
465052 167 17460345242256212561
6338986 31 17979069710633787311
69090 78 18059283288842803685
7364860 26 17403736649491575069
74978 22 18335141994576735236
81228 2 18263927798960809825
8809292 202 18271808961122929740
9709674 26 18272646866081657964

> <PUBCHEM_SHAPE_MULTIPOLES>
301.7
5.51
3.31
1.11
3.1
1.93
-0.08
-0.1
-0.15
-4.43
-0.25
0.46
0.16
0.51

> <PUBCHEM_SHAPE_SELFOVERLAP>
616.43

> <PUBCHEM_SHAPE_VOLUME>
172.9

> <PUBCHEM_COORDINATE_TYPE>
2
5
10

$$$$
