137741
  -OEChem-11012400493D

 23 23  0     0  0  0  0  0  0999 V2000
    1.5281   -0.7082    0.5125 O   0  0  0  0  0  0  0  0  0  0  0  0
   -0.1405   -2.2601    0.6746 O   0  0  0  0  0  0  0  0  0  0  0  0
    2.6925    1.2397    0.2314 O   0  0  0  0  0  0  0  0  0  0  0  0
   -0.6459    0.0311    0.0220 C   0  0  0  0  0  0  0  0  0  0  0  0
    0.2783    1.2334    0.1637 C   0  0  0  0  0  0  0  0  0  0  0  0
   -1.8623    0.1488    0.9381 C   0  0  0  0  0  0  0  0  0  0  0  0
   -1.0730   -0.1856   -1.4311 C   0  0  0  0  0  0  0  0  0  0  0  0
    0.2311   -1.1178    0.4507 C   0  0  0  0  0  0  0  0  0  0  0  0
    1.6373    0.6269    0.2833 C   0  0  0  0  0  0  0  0  0  0  0  0
   -2.7746    1.2793    0.5032 C   0  0  0  0  0  0  0  0  0  0  0  0
    0.1290   -0.2876   -2.3484 C   0  0  0  0  0  0  0  0  0  0  0  0
    0.0958    1.7890    1.0906 H   0  0  0  0  0  0  0  0  0  0  0  0
    0.2292    1.9304   -0.6768 H   0  0  0  0  0  0  0  0  0  0  0  0
   -1.5423    0.3145    1.9749 H   0  0  0  0  0  0  0  0  0  0  0  0
   -2.4335   -0.7882    0.9457 H   0  0  0  0  0  0  0  0  0  0  0  0
   -1.6897    0.6412   -1.7985 H   0  0  0  0  0  0  0  0  0  0  0  0
   -1.6697   -1.1017   -1.5224 H   0  0  0  0  0  0  0  0  0  0  0  0
   -2.2402    2.2243    0.3693 H   0  0  0  0  0  0  0  0  0  0  0  0
   -3.3112    1.0432   -0.4203 H   0  0  0  0  0  0  0  0  0  0  0  0
   -3.5386    1.4447    1.2711 H   0  0  0  0  0  0  0  0  0  0  0  0
    0.7207    0.6303   -2.3926 H   0  0  0  0  0  0  0  0  0  0  0  0
    0.7871   -1.1237   -2.0942 H   0  0  0  0  0  0  0  0  0  0  0  0
   -0.2208   -0.4733   -3.3709 H   0  0  0  0  0  0  0  0  0  0  0  0
  1  8  1  0  0  0  0
  1  9  1  0  0  0  0
  2  8  2  0  0  0  0
  3  9  2  0  0  0  0
  4  5  1  0  0  0  0
  4  6  1  0  0  0  0
  4  7  1  0  0  0  0
  4  8  1  0  0  0  0
  5  9  1  0  0  0  0
  5 12  1  0  0  0  0
  5 13  1  0  0  0  0
  6 10  1  0  0  0  0
  6 14  1  0  0  0  0
  6 15  1  0  0  0  0
  7 11  1  0  0  0  0
  7 16  1  0  0  0  0
  7 17  1  0  0  0  0
 10 18  1  0  0  0  0
 10 19  1  0  0  0  0
 10 20  1  0  0  0  0
 11 21  1  0  0  0  0
 11 22  1  0  0  0  0
 11 23  1  0  0  0  0
M  END
> <PUBCHEM_COMPOUND_CID>
137741

> <PUBCHEM_CONFORMER_RMSD>
0.6

> <PUBCHEM_CONFORMER_DIVERSEORDER>
1
4
5
3
2
6

> <PUBCHEM_MMFF94_PARTIAL_CHARGES>
7
1 -0.3
2 -0.57
3 -0.57
4 0.06
5 0.06
8 0.66
9 0.66

> <PUBCHEM_EFFECTIVE_ROTOR_COUNT>
2.6

> <PUBCHEM_PHARMACOPHORE_FEATURES>
5
1 10 hydrophobe
1 11 hydrophobe
1 2 acceptor
1 3 acceptor
5 1 4 5 8 9 rings

> <PUBCHEM_HEAVY_ATOM_COUNT>
11

> <PUBCHEM_ATOM_DEF_STEREO_COUNT>
0

> <PUBCHEM_ATOM_UDEF_STEREO_COUNT>
0

> <PUBCHEM_BOND_DEF_STEREO_COUNT>
0

> <PUBCHEM_BOND_UDEF_STEREO_COUNT>
0

> <PUBCHEM_ISOTOPIC_ATOM_COUNT>
0

> <PUBCHEM_COMPONENT_COUNT>
1

> <PUBCHEM_CACTVS_TAUTO_COUNT>
2

> <PUBCHEM_CONFORMER_ID>
00021A0D00000001

> <PUBCHEM_MMFF94_ENERGY>
15.0223

> <PUBCHEM_FEATURE_SELFOVERLAP>
25.371

> <PUBCHEM_SHAPE_FINGERPRINT>
10702982 57 18201993339549348591
12423570 1 17344627020045650558
13024252 1 13263768873321503872
137420 1 10928391358077099370
14817 1 15261083392016093247
16945 1 17844260535535063434
20653085 51 17489033776451029224
21040471 1 18336553805955426296
23211744 41 18202015329908719193
5084963 1 18130793394740926169
68250623 7 18131917056817028175

> <PUBCHEM_SHAPE_MULTIPOLES>
208.77
2.79
1.6
1.5
0.54
0.2
-0.14
-1.79
-0.04
-0.08
-0.24
-0.04
0.96
-0.2

> <PUBCHEM_SHAPE_SELFOVERLAP>
426.793

> <PUBCHEM_SHAPE_VOLUME>
123

> <PUBCHEM_COORDINATE_TYPE>
2
5
10

$$$$
