136546
  -OEChem-11012401053D

 32 34  0     1  0  0  0  0  0999 V2000
    0.3464    0.6852   -0.3529 C   0  0  1  0  0  0  0  0  0  0  0  0
    0.3465   -0.6852    0.3533 C   0  0  1  0  0  0  0  0  0  0  0  0
   -1.0733    1.2843   -0.2638 C   0  0  0  0  0  0  0  0  0  0  0  0
   -1.0730   -1.2843    0.2639 C   0  0  0  0  0  0  0  0  0  0  0  0
   -1.7088   -1.0089   -1.1147 C   0  0  0  0  0  0  0  0  0  0  0  0
   -1.9142    0.5098   -1.3100 C   0  0  0  0  0  0  0  0  0  0  0  0
   -1.9144   -0.5100    1.3097 C   0  0  0  0  0  0  0  0  0  0  0  0
   -1.7091    1.0088    1.1146 C   0  0  0  0  0  0  0  0  0  0  0  0
    1.5252    1.4914    0.1776 C   0  0  0  0  0  0  0  0  0  0  0  0
    1.5255   -1.4913   -0.1775 C   0  0  0  0  0  0  0  0  0  0  0  0
    2.8244    0.7472   -0.1883 C   0  0  0  0  0  0  0  0  0  0  0  0
    2.8248   -0.7469    0.1881 C   0  0  0  0  0  0  0  0  0  0  0  0
    0.5520    0.5449   -1.4262 H   0  0  0  0  0  0  0  0  0  0  0  0
    0.5521   -0.5450    1.4267 H   0  0  0  0  0  0  0  0  0  0  0  0
   -1.0717    2.3557   -0.4886 H   0  0  0  0  0  0  0  0  0  0  0  0
   -1.0715   -2.3557    0.4885 H   0  0  0  0  0  0  0  0  0  0  0  0
   -1.0674   -1.4077   -1.9096 H   0  0  0  0  0  0  0  0  0  0  0  0
   -2.6744   -1.5206   -1.2023 H   0  0  0  0  0  0  0  0  0  0  0  0
   -2.9762   -0.7643    1.2043 H   0  0  0  0  0  0  0  0  0  0  0  0
   -1.6246   -0.7923    2.3289 H   0  0  0  0  0  0  0  0  0  0  0  0
   -1.6240    0.7921   -2.3291 H   0  0  0  0  0  0  0  0  0  0  0  0
   -2.9760    0.7639   -1.2049 H   0  0  0  0  0  0  0  0  0  0  0  0
   -2.6749    1.5204    1.2022 H   0  0  0  0  0  0  0  0  0  0  0  0
   -1.0679    1.4076    1.9097 H   0  0  0  0  0  0  0  0  0  0  0  0
    1.4581    1.6204    1.2640 H   0  0  0  0  0  0  0  0  0  0  0  0
    1.5390    2.4917   -0.2692 H   0  0  0  0  0  0  0  0  0  0  0  0
    1.4581   -1.6203   -1.2639 H   0  0  0  0  0  0  0  0  0  0  0  0
    1.5396   -2.4916    0.2694 H   0  0  0  0  0  0  0  0  0  0  0  0
    3.6782    1.2451    0.2851 H   0  0  0  0  0  0  0  0  0  0  0  0
    2.9785    0.8280   -1.2721 H   0  0  0  0  0  0  0  0  0  0  0  0
    3.6786   -1.2447   -0.2857 H   0  0  0  0  0  0  0  0  0  0  0  0
    2.9794   -0.8278    1.2719 H   0  0  0  0  0  0  0  0  0  0  0  0
  1  2  1  0  0  0  0
  1  3  1  0  0  0  0
  1  9  1  0  0  0  0
  1 13  1  0  0  0  0
  2  4  1  0  0  0  0
  2 10  1  0  0  0  0
  2 14  1  0  0  0  0
  3  6  1  0  0  0  0
  3  8  1  0  0  0  0
  3 15  1  0  0  0  0
  4  5  1  0  0  0  0
  4  7  1  0  0  0  0
  4 16  1  0  0  0  0
  5  6  1  0  0  0  0
  5 17  1  0  0  0  0
  5 18  1  0  0  0  0
  6 21  1  0  0  0  0
  6 22  1  0  0  0  0
  7  8  1  0  0  0  0
  7 19  1  0  0  0  0
  7 20  1  0  0  0  0
  8 23  1  0  0  0  0
  8 24  1  0  0  0  0
  9 11  1  0  0  0  0
  9 25  1  0  0  0  0
  9 26  1  0  0  0  0
 10 12  1  0  0  0  0
 10 27  1  0  0  0  0
 10 28  1  0  0  0  0
 11 12  1  0  0  0  0
 11 29  1  0  0  0  0
 11 30  1  0  0  0  0
 12 31  1  0  0  0  0
 12 32  1  0  0  0  0
M  END
> <PUBCHEM_COMPOUND_CID>
136546

> <PUBCHEM_CONFORMER_RMSD>
0.4

> <PUBCHEM_CONFORMER_DIVERSEORDER>
1
2

> <PUBCHEM_MMFF94_PARTIAL_CHARGES>
0

> <PUBCHEM_EFFECTIVE_ROTOR_COUNT>
1.6

> <PUBCHEM_PHARMACOPHORE_FEATURES>
2
6 1 2 9 10 11 12 rings
8 1 2 3 4 5 6 7 8 rings

> <PUBCHEM_HEAVY_ATOM_COUNT>
12

> <PUBCHEM_ATOM_DEF_STEREO_COUNT>
0

> <PUBCHEM_ATOM_UDEF_STEREO_COUNT>
2

> <PUBCHEM_BOND_DEF_STEREO_COUNT>
0

> <PUBCHEM_BOND_UDEF_STEREO_COUNT>
0

> <PUBCHEM_ISOTOPIC_ATOM_COUNT>
0

> <PUBCHEM_COMPONENT_COUNT>
1

> <PUBCHEM_CACTVS_TAUTO_COUNT>
1

> <PUBCHEM_CONFORMER_ID>
0002156200000001

> <PUBCHEM_MMFF94_ENERGY>
36.2848

> <PUBCHEM_FEATURE_SELFOVERLAP>
10.157

> <PUBCHEM_SHAPE_FINGERPRINT>
10702982 57 17702386143851633985
12138202 97 17168408437654558919
12423570 1 15750047951407967099
12524768 44 18195810665544598814
12696612 119 18335997427534076144
13024252 1 15864070970614994683
15775835 57 18342463659569699244
15906896 17 17560808697616881515
16945 1 18413108359585343622
17844478 74 17822589268694171513
20653085 51 18188478082660138549
21922407 69 17560801082043844770
23552423 10 18261109707698571342
241688 4 18336259115243097872
25 1 17609200265570717533
2748010 2 18335420183918827460
369184 2 18409448093850380408
5084963 1 18040999608694657704
528886 8 18410848845894363328
63268167 104 18410848833252177888

> <PUBCHEM_SHAPE_MULTIPOLES>
246.95
3.64
1.65
1.15
2.15
0
0
0
0
0.19
0
-0.88
0
-0.06

> <PUBCHEM_SHAPE_SELFOVERLAP>
520.402

> <PUBCHEM_SHAPE_VOLUME>
134.7

> <PUBCHEM_COORDINATE_TYPE>
2
5
10

$$$$
