11767
  -OEChem-11012400413D

 26 28  0     0  0  0  0  0  0999 V2000
   -1.0972    2.8530    0.0007 O   0  5  0  0  0  0  0  0  0  0  0  0
    1.0981    2.8527    0.0004 O   0  0  0  0  0  0  0  0  0  0  0  0
    0.0004    2.2587    0.0000 N   0  3  0  0  0  0  0  0  0  0  0  0
   -1.2251    0.1372   -0.0004 C   0  0  0  0  0  0  0  0  0  0  0  0
    1.2251    0.1371   -0.0002 C   0  0  0  0  0  0  0  0  0  0  0  0
   -1.2252   -1.2749    0.0001 C   0  0  0  0  0  0  0  0  0  0  0  0
    1.2250   -1.2750    0.0000 C   0  0  0  0  0  0  0  0  0  0  0  0
    0.0000    0.8248   -0.0005 C   0  0  0  0  0  0  0  0  0  0  0  0
   -0.0001   -1.9626    0.0001 C   0  0  0  0  0  0  0  0  0  0  0  0
   -2.4506    0.8241   -0.0005 C   0  0  0  0  0  0  0  0  0  0  0  0
    2.4505    0.8240   -0.0003 C   0  0  0  0  0  0  0  0  0  0  0  0
   -2.4507   -1.9617    0.0004 C   0  0  0  0  0  0  0  0  0  0  0  0
    2.4504   -1.9620    0.0001 C   0  0  0  0  0  0  0  0  0  0  0  0
   -3.6588    0.1269   -0.0003 C   0  0  0  0  0  0  0  0  0  0  0  0
    3.6586    0.1265    0.0000 C   0  0  0  0  0  0  0  0  0  0  0  0
   -3.6589   -1.2643    0.0003 C   0  0  0  0  0  0  0  0  0  0  0  0
    3.6586   -1.2647    0.0001 C   0  0  0  0  0  0  0  0  0  0  0  0
   -0.0002   -3.0526    0.0004 H   0  0  0  0  0  0  0  0  0  0  0  0
   -2.6966    1.8697   -0.0020 H   0  0  0  0  0  0  0  0  0  0  0  0
    2.6970    1.8694   -0.0011 H   0  0  0  0  0  0  0  0  0  0  0  0
   -2.4745   -3.0496    0.0007 H   0  0  0  0  0  0  0  0  0  0  0  0
    2.4741   -3.0498    0.0002 H   0  0  0  0  0  0  0  0  0  0  0  0
   -4.6030    0.6648   -0.0007 H   0  0  0  0  0  0  0  0  0  0  0  0
    4.6030    0.6643   -0.0002 H   0  0  0  0  0  0  0  0  0  0  0  0
   -4.5991   -1.8081    0.0005 H   0  0  0  0  0  0  0  0  0  0  0  0
    4.5987   -1.8085    0.0002 H   0  0  0  0  0  0  0  0  0  0  0  0
  1  3  1  0  0  0  0
  2  3  2  0  0  0  0
  3  8  1  0  0  0  0
  4  6  1  0  0  0  0
  4  8  2  0  0  0  0
  4 10  1  0  0  0  0
  5  7  1  0  0  0  0
  5  8  1  0  0  0  0
  5 11  2  0  0  0  0
  6  9  2  0  0  0  0
  6 12  1  0  0  0  0
  7  9  1  0  0  0  0
  7 13  2  0  0  0  0
  9 18  1  0  0  0  0
 10 14  2  0  0  0  0
 10 19  1  0  0  0  0
 11 15  1  0  0  0  0
 11 20  1  0  0  0  0
 12 16  2  0  0  0  0
 12 21  1  0  0  0  0
 13 17  1  0  0  0  0
 13 22  1  0  0  0  0
 14 16  1  0  0  0  0
 14 23  1  0  0  0  0
 15 17  2  0  0  0  0
 15 24  1  0  0  0  0
 16 25  1  0  0  0  0
 17 26  1  0  0  0  0
M  CHG  2   1  -1   3   1
M  END
> <PUBCHEM_COMPOUND_CID>
11767

> <PUBCHEM_CONFORMER_RMSD>
0.6

> <PUBCHEM_CONFORMER_DIVERSEORDER>
1

> <PUBCHEM_MMFF94_PARTIAL_CHARGES>
22
1 -0.52
10 -0.15
11 -0.15
12 -0.15
13 -0.15
14 -0.15
15 -0.15
16 -0.15
17 -0.15
18 0.15
19 0.15
2 -0.52
20 0.15
21 0.15
22 0.15
23 0.15
24 0.15
25 0.15
26 0.15
3 0.91
8 0.13
9 -0.15

> <PUBCHEM_EFFECTIVE_ROTOR_COUNT>
1

> <PUBCHEM_PHARMACOPHORE_FEATURES>
6
1 1 acceptor
1 1 anion
1 2 acceptor
6 4 5 6 7 8 9 rings
6 4 6 10 12 14 16 rings
6 5 7 11 13 15 17 rings

> <PUBCHEM_HEAVY_ATOM_COUNT>
17

> <PUBCHEM_ATOM_DEF_STEREO_COUNT>
0

> <PUBCHEM_ATOM_UDEF_STEREO_COUNT>
0

> <PUBCHEM_BOND_DEF_STEREO_COUNT>
0

> <PUBCHEM_BOND_UDEF_STEREO_COUNT>
0

> <PUBCHEM_ISOTOPIC_ATOM_COUNT>
0

> <PUBCHEM_COMPONENT_COUNT>
1

> <PUBCHEM_CACTVS_TAUTO_COUNT>
1

> <PUBCHEM_CONFORMER_ID>
00002DF700000001

> <PUBCHEM_MMFF94_ENERGY>
98.3807

> <PUBCHEM_FEATURE_SELFOVERLAP>
30.579

> <PUBCHEM_SHAPE_FINGERPRINT>
10608611 8 18410852161593304455
10967382 1 18194682789699429894
11132069 177 18412538803961879626
11471102 20 18410288146662333567
11680986 33 18048880985373222523
12032990 46 18410860957686748899
12382932 28 18411982442366958082
12553582 1 18410578387492988014
13132413 78 18412546543450768533
13140716 1 18266741474659070937
13221675 6 18410573989446769218
13583140 156 14189284894741502871
138480 1 14880034022300935045
15196674 1 18410575088958273583
15375462 189 18187083936107110483
15442244 35 18412266133762869851
15536298 74 18271807960163532026
16945 1 18410575084663130887
200 152 18059847398906945279
20510252 161 18198902522348750856
20645477 70 18119800568171604967
21029758 11 18412537726315244461
21029758 27 18334586766836998207
21267235 1 18410583880756711746
21501502 16 18193841436061304754
221490 88 18119814865838307939
2334 1 18266459999666522606
23402539 116 18342728594469253638
23463225 33 18409730664160029942
23557571 272 18129106632693574038
23559900 14 18268705022834451402
2748010 2 18411696590839717214
3071541 12 18194686105403931725
3071541 158 18261391191043826685
335352 9 18194682557808132607
34934 24 18410846668330418698
352729 6 17690556386236253478
427121 178 15765033410215831145
5104073 3 18410855460149612578
537710 114 18335991933970165988
7364860 26 18196653127453084889
7832392 63 18341328989329218623
81228 2 18194133927323096800
8809292 202 18261115183581849091
9709674 26 18269839714038462134

> <PUBCHEM_SHAPE_MULTIPOLES>
333.13
5.87
2.78
0.6
0
1.54
0
-1.97
0
0
0
0
-0.04
0

> <PUBCHEM_SHAPE_SELFOVERLAP>
759.121

> <PUBCHEM_SHAPE_VOLUME>
173.7

> <PUBCHEM_COORDINATE_TYPE>
2
5
10

$$$$
