143214
  -OEChem-11012401053D

 49 50  0     0  0  0  0  0  0999 V2000
    0.0496    1.2135    0.4885 C   0  0  0  0  0  0  0  0  0  0  0  0
   -2.2012    0.1762   -0.2729 C   0  0  0  0  0  0  0  0  0  0  0  0
    2.3044    0.2312   -0.2824 C   0  0  0  0  0  0  0  0  0  0  0  0
   -0.7546    0.5141   -0.6289 C   0  0  0  0  0  0  0  0  0  0  0  0
    1.5229    1.4838    0.1098 C   0  0  0  0  0  0  0  0  0  0  0  0
   -2.9255   -0.4411   -1.4768 C   0  0  0  0  0  0  0  0  0  0  0  0
   -2.2557   -0.7641    0.9386 C   0  0  0  0  0  0  0  0  0  0  0  0
    3.7784    0.5710   -0.5414 C   0  0  0  0  0  0  0  0  0  0  0  0
    2.1746   -0.8494    0.7995 C   0  0  0  0  0  0  0  0  0  0  0  0
   -0.5904    2.5338    0.9731 C   0  0  0  0  0  0  0  0  0  0  0  0
   -4.3589   -0.8369   -1.1300 C   0  0  0  0  0  0  0  0  0  0  0  0
   -3.6903   -1.1594    1.2813 C   0  0  0  0  0  0  0  0  0  0  0  0
    4.5923   -0.6748   -0.8836 C   0  0  0  0  0  0  0  0  0  0  0  0
    2.9914   -2.0928    0.4553 C   0  0  0  0  0  0  0  0  0  0  0  0
   -4.4097   -1.7645    0.0799 C   0  0  0  0  0  0  0  0  0  0  0  0
    4.4539   -1.7499    0.1898 C   0  0  0  0  0  0  0  0  0  0  0  0
   -0.6813    3.6092   -0.1001 C   0  0  0  0  0  0  0  0  0  0  0  0
    0.0594    0.5694    1.3730 H   0  0  0  0  0  0  0  0  0  0  0  0
   -2.7359    1.1001   -0.0204 H   0  0  0  0  0  0  0  0  0  0  0  0
    1.8965   -0.1657   -1.2209 H   0  0  0  0  0  0  0  0  0  0  0  0
   -0.2551   -0.4206   -0.9087 H   0  0  0  0  0  0  0  0  0  0  0  0
   -0.7361    1.1366   -1.5320 H   0  0  0  0  0  0  0  0  0  0  0  0
    1.5717    2.1823   -0.7336 H   0  0  0  0  0  0  0  0  0  0  0  0
    2.0237    1.9762    0.9540 H   0  0  0  0  0  0  0  0  0  0  0  0
   -2.3819   -1.3286   -1.8257 H   0  0  0  0  0  0  0  0  0  0  0  0
   -2.9398    0.2706   -2.3108 H   0  0  0  0  0  0  0  0  0  0  0  0
   -1.8262   -0.2895    1.8264 H   0  0  0  0  0  0  0  0  0  0  0  0
   -1.6678   -1.6692    0.7398 H   0  0  0  0  0  0  0  0  0  0  0  0
    4.2134    1.0513    0.3446 H   0  0  0  0  0  0  0  0  0  0  0  0
    3.8577    1.2916   -1.3641 H   0  0  0  0  0  0  0  0  0  0  0  0
    1.1379   -1.1771    0.9209 H   0  0  0  0  0  0  0  0  0  0  0  0
    2.5061   -0.4541    1.7681 H   0  0  0  0  0  0  0  0  0  0  0  0
   -1.5898    2.3448    1.3793 H   0  0  0  0  0  0  0  0  0  0  0  0
   -0.0042    2.9307    1.8120 H   0  0  0  0  0  0  0  0  0  0  0  0
   -4.8236   -1.3294   -1.9916 H   0  0  0  0  0  0  0  0  0  0  0  0
   -4.9467    0.0660   -0.9230 H   0  0  0  0  0  0  0  0  0  0  0  0
   -4.2395   -0.2754    1.6283 H   0  0  0  0  0  0  0  0  0  0  0  0
   -3.6870   -1.8781    2.1086 H   0  0  0  0  0  0  0  0  0  0  0  0
    5.6478   -0.4045   -1.0003 H   0  0  0  0  0  0  0  0  0  0  0  0
    4.2569   -1.0761   -1.8478 H   0  0  0  0  0  0  0  0  0  0  0  0
    2.5633   -2.5769   -0.4313 H   0  0  0  0  0  0  0  0  0  0  0  0
    2.9263   -2.8158    1.2764 H   0  0  0  0  0  0  0  0  0  0  0  0
   -5.4531   -1.9733    0.3413 H   0  0  0  0  0  0  0  0  0  0  0  0
   -3.9459   -2.7248   -0.1770 H   0  0  0  0  0  0  0  0  0  0  0  0
    4.9941   -2.6517   -0.1194 H   0  0  0  0  0  0  0  0  0  0  0  0
    4.9209   -1.4001    1.1187 H   0  0  0  0  0  0  0  0  0  0  0  0
    0.3035    3.9330   -0.4465 H   0  0  0  0  0  0  0  0  0  0  0  0
   -1.1813    4.4929    0.3112 H   0  0  0  0  0  0  0  0  0  0  0  0
   -1.2669    3.2779   -0.9619 H   0  0  0  0  0  0  0  0  0  0  0  0
  1  4  1  0  0  0  0
  1  5  1  0  0  0  0
  1 10  1  0  0  0  0
  1 18  1  0  0  0  0
  2  4  1  0  0  0  0
  2  6  1  0  0  0  0
  2  7  1  0  0  0  0
  2 19  1  0  0  0  0
  3  5  1  0  0  0  0
  3  8  1  0  0  0  0
  3  9  1  0  0  0  0
  3 20  1  0  0  0  0
  4 21  1  0  0  0  0
  4 22  1  0  0  0  0
  5 23  1  0  0  0  0
  5 24  1  0  0  0  0
  6 11  1  0  0  0  0
  6 25  1  0  0  0  0
  6 26  1  0  0  0  0
  7 12  1  0  0  0  0
  7 27  1  0  0  0  0
  7 28  1  0  0  0  0
  8 13  1  0  0  0  0
  8 29  1  0  0  0  0
  8 30  1  0  0  0  0
  9 14  1  0  0  0  0
  9 31  1  0  0  0  0
  9 32  1  0  0  0  0
 10 17  1  0  0  0  0
 10 33  1  0  0  0  0
 10 34  1  0  0  0  0
 11 15  1  0  0  0  0
 11 35  1  0  0  0  0
 11 36  1  0  0  0  0
 12 15  1  0  0  0  0
 12 37  1  0  0  0  0
 12 38  1  0  0  0  0
 13 16  1  0  0  0  0
 13 39  1  0  0  0  0
 13 40  1  0  0  0  0
 14 16  1  0  0  0  0
 14 41  1  0  0  0  0
 14 42  1  0  0  0  0
 15 43  1  0  0  0  0
 15 44  1  0  0  0  0
 16 45  1  0  0  0  0
 16 46  1  0  0  0  0
 17 47  1  0  0  0  0
 17 48  1  0  0  0  0
 17 49  1  0  0  0  0
M  END
> <PUBCHEM_COMPOUND_CID>
143214

> <PUBCHEM_CONFORMER_RMSD>
0.8

> <PUBCHEM_CONFORMER_DIVERSEORDER>
1
2
4
5
6
9
7
8
3

> <PUBCHEM_MMFF94_PARTIAL_CHARGES>
0

> <PUBCHEM_EFFECTIVE_ROTOR_COUNT>
7.4

> <PUBCHEM_PHARMACOPHORE_FEATURES>
4
1 17 hydrophobe
4 1 4 5 10 hydrophobe
6 2 6 7 11 12 15 rings
6 3 8 9 13 14 16 rings

> <PUBCHEM_HEAVY_ATOM_COUNT>
17

> <PUBCHEM_ATOM_DEF_STEREO_COUNT>
0

> <PUBCHEM_ATOM_UDEF_STEREO_COUNT>
0

> <PUBCHEM_BOND_DEF_STEREO_COUNT>
0

> <PUBCHEM_BOND_UDEF_STEREO_COUNT>
0

> <PUBCHEM_ISOTOPIC_ATOM_COUNT>
0

> <PUBCHEM_COMPONENT_COUNT>
1

> <PUBCHEM_CACTVS_TAUTO_COUNT>
1

> <PUBCHEM_CONFORMER_ID>
00022F6E00000001

> <PUBCHEM_MMFF94_ENERGY>
16.6982

> <PUBCHEM_FEATURE_SELFOVERLAP>
20.344

> <PUBCHEM_SHAPE_FINGERPRINT>
10616163 171 18196373624177794358
10618630 7 18411418401649917056
11543360 7 16588027926377021566
11578080 2 17631712929321694473
12363563 72 18412265038372298423
12506688 2 18335704987131345075
12553582 1 18341894103866964330
12596602 18 16917065606967857066
12633257 1 14908180880222255891
12707595 3 18337667615555652203
12714826 92 17988642930917522736
12788726 201 18121771738774232897
12892183 10 14117804612995738894
13103583 49 18058751181403105995
13533116 47 18053104218890770931
13544653 18 18409167731270322940
13583140 156 13830131637641562623
14178342 30 18048302354979578522
14252887 29 18201432640359361024
14576447 43 18335704914945348902
15188451 53 16200136738764029567
15375462 189 18343303703564396654
16752209 62 18268135475019647868
1798214 20 18410288120739555478
1798214 55 8430314649527422422
1813 80 18130241431171618245
18222031 100 17846773044322152887
193927 3 18411989027005750382
200 152 18408322177017019046
20281475 54 18409168813649456809
20291156 8 18342457053677649026
20361792 2 18201151139528482909
20388580 30 18335704991542552044
20645477 70 18337663238989324039
20671657 53 18340490062110011497
20871999 31 16950562190427399775
21250096 35 18411696603925053103
21713013 43 17748542658327701911
21756936 100 12749796721901203842
2215653 11 18260818329049931687
2255824 54 17981607379365676557
22646028 28 18342455932770643950
22950370 63 18411989074081338539
23175994 123 18336267924801283629
23402539 116 18411703158240234642
235170 7 17022896861142742302
23526113 38 18041559268829854857
23559900 14 18187357770337085716
23598288 3 18198624320121386268
23598291 2 17844807195073287285
27216 239 10807931583379838279
2871803 45 18260267443226900338
3004659 81 18040710347106185466
312423 11 18339938030253594140
314173 41 18339646766429328343
314173 85 18131351899197311616
351380 3 18201723967738172518
46194498 28 17242172568507560095
465052 167 18200599214988583167
4921388 177 16153717530886893971
5104073 3 18198899207362077026
59682541 52 18194936670476992735
621550 5 17822578321587672061
633830 44 11819538291396368081
7970288 3 18343300374860319558
81228 2 18337943481374419505
83771 10 18413110579983306360

> <PUBCHEM_SHAPE_MULTIPOLES>
349.85
9.35
2.87
1.19
1.47
2.65
-0.07
-7.58
-1.63
-0.08
0.57
-0.82
-0.18
-0.19

> <PUBCHEM_SHAPE_SELFOVERLAP>
683.909

> <PUBCHEM_SHAPE_VOLUME>
205.1

> <PUBCHEM_COORDINATE_TYPE>
2
5
10

$$$$
