123154
  -OEChem-11012400363D

 34 38  0     0  0  0  0  0  0999 V2000
    0.2658   -0.2889    1.4271 C   0  0  0  0  0  0  0  0  0  0  0  0
   -0.2654   -1.3805    0.4635 C   0  0  0  0  0  0  0  0  0  0  0  0
   -0.2655    1.0918    0.9639 C   0  0  0  0  0  0  0  0  0  0  0  0
    0.2655   -1.0917   -0.9640 C   0  0  0  0  0  0  0  0  0  0  0  0
    0.2654    1.3810   -0.4635 C   0  0  0  0  0  0  0  0  0  0  0  0
   -0.2657    0.2890   -1.4273 C   0  0  0  0  0  0  0  0  0  0  0  0
    2.3221    0.0000   -0.0002 C   0  0  0  0  0  0  0  0  0  0  0  0
   -2.3222   -0.0002    0.0002 C   0  0  0  0  0  0  0  0  0  0  0  0
    1.8025   -0.2867    1.4157 C   0  0  0  0  0  0  0  0  0  0  0  0
   -1.8022   -1.3697    0.4598 C   0  0  0  0  0  0  0  0  0  0  0  0
   -1.8023    1.0828    0.9561 C   0  0  0  0  0  0  0  0  0  0  0  0
    1.8023    1.3696   -0.4596 C   0  0  0  0  0  0  0  0  0  0  0  0
    1.8023   -1.0831   -0.9561 C   0  0  0  0  0  0  0  0  0  0  0  0
   -1.8026    0.2866   -1.4157 C   0  0  0  0  0  0  0  0  0  0  0  0
   -0.0833   -0.4953    2.4467 H   0  0  0  0  0  0  0  0  0  0  0  0
    0.0838   -2.3666    0.7945 H   0  0  0  0  0  0  0  0  0  0  0  0
    0.0835    1.8714    1.6525 H   0  0  0  0  0  0  0  0  0  0  0  0
   -0.0837   -1.8714   -1.6525 H   0  0  0  0  0  0  0  0  0  0  0  0
   -0.0837    2.3671   -0.7945 H   0  0  0  0  0  0  0  0  0  0  0  0
    0.0833    0.4954   -2.4468 H   0  0  0  0  0  0  0  0  0  0  0  0
    3.4177    0.0000   -0.0002 H   0  0  0  0  0  0  0  0  0  0  0  0
   -3.4178   -0.0003    0.0004 H   0  0  0  0  0  0  0  0  0  0  0  0
    2.1796   -1.2560    1.7641 H   0  0  0  0  0  0  0  0  0  0  0  0
    2.1798    0.4708    2.1137 H   0  0  0  0  0  0  0  0  0  0  0  0
   -2.1793   -1.5955    1.4649 H   0  0  0  0  0  0  0  0  0  0  0  0
   -2.1794   -2.1561   -0.2055 H   0  0  0  0  0  0  0  0  0  0  0  0
   -2.1796    2.0660    0.6491 H   0  0  0  0  0  0  0  0  0  0  0  0
   -2.1794    0.8999    1.9698 H   0  0  0  0  0  0  0  0  0  0  0  0
    2.1795    1.5954   -1.4646 H   0  0  0  0  0  0  0  0  0  0  0  0
    2.1796    2.1558    0.2057 H   0  0  0  0  0  0  0  0  0  0  0  0
    2.1795   -0.9004   -1.9698 H   0  0  0  0  0  0  0  0  0  0  0  0
    2.1794   -2.0663   -0.6489 H   0  0  0  0  0  0  0  0  0  0  0  0
   -2.1798   -0.4708   -2.1137 H   0  0  0  0  0  0  0  0  0  0  0  0
   -2.1798    1.2560   -1.7640 H   0  0  0  0  0  0  0  0  0  0  0  0
  1  2  1  0  0  0  0
  1  3  1  0  0  0  0
  1  9  1  0  0  0  0
  1 15  1  0  0  0  0
  2  4  1  0  0  0  0
  2 10  1  0  0  0  0
  2 16  1  0  0  0  0
  3  5  1  0  0  0  0
  3 11  1  0  0  0  0
  3 17  1  0  0  0  0
  4  6  1  0  0  0  0
  4 13  1  0  0  0  0
  4 18  1  0  0  0  0
  5  6  1  0  0  0  0
  5 12  1  0  0  0  0
  5 19  1  0  0  0  0
  6 14  1  0  0  0  0
  6 20  1  0  0  0  0
  7  9  1  0  0  0  0
  7 12  1  0  0  0  0
  7 13  1  0  0  0  0
  7 21  1  0  0  0  0
  8 10  1  0  0  0  0
  8 11  1  0  0  0  0
  8 14  1  0  0  0  0
  8 22  1  0  0  0  0
  9 23  1  0  0  0  0
  9 24  1  0  0  0  0
 10 25  1  0  0  0  0
 10 26  1  0  0  0  0
 11 27  1  0  0  0  0
 11 28  1  0  0  0  0
 12 29  1  0  0  0  0
 12 30  1  0  0  0  0
 13 31  1  0  0  0  0
 13 32  1  0  0  0  0
 14 33  1  0  0  0  0
 14 34  1  0  0  0  0
M  END
> <PUBCHEM_COMPOUND_CID>
123154

> <PUBCHEM_CONFORMER_RMSD>
0.4

> <PUBCHEM_CONFORMER_DIVERSEORDER>
1

> <PUBCHEM_MMFF94_PARTIAL_CHARGES>
0

> <PUBCHEM_EFFECTIVE_ROTOR_COUNT>
1.2

> <PUBCHEM_PHARMACOPHORE_FEATURES>
7
6 1 2 3 4 5 6 rings
6 1 2 3 8 10 11 rings
6 1 2 4 7 9 13 rings
6 1 3 5 7 9 12 rings
6 2 4 6 8 10 14 rings
6 3 5 6 8 11 14 rings
6 4 5 6 7 12 13 rings

> <PUBCHEM_HEAVY_ATOM_COUNT>
14

> <PUBCHEM_ATOM_DEF_STEREO_COUNT>
0

> <PUBCHEM_ATOM_UDEF_STEREO_COUNT>
0

> <PUBCHEM_BOND_DEF_STEREO_COUNT>
0

> <PUBCHEM_BOND_UDEF_STEREO_COUNT>
0

> <PUBCHEM_ISOTOPIC_ATOM_COUNT>
0

> <PUBCHEM_COMPONENT_COUNT>
1

> <PUBCHEM_CACTVS_TAUTO_COUNT>
1

> <PUBCHEM_CONFORMER_ID>
0001E11200000001

> <PUBCHEM_MMFF94_ENERGY>
36.9201

> <PUBCHEM_FEATURE_SELFOVERLAP>
60.988

> <PUBCHEM_SHAPE_FINGERPRINT>
10702982 57 17910124507617534865
10863032 1 18340499970230155252
10948715 1 18116437127077751205
12423570 1 11929565852751730925
12491281 212 18195556789890647144
13024252 1 15285357319028423680
144361 1 18044943621106447128
15557651 10 17981565425845171033
15775835 57 17603304851456976053
16945 1 18260829271771578374
23419403 2 16469739355888622391
241688 4 17909276779899496866
2748010 2 18339371849825233718
369184 2 17748819735188900744
5084963 1 18059017168089157416
528886 8 18342186535268051028

> <PUBCHEM_SHAPE_MULTIPOLES>
288.11
2.81
1.52
1.52
0
0
0
0
0
0
0
0
0
0

> <PUBCHEM_SHAPE_SELFOVERLAP>
660.9

> <PUBCHEM_SHAPE_VOLUME>
137.8

> <PUBCHEM_COORDINATE_TYPE>
2
5
10

$$$$
