145571
  -OEChem-11012400463D

 40 39  0     0  0  0  0  0  0999 V2000
    1.4212    0.9448   -0.8091 O   0  0  0  0  0  0  0  0  0  0  0  0
   -0.9432    1.2615    0.5092 O   0  0  0  0  0  0  0  0  0  0  0  0
    0.9092   -0.2076   -0.1051 C   0  0  0  0  0  0  0  0  0  0  0  0
   -0.6723   -0.0539   -0.0267 C   0  0  0  0  0  0  0  0  0  0  0  0
    1.5915   -0.1944    1.2969 C   0  0  0  0  0  0  0  0  0  0  0  0
    1.3890   -1.4404   -0.9234 C   0  0  0  0  0  0  0  0  0  0  0  0
   -1.4027   -0.0607   -1.3979 C   0  0  0  0  0  0  0  0  0  0  0  0
   -1.3198   -1.0548    0.9762 C   0  0  0  0  0  0  0  0  0  0  0  0
    1.2047    0.9716    2.2068 C   0  0  0  0  0  0  0  0  0  0  0  0
    1.1029   -2.8127   -0.3200 C   0  0  0  0  0  0  0  0  0  0  0  0
   -2.8755    0.3088   -1.4184 C   0  0  0  0  0  0  0  0  0  0  0  0
   -2.7887   -0.7906    1.3027 C   0  0  0  0  0  0  0  0  0  0  0  0
    2.8260    0.8663   -0.9389 C   0  0  0  0  0  0  0  0  0  0  0  0
   -0.4423    2.2621   -0.3524 C   0  0  0  0  0  0  0  0  0  0  0  0
    2.6778   -0.2948    1.2790 H   0  0  0  0  0  0  0  0  0  0  0  0
    1.2937   -1.0954    1.8449 H   0  0  0  0  0  0  0  0  0  0  0  0
    1.0134   -1.3942   -1.9523 H   0  0  0  0  0  0  0  0  0  0  0  0
    2.4787   -1.4528   -1.0148 H   0  0  0  0  0  0  0  0  0  0  0  0
   -1.3477   -1.0917   -1.7774 H   0  0  0  0  0  0  0  0  0  0  0  0
   -0.8763    0.4948   -2.1785 H   0  0  0  0  0  0  0  0  0  0  0  0
   -1.2475   -2.0824    0.6222 H   0  0  0  0  0  0  0  0  0  0  0  0
   -0.8045   -1.0132    1.9388 H   0  0  0  0  0  0  0  0  0  0  0  0
    0.1616    0.9598    2.5258 H   0  0  0  0  0  0  0  0  0  0  0  0
    1.4611    1.9368    1.7671 H   0  0  0  0  0  0  0  0  0  0  0  0
    1.7910    0.8958    3.1312 H   0  0  0  0  0  0  0  0  0  0  0  0
    1.7281   -3.5628   -0.8194 H   0  0  0  0  0  0  0  0  0  0  0  0
    0.0720   -3.1193   -0.5060 H   0  0  0  0  0  0  0  0  0  0  0  0
    1.3198   -2.8797    0.7469 H   0  0  0  0  0  0  0  0  0  0  0  0
   -3.5231   -0.5553   -1.2624 H   0  0  0  0  0  0  0  0  0  0  0  0
   -3.1301    0.6699   -2.4228 H   0  0  0  0  0  0  0  0  0  0  0  0
   -3.1370    1.1151   -0.7297 H   0  0  0  0  0  0  0  0  0  0  0  0
   -3.4620   -1.2788    0.5978 H   0  0  0  0  0  0  0  0  0  0  0  0
   -3.0319    0.2697    1.4013 H   0  0  0  0  0  0  0  0  0  0  0  0
   -3.0184   -1.2508    2.2722 H   0  0  0  0  0  0  0  0  0  0  0  0
    3.1442    0.2034   -1.7481 H   0  0  0  0  0  0  0  0  0  0  0  0
    3.4214    0.7422   -0.0376 H   0  0  0  0  0  0  0  0  0  0  0  0
    3.1272    1.8581   -1.3017 H   0  0  0  0  0  0  0  0  0  0  0  0
    0.4574    2.7343    0.0539 H   0  0  0  0  0  0  0  0  0  0  0  0
   -1.1782    3.0748   -0.2745 H   0  0  0  0  0  0  0  0  0  0  0  0
   -0.3759    2.1107   -1.4288 H   0  0  0  0  0  0  0  0  0  0  0  0
  1  3  1  0  0  0  0
  1 13  1  0  0  0  0
  2  4  1  0  0  0  0
  2 14  1  0  0  0  0
  3  4  1  0  0  0  0
  3  5  1  0  0  0  0
  3  6  1  0  0  0  0
  4  7  1  0  0  0  0
  4  8  1  0  0  0  0
  5  9  1  0  0  0  0
  5 15  1  0  0  0  0
  5 16  1  0  0  0  0
  6 10  1  0  0  0  0
  6 17  1  0  0  0  0
  6 18  1  0  0  0  0
  7 11  1  0  0  0  0
  7 19  1  0  0  0  0
  7 20  1  0  0  0  0
  8 12  1  0  0  0  0
  8 21  1  0  0  0  0
  8 22  1  0  0  0  0
  9 23  1  0  0  0  0
  9 24  1  0  0  0  0
  9 25  1  0  0  0  0
 10 26  1  0  0  0  0
 10 27  1  0  0  0  0
 10 28  1  0  0  0  0
 11 29  1  0  0  0  0
 11 30  1  0  0  0  0
 11 31  1  0  0  0  0
 12 32  1  0  0  0  0
 12 33  1  0  0  0  0
 12 34  1  0  0  0  0
 13 35  1  0  0  0  0
 13 36  1  0  0  0  0
 13 37  1  0  0  0  0
 14 38  1  0  0  0  0
 14 39  1  0  0  0  0
 14 40  1  0  0  0  0
M  END
> <PUBCHEM_COMPOUND_CID>
145571

> <PUBCHEM_CONFORMER_RMSD>
0.8

> <PUBCHEM_CONFORMER_DIVERSEORDER>
1
4
5
3
2
6

> <PUBCHEM_MMFF94_PARTIAL_CHARGES>
6
1 -0.56
13 0.28
14 0.28
2 -0.56
3 0.28
4 0.28

> <PUBCHEM_EFFECTIVE_ROTOR_COUNT>
7

> <PUBCHEM_PHARMACOPHORE_FEATURES>
6
1 1 acceptor
1 10 hydrophobe
1 11 hydrophobe
1 12 hydrophobe
1 2 acceptor
1 9 hydrophobe

> <PUBCHEM_HEAVY_ATOM_COUNT>
14

> <PUBCHEM_ATOM_DEF_STEREO_COUNT>
0

> <PUBCHEM_ATOM_UDEF_STEREO_COUNT>
0

> <PUBCHEM_BOND_DEF_STEREO_COUNT>
0

> <PUBCHEM_BOND_UDEF_STEREO_COUNT>
0

> <PUBCHEM_ISOTOPIC_ATOM_COUNT>
0

> <PUBCHEM_COMPONENT_COUNT>
1

> <PUBCHEM_CACTVS_TAUTO_COUNT>
1

> <PUBCHEM_CONFORMER_ID>
000238A300000001

> <PUBCHEM_MMFF94_ENERGY>
93.9655

> <PUBCHEM_FEATURE_SELFOVERLAP>
30.456

> <PUBCHEM_SHAPE_FINGERPRINT>
12423570 1 12993212292088383056
13024252 1 15215553900148137628
13380535 239 18041863734439498446
14817 1 14318553759617500562
15557651 10 17845950605271566976
15852999 172 18118092892968399243
16945 1 18272661155221632196
20082192 1 17749671783575226285
20511035 2 17769379313969474008
22344851 12 12371014454181651120
22802520 49 18193006914961689159
23419403 2 17040856112487985806
23493267 7 17894628162444589916
241688 4 17471838217561215950
2748010 2 18335430118014672430
5084963 1 17835800790129240597
528886 8 18195829546104579504
54276843 12 17700726057144706293

> <PUBCHEM_SHAPE_MULTIPOLES>
276.37
3.47
2.13
1.78
1.17
0.7
0.62
-0.02
-0.51
-0.69
-0.23
0.1
-0.23
0.54

> <PUBCHEM_SHAPE_SELFOVERLAP>
522.909

> <PUBCHEM_SHAPE_VOLUME>
172

> <PUBCHEM_COORDINATE_TYPE>
2
5
10

$$$$
