7213
  -OEChem-11012401193D

 16 16  0     0  0  0  0  0  0999 V2000
    1.2826    1.8283    0.0000 O   0  0  0  0  0  0  0  0  0  0  0  0
   -3.2522    0.3666    0.0002 O   0  0  0  0  0  0  0  0  0  0  0  0
    3.1105   -0.0016    0.0002 O   0  0  0  0  0  0  0  0  0  0  0  0
    0.8024   -0.5217   -0.0006 C   0  0  0  0  0  0  0  0  0  0  0  0
    0.3796    0.8076   -0.0004 C   0  0  0  0  0  0  0  0  0  0  0  0
   -0.1375   -1.5524   -0.0004 C   0  0  0  0  0  0  0  0  0  0  0  0
   -0.9828    1.1062    0.0000 C   0  0  0  0  0  0  0  0  0  0  0  0
   -1.9227    0.0755    0.0002 C   0  0  0  0  0  0  0  0  0  0  0  0
   -1.5001   -1.2538    0.0001 C   0  0  0  0  0  0  0  0  0  0  0  0
    2.2203   -0.8547    0.0006 C   0  0  0  0  0  0  0  0  0  0  0  0
    0.1747   -2.5936   -0.0002 H   0  0  0  0  0  0  0  0  0  0  0  0
   -1.3061    2.1443    0.0002 H   0  0  0  0  0  0  0  0  0  0  0  0
   -2.2276   -2.0609    0.0003 H   0  0  0  0  0  0  0  0  0  0  0  0
    2.4781   -1.9274    0.0013 H   0  0  0  0  0  0  0  0  0  0  0  0
    2.1921    1.4956   -0.0050 H   0  0  0  0  0  0  0  0  0  0  0  0
   -3.3634    1.3329    0.0002 H   0  0  0  0  0  0  0  0  0  0  0  0
  1  5  1  0  0  0  0
  1 15  1  0  0  0  0
  2  8  1  0  0  0  0
  2 16  1  0  0  0  0
  3 10  2  0  0  0  0
  4  5  2  0  0  0  0
  4  6  1  0  0  0  0
  4 10  1  0  0  0  0
  5  7  1  0  0  0  0
  6  9  2  0  0  0  0
  6 11  1  0  0  0  0
  7  8  2  0  0  0  0
  7 12  1  0  0  0  0
  8  9  1  0  0  0  0
  9 13  1  0  0  0  0
 10 14  1  0  0  0  0
M  END
> <PUBCHEM_COMPOUND_CID>
7213

> <PUBCHEM_CONFORMER_RMSD>
0.4

> <PUBCHEM_CONFORMER_DIVERSEORDER>
1
2

> <PUBCHEM_MMFF94_PARTIAL_CHARGES>
16
1 -0.53
10 0.42
11 0.15
12 0.15
13 0.15
14 0.06
15 0.45
16 0.45
2 -0.53
3 -0.57
4 0.09
5 0.08
6 -0.15
7 -0.15
8 0.08
9 -0.15

> <PUBCHEM_EFFECTIVE_ROTOR_COUNT>
1

> <PUBCHEM_PHARMACOPHORE_FEATURES>
4
1 1 donor
1 2 donor
1 3 acceptor
6 4 5 6 7 8 9 rings

> <PUBCHEM_HEAVY_ATOM_COUNT>
10

> <PUBCHEM_ATOM_DEF_STEREO_COUNT>
0

> <PUBCHEM_ATOM_UDEF_STEREO_COUNT>
0

> <PUBCHEM_BOND_DEF_STEREO_COUNT>
0

> <PUBCHEM_BOND_UDEF_STEREO_COUNT>
0

> <PUBCHEM_ISOTOPIC_ATOM_COUNT>
0

> <PUBCHEM_COMPONENT_COUNT>
1

> <PUBCHEM_CACTVS_TAUTO_COUNT>
12

> <PUBCHEM_CONFORMER_ID>
00001C2D00000001

> <PUBCHEM_MMFF94_ENERGY>
25.2765

> <PUBCHEM_FEATURE_SELFOVERLAP>
20.297

> <PUBCHEM_SHAPE_FINGERPRINT>
14325111 11 18410855430084489731
15310529 11 16732977592106694378
16945 1 18410573968029721159
193761 8 17906453581889663911
21040471 1 18194401314881007265
23235685 24 18412539882045961627
23402655 69 18123450698021354485
23552423 10 18116994592457830910
241688 4 17691695488867458418
2748010 2 18194119839867360463
29004967 10 18336552629023623786
369184 2 16443064984766006866
5084963 1 18201997733385249483
528886 8 18411414003492753251

> <PUBCHEM_SHAPE_MULTIPOLES>
188.19
3.68
1.6
0.59
0.13
0.13
0
0.07
0
0.12
0
-0.01
-0.02
0

> <PUBCHEM_SHAPE_SELFOVERLAP>
398.236

> <PUBCHEM_SHAPE_VOLUME>
105.1

> <PUBCHEM_COORDINATE_TYPE>
2
5
10

$$$$
