37153
  -OEChem-11012400563D

 34 33  0     0  0  0  0  0  0999 V2000
   -6.8590   -0.3322   -0.0747 O   0  0  0  0  0  0  0  0  0  0  0  0
    6.8991    0.3114   -0.0713 O   0  0  0  0  0  0  0  0  0  0  0  0
   -0.6445    0.4380    0.0448 C   0  0  0  0  0  0  0  0  0  0  0  0
    0.6037   -0.4474    0.0560 C   0  0  0  0  0  0  0  0  0  0  0  0
   -1.9225   -0.4024    0.0562 C   0  0  0  0  0  0  0  0  0  0  0  0
    1.8803    0.3957    0.0773 C   0  0  0  0  0  0  0  0  0  0  0  0
   -3.1705    0.4816    0.0116 C   0  0  0  0  0  0  0  0  0  0  0  0
    3.1626   -0.4384   -0.0004 C   0  0  0  0  0  0  0  0  0  0  0  0
   -4.4481   -0.3625   -0.0173 C   0  0  0  0  0  0  0  0  0  0  0  0
    4.4721    0.3581   -0.0348 C   0  0  0  0  0  0  0  0  0  0  0  0
   -5.7066    0.4967   -0.0286 C   0  0  0  0  0  0  0  0  0  0  0  0
    5.7336   -0.4985   -0.0190 C   0  0  0  0  0  0  0  0  0  0  0  0
   -0.6342    1.1005    0.9188 H   0  0  0  0  0  0  0  0  0  0  0  0
   -0.6319    1.0775   -0.8462 H   0  0  0  0  0  0  0  0  0  0  0  0
    0.5865   -1.1053    0.9331 H   0  0  0  0  0  0  0  0  0  0  0  0
    0.6033   -1.0912   -0.8318 H   0  0  0  0  0  0  0  0  0  0  0  0
   -1.9227   -1.0796   -0.8066 H   0  0  0  0  0  0  0  0  0  0  0  0
   -1.9454   -1.0269    0.9575 H   0  0  0  0  0  0  0  0  0  0  0  0
    1.8656    1.0956   -0.7673 H   0  0  0  0  0  0  0  0  0  0  0  0
    1.9016    1.0028    0.9906 H   0  0  0  0  0  0  0  0  0  0  0  0
   -3.1851    1.1408    0.8879 H   0  0  0  0  0  0  0  0  0  0  0  0
   -3.1379    1.1236   -0.8769 H   0  0  0  0  0  0  0  0  0  0  0  0
    3.1878   -1.1179    0.8611 H   0  0  0  0  0  0  0  0  0  0  0  0
    3.1196   -1.0737   -0.8941 H   0  0  0  0  0  0  0  0  0  0  0  0
   -4.4783   -1.0326    0.8510 H   0  0  0  0  0  0  0  0  0  0  0  0
   -4.4485   -1.0161   -0.8987 H   0  0  0  0  0  0  0  0  0  0  0  0
    4.5038    1.0461    0.8196 H   0  0  0  0  0  0  0  0  0  0  0  0
    4.4832    0.9997   -0.9249 H   0  0  0  0  0  0  0  0  0  0  0  0
   -5.7179    1.1524   -0.9052 H   0  0  0  0  0  0  0  0  0  0  0  0
   -5.7601    1.1143    0.8738 H   0  0  0  0  0  0  0  0  0  0  0  0
    5.7796   -1.0966    0.8964 H   0  0  0  0  0  0  0  0  0  0  0  0
    5.7516   -1.1837   -0.8727 H   0  0  0  0  0  0  0  0  0  0  0  0
   -7.6335    0.2557   -0.0804 H   0  0  0  0  0  0  0  0  0  0  0  0
    6.8544    0.8359   -0.8889 H   0  0  0  0  0  0  0  0  0  0  0  0
  1 11  1  0  0  0  0
  1 33  1  0  0  0  0
  2 12  1  0  0  0  0
  2 34  1  0  0  0  0
  3  4  1  0  0  0  0
  3  5  1  0  0  0  0
  3 13  1  0  0  0  0
  3 14  1  0  0  0  0
  4  6  1  0  0  0  0
  4 15  1  0  0  0  0
  4 16  1  0  0  0  0
  5  7  1  0  0  0  0
  5 17  1  0  0  0  0
  5 18  1  0  0  0  0
  6  8  1  0  0  0  0
  6 19  1  0  0  0  0
  6 20  1  0  0  0  0
  7  9  1  0  0  0  0
  7 21  1  0  0  0  0
  7 22  1  0  0  0  0
  8 10  1  0  0  0  0
  8 23  1  0  0  0  0
  8 24  1  0  0  0  0
  9 11  1  0  0  0  0
  9 25  1  0  0  0  0
  9 26  1  0  0  0  0
 10 12  1  0  0  0  0
 10 27  1  0  0  0  0
 10 28  1  0  0  0  0
 11 29  1  0  0  0  0
 11 30  1  0  0  0  0
 12 31  1  0  0  0  0
 12 32  1  0  0  0  0
M  END
> <PUBCHEM_COMPOUND_CID>
37153

> <PUBCHEM_CONFORMER_RMSD>
0.8

> <PUBCHEM_CONFORMER_DIVERSEORDER>
1
102
55
18
161
68
228
129
174
87
2
134
23
249
45
6
41
166
227
52
94
115
92
117
250
85
10
15
21
170
79
105
26
208
139
116
38
219
247
157
35
218
24
29
37
243
16
106
104
248
234
132
143
3
186
43
109
204
101
142
122
73
48
30
89
224
13
56
241
206
28
40
25
201
49
93
123
171
147
36
198
120
27
245
233
191
172
188
65
195
152
19
63
244
128
86
158
221
194
4
136
237
181
5
144
96
124
180
200
113
140
210
95
32
225
223
8
42
184
66
57
97
22
53
145
159
31
175
203
226
246
193
183
235
14
107
169
148
133
60
205
213
34
103
215
197
99
44
149
111
71
82
163
202
214
7
12
20
130
91
211
146
119
126
58
190
199
78
150
98
70
141
179
217
75
220
39
187
76
192
46
118
209
212
51
77
167
196
185
178
61
33
47
239
83
108
238
112
165
59
151
230
137
9
110
160
168
72
232
236
229
50
114
173
162
127
189
17
135
207
74
90
67
216
80
177
62
11
131
64
125
84
176
240
88
154
242
121
153
182
81
138
231
100
54
156
222
155
164
69

> <PUBCHEM_MMFF94_PARTIAL_CHARGES>
6
1 -0.68
11 0.28
12 0.28
2 -0.68
33 0.4
34 0.4

> <PUBCHEM_EFFECTIVE_ROTOR_COUNT>
9

> <PUBCHEM_PHARMACOPHORE_FEATURES>
4
1 1 acceptor
1 1 donor
1 2 acceptor
1 2 donor

> <PUBCHEM_HEAVY_ATOM_COUNT>
12

> <PUBCHEM_ATOM_DEF_STEREO_COUNT>
0

> <PUBCHEM_ATOM_UDEF_STEREO_COUNT>
0

> <PUBCHEM_BOND_DEF_STEREO_COUNT>
0

> <PUBCHEM_BOND_UDEF_STEREO_COUNT>
0

> <PUBCHEM_ISOTOPIC_ATOM_COUNT>
0

> <PUBCHEM_COMPONENT_COUNT>
1

> <PUBCHEM_CACTVS_TAUTO_COUNT>
1

> <PUBCHEM_CONFORMER_ID>
0000912100000001

> <PUBCHEM_MMFF94_ENERGY>
1.0076

> <PUBCHEM_FEATURE_SELFOVERLAP>
20.298

> <PUBCHEM_SHAPE_FINGERPRINT>
12091667 2 18407760335813805225
13533116 47 16878213183137994328
14123238 8 18410855451538227208
1420 363 18413111658020162563
14251718 22 18410855451543501963
14251764 46 18410292510180021739
17834076 25 18410011035203317575
187816 3 16370445548897507433
20645477 70 18199752449443777502
20767249 213 18334295379102077132
23402539 116 18201715167734746181
23521765 1 18341894090834051077
33684 2 18410572881344869067
42788 4 18410855460413102345
8209 1 18409730660160227900

> <PUBCHEM_SHAPE_MULTIPOLES>
235.22
18.18
0.78
0.6
0.7
0
0
-0.04
-0.67
-0.02
0
0
0
-0.01

> <PUBCHEM_SHAPE_SELFOVERLAP>
415.966

> <PUBCHEM_SHAPE_VOLUME>
153.5

> <PUBCHEM_COORDINATE_TYPE>
2
5
10

$$$$
