92764
  -OEChem-11012401043D

 34 38  0     0  0  0  0  0  0999 V2000
    0.0004   -0.0001   -1.3154 C   0  0  0  0  0  0  0  0  0  0  0  0
    0.0005    0.0000    1.3153 C   0  0  0  0  0  0  0  0  0  0  0  0
    1.4154   -0.0235   -0.7153 C   0  0  0  0  0  0  0  0  0  0  0  0
   -0.7273   -1.2137   -0.7153 C   0  0  0  0  0  0  0  0  0  0  0  0
   -0.7273   -1.2136    0.7153 C   0  0  0  0  0  0  0  0  0  0  0  0
   -0.6867    1.2371   -0.7153 C   0  0  0  0  0  0  0  0  0  0  0  0
    1.4154   -0.0235    0.7153 C   0  0  0  0  0  0  0  0  0  0  0  0
   -0.6866    1.2371    0.7153 C   0  0  0  0  0  0  0  0  0  0  0  0
    2.6058   -0.0434   -1.4234 C   0  0  0  0  0  0  0  0  0  0  0  0
   -1.3405   -2.2341    1.4234 C   0  0  0  0  0  0  0  0  0  0  0  0
   -1.3406   -2.2342   -1.4234 C   0  0  0  0  0  0  0  0  0  0  0  0
    2.6058   -0.0432    1.4234 C   0  0  0  0  0  0  0  0  0  0  0  0
   -1.2655    2.2774    1.4234 C   0  0  0  0  0  0  0  0  0  0  0  0
   -1.2655    2.2774   -1.4234 C   0  0  0  0  0  0  0  0  0  0  0  0
    3.8025   -0.0632   -0.7030 C   0  0  0  0  0  0  0  0  0  0  0  0
    3.8024   -0.0630    0.7031 C   0  0  0  0  0  0  0  0  0  0  0  0
   -1.9567   -3.2602   -0.7030 C   0  0  0  0  0  0  0  0  0  0  0  0
   -1.8473    3.3233    0.7030 C   0  0  0  0  0  0  0  0  0  0  0  0
   -1.9568   -3.2601    0.7032 C   0  0  0  0  0  0  0  0  0  0  0  0
   -1.8473    3.3234   -0.7031 C   0  0  0  0  0  0  0  0  0  0  0  0
    0.0004    0.0000   -2.4092 H   0  0  0  0  0  0  0  0  0  0  0  0
    0.0006    0.0000    2.4092 H   0  0  0  0  0  0  0  0  0  0  0  0
    2.6160   -0.0437   -2.5079 H   0  0  0  0  0  0  0  0  0  0  0  0
   -1.3460   -2.2427    2.5079 H   0  0  0  0  0  0  0  0  0  0  0  0
    2.6160   -0.0433    2.5078 H   0  0  0  0  0  0  0  0  0  0  0  0
   -1.2707    2.2862    2.5079 H   0  0  0  0  0  0  0  0  0  0  0  0
   -1.3460   -2.2428   -2.5080 H   0  0  0  0  0  0  0  0  0  0  0  0
   -1.2707    2.2862   -2.5079 H   0  0  0  0  0  0  0  0  0  0  0  0
    4.7496   -0.0790   -1.2363 H   0  0  0  0  0  0  0  0  0  0  0  0
    4.7495   -0.0787    1.2364 H   0  0  0  0  0  0  0  0  0  0  0  0
   -2.3079    4.1510    1.2363 H   0  0  0  0  0  0  0  0  0  0  0  0
   -2.4445   -4.0722   -1.2361 H   0  0  0  0  0  0  0  0  0  0  0  0
   -2.4447   -4.0721    1.2364 H   0  0  0  0  0  0  0  0  0  0  0  0
   -2.3079    4.1511   -1.2363 H   0  0  0  0  0  0  0  0  0  0  0  0
  1  3  1  0  0  0  0
  1  4  1  0  0  0  0
  1  6  1  0  0  0  0
  1 21  1  0  0  0  0
  2  5  1  0  0  0  0
  2  7  1  0  0  0  0
  2  8  1  0  0  0  0
  2 22  1  0  0  0  0
  3  7  1  0  0  0  0
  3  9  2  0  0  0  0
  4  5  1  0  0  0  0
  4 11  2  0  0  0  0
  5 10  2  0  0  0  0
  6  8  1  0  0  0  0
  6 14  2  0  0  0  0
  7 12  2  0  0  0  0
  8 13  2  0  0  0  0
  9 15  1  0  0  0  0
  9 23  1  0  0  0  0
 10 19  1  0  0  0  0
 10 24  1  0  0  0  0
 11 17  1  0  0  0  0
 11 27  1  0  0  0  0
 12 16  1  0  0  0  0
 12 25  1  0  0  0  0
 13 18  1  0  0  0  0
 13 26  1  0  0  0  0
 14 20  1  0  0  0  0
 14 28  1  0  0  0  0
 15 16  2  0  0  0  0
 15 29  1  0  0  0  0
 16 30  1  0  0  0  0
 17 19  2  0  0  0  0
 17 32  1  0  0  0  0
 18 20  2  0  0  0  0
 18 31  1  0  0  0  0
 19 33  1  0  0  0  0
 20 34  1  0  0  0  0
M  END
> <PUBCHEM_COMPOUND_CID>
92764

> <PUBCHEM_CONFORMER_RMSD>
0.6

> <PUBCHEM_CONFORMER_DIVERSEORDER>
1

> <PUBCHEM_MMFF94_PARTIAL_CHARGES>
32
1 0.43
10 -0.15
11 -0.15
12 -0.15
13 -0.15
14 -0.15
15 -0.15
16 -0.15
17 -0.15
18 -0.15
19 -0.15
2 0.43
20 -0.15
23 0.15
24 0.15
25 0.15
26 0.15
27 0.15
28 0.15
29 0.15
3 -0.14
30 0.15
31 0.15
32 0.15
33 0.15
34 0.15
4 -0.14
5 -0.14
6 -0.14
7 -0.14
8 -0.14
9 -0.15

> <PUBCHEM_EFFECTIVE_ROTOR_COUNT>
0

> <PUBCHEM_PHARMACOPHORE_FEATURES>
4
6 3 7 9 12 15 16 rings
6 4 5 10 11 17 19 rings
6 6 8 13 14 18 20 rings
8 1 2 3 4 5 6 7 8 rings

> <PUBCHEM_HEAVY_ATOM_COUNT>
20

> <PUBCHEM_ATOM_DEF_STEREO_COUNT>
0

> <PUBCHEM_ATOM_UDEF_STEREO_COUNT>
0

> <PUBCHEM_BOND_DEF_STEREO_COUNT>
0

> <PUBCHEM_BOND_UDEF_STEREO_COUNT>
0

> <PUBCHEM_ISOTOPIC_ATOM_COUNT>
0

> <PUBCHEM_COMPONENT_COUNT>
1

> <PUBCHEM_CACTVS_TAUTO_COUNT>
1

> <PUBCHEM_CONFORMER_ID>
00016A5C00000001

> <PUBCHEM_MMFF94_ENERGY>
86.1712

> <PUBCHEM_FEATURE_SELFOVERLAP>
20.332

> <PUBCHEM_SHAPE_FINGERPRINT>
10165383 225 17333425191450801884
11101153 10 15745868694394860318
11578080 2 17773031088622970937
121448 382 18127391381142145541
12326174 3 17257088697394044122
12423570 1 15672766942281951149
12643181 29 17980770338513761158
12788726 201 18335695070168006930
13004483 165 18338800146971582434
13134695 92 17834946856188910471
13140716 1 18266741466053214499
133893 2 17184180644192333085
13681431 1 17762337319950534975
14181834 199 17191779892905988975
14617773 55 17822294621432481018
14817 1 18340786882624880829
14955137 171 17046001165560161224
15906896 17 18334296426836869971
16945 1 18410573980888132357
1813 80 17910409599120466606
19765921 60 17698427841519668392
20361792 2 18051414264411561078
20600515 1 17681812331364916928
21304303 282 17831533727288465148
21330990 113 18059867151086940975
21524375 3 18050000000368498048
21731228 192 18047194051063266608
22112679 90 17976856337807765504
22907989 373 18341341054050511908
23419403 2 17699544138201065769
23557571 272 18267854155242235968
25 1 17484249556682641776
35225 105 18410855417178502666
3729539 64 17040387626288717678
404807 78 17823395181955502909
576247 118 18122902298493614438
6442390 28 18126865797678512825
6786 2 17836679355601161320
7364860 26 17187569880126355203
81228 2 18410856585409593450
84936 31 10197836726995171902
9981440 41 17200474548081476034

> <PUBCHEM_SHAPE_MULTIPOLES>
411.59
4.11
4.1
1.7
5.65
0.4
0
-0.4
0
-5.65
0
0
0
0

> <PUBCHEM_SHAPE_SELFOVERLAP>
953.514

> <PUBCHEM_SHAPE_VOLUME>
190.3

> <PUBCHEM_COORDINATE_TYPE>
2
5
10

$$$$
