74056
  -OEChem-10312420182D

 69 72  0     0  0  0  0  0  0999 V2000
    5.0000    0.0000    0.0000 Sn  0  0  0  0  0  0  0  0  0  0  0  0
    5.0000   -1.0000    0.0000 C   0  0  0  0  0  0  0  0  0  0  0  0
    5.0000    1.0000    0.0000 C   0  0  0  0  0  0  0  0  0  0  0  0
    6.0000    0.0000    0.0000 C   0  0  0  0  0  0  0  0  0  0  0  0
    4.0000    0.0000    0.0000 C   0  0  0  0  0  0  0  0  0  0  0  0
    4.1340   -1.5000    0.0000 C   0  0  0  0  0  0  0  0  0  0  0  0
    5.8660   -1.5000    0.0000 C   0  0  0  0  0  0  0  0  0  0  0  0
    5.8660    1.5000    0.0000 C   0  0  0  0  0  0  0  0  0  0  0  0
    4.1340    1.5000    0.0000 C   0  0  0  0  0  0  0  0  0  0  0  0
    6.5000   -0.8660    0.0000 C   0  0  0  0  0  0  0  0  0  0  0  0
    6.5000    0.8660    0.0000 C   0  0  0  0  0  0  0  0  0  0  0  0
    3.5000    0.8660    0.0000 C   0  0  0  0  0  0  0  0  0  0  0  0
    3.5000   -0.8660    0.0000 C   0  0  0  0  0  0  0  0  0  0  0  0
    4.1340   -2.5000    0.0000 C   0  0  0  0  0  0  0  0  0  0  0  0
    5.8660   -2.5000    0.0000 C   0  0  0  0  0  0  0  0  0  0  0  0
    5.8660    2.5000    0.0000 C   0  0  0  0  0  0  0  0  0  0  0  0
    4.1340    2.5000    0.0000 C   0  0  0  0  0  0  0  0  0  0  0  0
    7.5000   -0.8660    0.0000 C   0  0  0  0  0  0  0  0  0  0  0  0
    7.5000    0.8660    0.0000 C   0  0  0  0  0  0  0  0  0  0  0  0
    2.5000    0.8660    0.0000 C   0  0  0  0  0  0  0  0  0  0  0  0
    2.5000   -0.8660    0.0000 C   0  0  0  0  0  0  0  0  0  0  0  0
    5.0000   -3.0000    0.0000 C   0  0  0  0  0  0  0  0  0  0  0  0
    5.0000    3.0000    0.0000 C   0  0  0  0  0  0  0  0  0  0  0  0
    8.0000    0.0000    0.0000 C   0  0  0  0  0  0  0  0  0  0  0  0
    2.0000    0.0000    0.0000 C   0  0  0  0  0  0  0  0  0  0  0  0
    5.5369   -0.6900    0.0000 H   0  0  0  0  0  0  0  0  0  0  0  0
    5.5369    0.6900    0.0000 H   0  0  0  0  0  0  0  0  0  0  0  0
    5.6900   -0.5369    0.0000 H   0  0  0  0  0  0  0  0  0  0  0  0
    4.3100    0.5369    0.0000 H   0  0  0  0  0  0  0  0  0  0  0  0
    3.9219   -0.9174    0.0000 H   0  0  0  0  0  0  0  0  0  0  0  0
    3.5234   -1.6077    0.0000 H   0  0  0  0  0  0  0  0  0  0  0  0
    6.4766   -1.6077    0.0000 H   0  0  0  0  0  0  0  0  0  0  0  0
    6.0781   -0.9174    0.0000 H   0  0  0  0  0  0  0  0  0  0  0  0
    6.0781    0.9174    0.0000 H   0  0  0  0  0  0  0  0  0  0  0  0
    6.4766    1.6077    0.0000 H   0  0  0  0  0  0  0  0  0  0  0  0
    3.5234    1.6077    0.0000 H   0  0  0  0  0  0  0  0  0  0  0  0
    3.9219    0.9174    0.0000 H   0  0  0  0  0  0  0  0  0  0  0  0
    5.9174   -1.0781    0.0000 H   0  0  0  0  0  0  0  0  0  0  0  0
    6.6077   -1.4766    0.0000 H   0  0  0  0  0  0  0  0  0  0  0  0
    6.6077    1.4766    0.0000 H   0  0  0  0  0  0  0  0  0  0  0  0
    5.9174    1.0781    0.0000 H   0  0  0  0  0  0  0  0  0  0  0  0
    4.0826    1.0781    0.0000 H   0  0  0  0  0  0  0  0  0  0  0  0
    3.3923    1.4766    0.0000 H   0  0  0  0  0  0  0  0  0  0  0  0
    3.3923   -1.4766    0.0000 H   0  0  0  0  0  0  0  0  0  0  0  0
    4.0826   -1.0781    0.0000 H   0  0  0  0  0  0  0  0  0  0  0  0
    3.5234   -2.3923    0.0000 H   0  0  0  0  0  0  0  0  0  0  0  0
    3.9219   -3.0826    0.0000 H   0  0  0  0  0  0  0  0  0  0  0  0
    6.0781   -3.0826    0.0000 H   0  0  0  0  0  0  0  0  0  0  0  0
    6.4766   -2.3923    0.0000 H   0  0  0  0  0  0  0  0  0  0  0  0
    6.4766    2.3923    0.0000 H   0  0  0  0  0  0  0  0  0  0  0  0
    6.0781    3.0826    0.0000 H   0  0  0  0  0  0  0  0  0  0  0  0
    3.9219    3.0826    0.0000 H   0  0  0  0  0  0  0  0  0  0  0  0
    3.5234    2.3923    0.0000 H   0  0  0  0  0  0  0  0  0  0  0  0
    7.3923   -1.4766    0.0000 H   0  0  0  0  0  0  0  0  0  0  0  0
    8.0826   -1.0781    0.0000 H   0  0  0  0  0  0  0  0  0  0  0  0
    8.0826    1.0781    0.0000 H   0  0  0  0  0  0  0  0  0  0  0  0
    7.3923    1.4766    0.0000 H   0  0  0  0  0  0  0  0  0  0  0  0
    2.6077    1.4766    0.0000 H   0  0  0  0  0  0  0  0  0  0  0  0
    1.9174    1.0781    0.0000 H   0  0  0  0  0  0  0  0  0  0  0  0
    1.9174   -1.0781    0.0000 H   0  0  0  0  0  0  0  0  0  0  0  0
    2.6077   -1.4766    0.0000 H   0  0  0  0  0  0  0  0  0  0  0  0
    4.6015   -3.4750    0.0000 H   0  0  0  0  0  0  0  0  0  0  0  0
    5.3985   -3.4750    0.0000 H   0  0  0  0  0  0  0  0  0  0  0  0
    5.3985    3.4750    0.0000 H   0  0  0  0  0  0  0  0  0  0  0  0
    4.6015    3.4750    0.0000 H   0  0  0  0  0  0  0  0  0  0  0  0
    8.4750   -0.3985    0.0000 H   0  0  0  0  0  0  0  0  0  0  0  0
    8.4750    0.3985    0.0000 H   0  0  0  0  0  0  0  0  0  0  0  0
    1.5250    0.3985    0.0000 H   0  0  0  0  0  0  0  0  0  0  0  0
    1.5250   -0.3985    0.0000 H   0  0  0  0  0  0  0  0  0  0  0  0
  1  2  1  0  0  0  0
  1  3  1  0  0  0  0
  1  4  1  0  0  0  0
  1  5  1  0  0  0  0
  2  6  1  0  0  0  0
  2  7  1  0  0  0  0
  2 26  1  0  0  0  0
  3  8  1  0  0  0  0
  3  9  1  0  0  0  0
  3 27  1  0  0  0  0
  4 10  1  0  0  0  0
  4 11  1  0  0  0  0
  4 28  1  0  0  0  0
  5 12  1  0  0  0  0
  5 13  1  0  0  0  0
  5 29  1  0  0  0  0
  6 14  1  0  0  0  0
  6 30  1  0  0  0  0
  6 31  1  0  0  0  0
  7 15  1  0  0  0  0
  7 32  1  0  0  0  0
  7 33  1  0  0  0  0
  8 16  1  0  0  0  0
  8 34  1  0  0  0  0
  8 35  1  0  0  0  0
  9 17  1  0  0  0  0
  9 36  1  0  0  0  0
  9 37  1  0  0  0  0
 10 18  1  0  0  0  0
 10 38  1  0  0  0  0
 10 39  1  0  0  0  0
 11 19  1  0  0  0  0
 11 40  1  0  0  0  0
 11 41  1  0  0  0  0
 12 20  1  0  0  0  0
 12 42  1  0  0  0  0
 12 43  1  0  0  0  0
 13 21  1  0  0  0  0
 13 44  1  0  0  0  0
 13 45  1  0  0  0  0
 14 22  1  0  0  0  0
 14 46  1  0  0  0  0
 14 47  1  0  0  0  0
 15 22  1  0  0  0  0
 15 48  1  0  0  0  0
 15 49  1  0  0  0  0
 16 23  1  0  0  0  0
 16 50  1  0  0  0  0
 16 51  1  0  0  0  0
 17 23  1  0  0  0  0
 17 52  1  0  0  0  0
 17 53  1  0  0  0  0
 18 24  1  0  0  0  0
 18 54  1  0  0  0  0
 18 55  1  0  0  0  0
 19 24  1  0  0  0  0
 19 56  1  0  0  0  0
 19 57  1  0  0  0  0
 20 25  1  0  0  0  0
 20 58  1  0  0  0  0
 20 59  1  0  0  0  0
 21 25  1  0  0  0  0
 21 60  1  0  0  0  0
 21 61  1  0  0  0  0
 22 62  1  0  0  0  0
 22 63  1  0  0  0  0
 23 64  1  0  0  0  0
 23 65  1  0  0  0  0
 24 66  1  0  0  0  0
 24 67  1  0  0  0  0
 25 68  1  0  0  0  0
 25 69  1  0  0  0  0
M  END
> <PUBCHEM_COMPOUND_CID>
74056

> <PUBCHEM_COMPOUND_CANONICALIZED>
1

> <PUBCHEM_CACTVS_COMPLEXITY>
301

> <PUBCHEM_CACTVS_HBOND_ACCEPTOR>
0

> <PUBCHEM_CACTVS_HBOND_DONOR>
0

> <PUBCHEM_CACTVS_ROTATABLE_BOND>
4

> <PUBCHEM_CACTVS_SUBSKEYS>
AAADcfB4AAAAAAAAAACAAAAAAAAAAAAAAAAwYMGAAAAAAAAAAAAAGAAAAAAACACAAAAAAAAAAAAAAAAAAAAAAAAAAAAAAAAAAAAAAAIAAAAAAAAAAAAAAAEAAAAAAAAAAAAAAAAAAAAAAAAAAAAAAAAAAA==

> <PUBCHEM_IUPAC_OPENEYE_NAME>
tetracyclohexylstannane

> <PUBCHEM_IUPAC_CAS_NAME>
tetracyclohexylstannane

> <PUBCHEM_IUPAC_NAME_MARKUP>
tetracyclohexylstannane

> <PUBCHEM_IUPAC_NAME>
tetracyclohexylstannane

> <PUBCHEM_IUPAC_SYSTEMATIC_NAME>
tetracyclohexylstannane

> <PUBCHEM_IUPAC_TRADITIONAL_NAME>
tetracyclohexylstannane

> <PUBCHEM_IUPAC_INCHI>
InChI=1S/4C6H11.Sn/c4*1-2-4-6-5-3-1;/h4*1H,2-6H2;

> <PUBCHEM_IUPAC_INCHIKEY>
JUISPCSEIXBMNI-UHFFFAOYSA-N

> <PUBCHEM_EXACT_MASS>
452.246504

> <PUBCHEM_MOLECULAR_FORMULA>
C24H44Sn

> <PUBCHEM_MOLECULAR_WEIGHT>
451.3

> <PUBCHEM_OPENEYE_CAN_SMILES>
C1CCC(CC1)[Sn](C2CCCCC2)(C3CCCCC3)C4CCCCC4

> <PUBCHEM_OPENEYE_ISO_SMILES>
C1CCC(CC1)[Sn](C2CCCCC2)(C3CCCCC3)C4CCCCC4

> <PUBCHEM_CACTVS_TPSA>
0

> <PUBCHEM_MONOISOTOPIC_WEIGHT>
452.246504

> <PUBCHEM_TOTAL_CHARGE>
0

> <PUBCHEM_HEAVY_ATOM_COUNT>
25

> <PUBCHEM_ATOM_DEF_STEREO_COUNT>
0

> <PUBCHEM_ATOM_UDEF_STEREO_COUNT>
0

> <PUBCHEM_BOND_DEF_STEREO_COUNT>
0

> <PUBCHEM_BOND_UDEF_STEREO_COUNT>
0

> <PUBCHEM_ISOTOPIC_ATOM_COUNT>
0

> <PUBCHEM_COMPONENT_COUNT>
1

> <PUBCHEM_CACTVS_TAUTO_COUNT>
-1

> <PUBCHEM_COORDINATE_TYPE>
1
5
255

$$$$
