19083
  -OEChem-11012401273D

 25 24  0     0  0  0  0  0  0999 V2000
    1.3157    0.0969   -0.1450 O   0  0  0  0  0  0  0  0  0  0  0  0
    0.2473   -1.7457    0.6837 O   0  0  0  0  0  0  0  0  0  0  0  0
   -0.9828    0.1170    0.0315 N   0  0  0  0  0  0  0  0  0  0  0  0
   -0.9807    1.4705   -0.5149 C   0  0  0  0  0  0  0  0  0  0  0  0
   -2.2882   -0.4372    0.3606 C   0  0  0  0  0  0  0  0  0  0  0  0
    0.1994   -0.6048    0.2271 C   0  0  0  0  0  0  0  0  0  0  0  0
   -0.8745    2.5109    0.5808 C   0  0  0  0  0  0  0  0  0  0  0  0
   -2.8911   -1.1744   -0.8173 C   0  0  0  0  0  0  0  0  0  0  0  0
    2.5697   -0.5741    0.0257 C   0  0  0  0  0  0  0  0  0  0  0  0
    3.6851    0.3411   -0.4324 C   0  0  0  0  0  0  0  0  0  0  0  0
   -0.1433    1.5896   -1.2105 H   0  0  0  0  0  0  0  0  0  0  0  0
   -1.8963    1.6233   -1.0972 H   0  0  0  0  0  0  0  0  0  0  0  0
   -2.1686   -1.1402    1.1928 H   0  0  0  0  0  0  0  0  0  0  0  0
   -2.9522    0.3639    0.7021 H   0  0  0  0  0  0  0  0  0  0  0  0
   -1.7158    2.4418    1.2779 H   0  0  0  0  0  0  0  0  0  0  0  0
    0.0467    2.3842    1.1590 H   0  0  0  0  0  0  0  0  0  0  0  0
   -0.8711    3.5175    0.1512 H   0  0  0  0  0  0  0  0  0  0  0  0
   -3.0395   -0.5055   -1.6711 H   0  0  0  0  0  0  0  0  0  0  0  0
   -2.2412   -1.9924   -1.1457 H   0  0  0  0  0  0  0  0  0  0  0  0
   -3.8622   -1.5989   -0.5448 H   0  0  0  0  0  0  0  0  0  0  0  0
    2.7078   -0.8252    1.0833 H   0  0  0  0  0  0  0  0  0  0  0  0
    2.5759   -1.4927   -0.5713 H   0  0  0  0  0  0  0  0  0  0  0  0
    4.6597   -0.1408   -0.3154 H   0  0  0  0  0  0  0  0  0  0  0  0
    3.5502    0.6163   -1.4837 H   0  0  0  0  0  0  0  0  0  0  0  0
    3.6796    1.2728    0.1429 H   0  0  0  0  0  0  0  0  0  0  0  0
  1  6  1  0  0  0  0
  1  9  1  0  0  0  0
  2  6  2  0  0  0  0
  3  4  1  0  0  0  0
  3  5  1  0  0  0  0
  3  6  1  0  0  0  0
  4  7  1  0  0  0  0
  4 11  1  0  0  0  0
  4 12  1  0  0  0  0
  5  8  1  0  0  0  0
  5 13  1  0  0  0  0
  5 14  1  0  0  0  0
  7 15  1  0  0  0  0
  7 16  1  0  0  0  0
  7 17  1  0  0  0  0
  8 18  1  0  0  0  0
  8 19  1  0  0  0  0
  8 20  1  0  0  0  0
  9 10  1  0  0  0  0
  9 21  1  0  0  0  0
  9 22  1  0  0  0  0
 10 23  1  0  0  0  0
 10 24  1  0  0  0  0
 10 25  1  0  0  0  0
M  END
> <PUBCHEM_COMPOUND_CID>
19083

> <PUBCHEM_CONFORMER_RMSD>
0.6

> <PUBCHEM_CONFORMER_DIVERSEORDER>
1
16
5
15
6
8
7
2
13
14
17
18
20
3
19
4
11
12
9
10

> <PUBCHEM_MMFF94_PARTIAL_CHARGES>
7
1 -0.43
2 -0.57
3 -0.66
4 0.3
5 0.3
6 0.78
9 0.28

> <PUBCHEM_EFFECTIVE_ROTOR_COUNT>
5

> <PUBCHEM_PHARMACOPHORE_FEATURES>
1
1 2 acceptor

> <PUBCHEM_HEAVY_ATOM_COUNT>
10

> <PUBCHEM_ATOM_DEF_STEREO_COUNT>
0

> <PUBCHEM_ATOM_UDEF_STEREO_COUNT>
0

> <PUBCHEM_BOND_DEF_STEREO_COUNT>
0

> <PUBCHEM_BOND_UDEF_STEREO_COUNT>
0

> <PUBCHEM_ISOTOPIC_ATOM_COUNT>
0

> <PUBCHEM_COMPONENT_COUNT>
1

> <PUBCHEM_CACTVS_TAUTO_COUNT>
1

> <PUBCHEM_CONFORMER_ID>
00004A8B00000001

> <PUBCHEM_MMFF94_ENERGY>
5.8313

> <PUBCHEM_FEATURE_SELFOVERLAP>
5.074

> <PUBCHEM_SHAPE_FINGERPRINT>
12897270 3 18410568479008847447
12932764 1 17418083292164856958
14128692 85 18057037128484643311
14325111 11 18334859372991072686
21040471 1 17763457318656903809
21293036 1 18114739446822690527
228727 97 18334574637675254970
23402539 116 18411410731186564342
23552423 10 18044935675596765378
2748010 2 17831869318916168242
5084963 1 18342458123451553522

> <PUBCHEM_SHAPE_MULTIPOLES>
189.08
4.68
2.01
0.8
3.52
1.32
-0.04
-1.1
-1.08
-1.09
0.31
-0.19
-0.03
-0.38

> <PUBCHEM_SHAPE_SELFOVERLAP>
344.362

> <PUBCHEM_SHAPE_VOLUME>
121.6

> <PUBCHEM_COORDINATE_TYPE>
2
5
10

$$$$
