140036
  -OEChem-11012400423D

 35 36  0     1  0  0  0  0  0999 V2000
   -1.9596    1.1920   -0.7916 O   0  0  0  0  0  0  0  0  0  0  0  0
    0.2500    3.6446    0.7533 O   0  0  0  0  0  0  0  0  0  0  0  0
    1.3611    1.0025    0.3777 N   0  0  0  0  0  0  0  0  0  0  0  0
   -0.2341    2.7813   -0.2794 C   0  0  1  0  0  0  0  0  0  0  0  0
    0.9115    1.8617   -0.7091 C   0  0  0  0  0  0  0  0  0  0  0  0
   -1.4513    2.0240    0.2467 C   0  0  0  0  0  0  0  0  0  0  0  0
    2.3484    0.0516    0.2311 C   0  0  0  0  0  0  0  0  0  0  0  0
   -2.5655    0.0265   -0.4049 C   0  0  0  0  0  0  0  0  0  0  0  0
    2.9927   -0.1460   -1.0087 C   0  0  0  0  0  0  0  0  0  0  0  0
    2.7486   -0.7572    1.3160 C   0  0  0  0  0  0  0  0  0  0  0  0
    3.9912   -1.1086   -1.1571 C   0  0  0  0  0  0  0  0  0  0  0  0
    3.7472   -1.7197    1.1675 C   0  0  0  0  0  0  0  0  0  0  0  0
   -3.2164   -0.0378    0.8224 C   0  0  0  0  0  0  0  0  0  0  0  0
   -2.5239   -1.0826   -1.2431 C   0  0  0  0  0  0  0  0  0  0  0  0
    4.3684   -1.8954   -0.0691 C   0  0  0  0  0  0  0  0  0  0  0  0
   -3.8329   -1.2253    1.2164 C   0  0  0  0  0  0  0  0  0  0  0  0
   -3.1405   -2.2701   -0.8490 C   0  0  0  0  0  0  0  0  0  0  0  0
   -3.7950   -2.3414    0.3808 C   0  0  0  0  0  0  0  0  0  0  0  0
   -0.5233    3.4052   -1.1325 H   0  0  0  0  0  0  0  0  0  0  0  0
    1.7522    2.4862   -1.0357 H   0  0  0  0  0  0  0  0  0  0  0  0
    0.5804    1.2543   -1.5596 H   0  0  0  0  0  0  0  0  0  0  0  0
   -2.2257    2.7432    0.5414 H   0  0  0  0  0  0  0  0  0  0  0  0
   -1.1689    1.4619    1.1457 H   0  0  0  0  0  0  0  0  0  0  0  0
    0.9632    1.1227    1.3016 H   0  0  0  0  0  0  0  0  0  0  0  0
    0.4811    3.0986    1.5233 H   0  0  0  0  0  0  0  0  0  0  0  0
    2.7343    0.4445   -1.8838 H   0  0  0  0  0  0  0  0  0  0  0  0
    2.2750   -0.6347    2.2879 H   0  0  0  0  0  0  0  0  0  0  0  0
    4.4757   -1.2454   -2.1195 H   0  0  0  0  0  0  0  0  0  0  0  0
    4.0411   -2.3326    2.0146 H   0  0  0  0  0  0  0  0  0  0  0  0
   -3.2979    0.8162    1.4879 H   0  0  0  0  0  0  0  0  0  0  0  0
   -2.0143   -1.0315   -2.2010 H   0  0  0  0  0  0  0  0  0  0  0  0
    5.1460   -2.6449   -0.1845 H   0  0  0  0  0  0  0  0  0  0  0  0
   -4.3491   -1.2793    2.1705 H   0  0  0  0  0  0  0  0  0  0  0  0
   -3.1111   -3.1392   -1.4996 H   0  0  0  0  0  0  0  0  0  0  0  0
   -4.2765   -3.2656    0.6869 H   0  0  0  0  0  0  0  0  0  0  0  0
  1  6  1  0  0  0  0
  1  8  1  0  0  0  0
  2  4  1  0  0  0  0
  2 25  1  0  0  0  0
  3  5  1  0  0  0  0
  3  7  1  0  0  0  0
  3 24  1  0  0  0  0
  4  5  1  0  0  0  0
  4  6  1  0  0  0  0
  4 19  1  0  0  0  0
  5 20  1  0  0  0  0
  5 21  1  0  0  0  0
  6 22  1  0  0  0  0
  6 23  1  0  0  0  0
  7  9  2  0  0  0  0
  7 10  1  0  0  0  0
  8 13  2  0  0  0  0
  8 14  1  0  0  0  0
  9 11  1  0  0  0  0
  9 26  1  0  0  0  0
 10 12  2  0  0  0  0
 10 27  1  0  0  0  0
 11 15  2  0  0  0  0
 11 28  1  0  0  0  0
 12 15  1  0  0  0  0
 12 29  1  0  0  0  0
 13 16  1  0  0  0  0
 13 30  1  0  0  0  0
 14 17  2  0  0  0  0
 14 31  1  0  0  0  0
 15 32  1  0  0  0  0
 16 18  2  0  0  0  0
 16 33  1  0  0  0  0
 17 18  1  0  0  0  0
 17 34  1  0  0  0  0
 18 35  1  0  0  0  0
M  END
> <PUBCHEM_COMPOUND_CID>
140036

> <PUBCHEM_CONFORMER_RMSD>
0.8

> <PUBCHEM_CONFORMER_DIVERSEORDER>
1
102
103
21
37
88
79
106
56
84
34
55
49
65
73
26
54
74
69
19
98
81
104
75
63
5
32
101
87
35
62
28
14
60
90
8
59
17
46
91
7
72
78
58
47
52
50
18
29
9
4
83
30
53
11
85
93
45
82
39
94
95
48
31
22
25
68
99
97
41
76
100
96
51
20
27
70
57
16
105
42
2
66
24
43
86
61
64
77
6
12
89
44
36
40
80
67
13
15
71
33
23
10
3
38
92

> <PUBCHEM_MMFF94_PARTIAL_CHARGES>
30
1 -0.36
10 -0.15
11 -0.15
12 -0.15
13 -0.15
14 -0.15
15 -0.15
16 -0.15
17 -0.15
18 -0.15
2 -0.68
24 0.4
25 0.4
26 0.15
27 0.15
28 0.15
29 0.15
3 -0.87
30 0.15
31 0.15
32 0.15
33 0.15
34 0.15
35 0.15
4 0.28
5 0.37
6 0.28
7 0.1
8 0.08
9 -0.15

> <PUBCHEM_EFFECTIVE_ROTOR_COUNT>
6

> <PUBCHEM_PHARMACOPHORE_FEATURES>
7
1 1 acceptor
1 2 acceptor
1 2 donor
1 3 cation
1 3 donor
6 7 9 10 11 12 15 rings
6 8 13 14 16 17 18 rings

> <PUBCHEM_HEAVY_ATOM_COUNT>
18

> <PUBCHEM_ATOM_DEF_STEREO_COUNT>
0

> <PUBCHEM_ATOM_UDEF_STEREO_COUNT>
1

> <PUBCHEM_BOND_DEF_STEREO_COUNT>
0

> <PUBCHEM_BOND_UDEF_STEREO_COUNT>
0

> <PUBCHEM_ISOTOPIC_ATOM_COUNT>
0

> <PUBCHEM_COMPONENT_COUNT>
1

> <PUBCHEM_CACTVS_TAUTO_COUNT>
1

> <PUBCHEM_CONFORMER_ID>
0002230400000001

> <PUBCHEM_MMFF94_ENERGY>
61.1668

> <PUBCHEM_FEATURE_SELFOVERLAP>
35.522

> <PUBCHEM_SHAPE_FINGERPRINT>
10616163 171 18265334997751100038
10928967 22 18409174324082994018
10968037 57 18342742918501813607
11370993 144 16988001574955002402
12363563 72 18410570699533371695
12553582 1 18410856572546154359
12596599 1 18200885062083686891
12633257 1 16487256581710786651
12714826 92 18114177510697692701
13533116 47 18050011288355260307
13828863 39 16197875133434097008
14251731 5 18409449210610734995
14787075 74 18191311674881679028
15239191 94 18408042926596231243
15342168 16 9727090775624919363
15375462 189 18267311004655649533
15537594 2 18263100918676864571
1798214 55 9439411245580956879
18186145 218 8069750749253210144
18915474 69 18186807950510053974
20291156 8 18408606971744830815
20645477 70 18122330552953339791
21634736 98 18260274027596180148
21713013 43 16950285134903679139
21731516 1 18409445916455098069
2255824 54 17761779867856680093
235170 7 15357700811590956098
23728640 28 18122058702676839217
238078 22 18337401452406643636
27216 239 11239992386901540671
341906 21 8862361099743376838
56633871 153 18272941496786750735
7097593 13 18127700546237159233
7970288 3 18409169921699408619

> <PUBCHEM_SHAPE_MULTIPOLES>
353.71
8.78
3.4
1.29
2.43
2.52
0.03
-8.3
0.49
-0.9
0.27
0.18
-0.39
-0.28

> <PUBCHEM_SHAPE_SELFOVERLAP>
739.445

> <PUBCHEM_SHAPE_VOLUME>
200

> <PUBCHEM_COORDINATE_TYPE>
2
5
10

$$$$
