140145
  -OEChem-11012400403D

 17 17  0     1  0  0  0  0  0999 V2000
   -0.0001   -1.3370   -0.0002 O   0  0  0  0  0  0  0  0  0  0  0  0
   -2.1732   -1.0091   -0.6304 O   0  0  0  0  0  0  0  0  0  0  0  0
    2.1731   -1.0094    0.6306 O   0  0  0  0  0  0  0  0  0  0  0  0
   -0.7586    0.8775   -0.0692 C   0  0  1  0  0  0  0  0  0  0  0  0
    0.7586    0.8774    0.0691 C   0  0  1  0  0  0  0  0  0  0  0  0
   -1.0855   -0.5697   -0.2898 C   0  0  0  0  0  0  0  0  0  0  0  0
    1.0853   -0.5698    0.2898 C   0  0  0  0  0  0  0  0  0  0  0  0
   -1.4602    1.3701    1.1896 C   0  0  0  0  0  0  0  0  0  0  0  0
    1.4605    1.3701   -1.1895 C   0  0  0  0  0  0  0  0  0  0  0  0
   -1.0835    1.4604   -0.9376 H   0  0  0  0  0  0  0  0  0  0  0  0
    1.0835    1.4603    0.9376 H   0  0  0  0  0  0  0  0  0  0  0  0
   -1.1905    0.7679    2.0646 H   0  0  0  0  0  0  0  0  0  0  0  0
   -1.1979    2.4126    1.3970 H   0  0  0  0  0  0  0  0  0  0  0  0
   -2.5480    1.3104    1.0753 H   0  0  0  0  0  0  0  0  0  0  0  0
    1.1908    0.7681   -2.0647 H   0  0  0  0  0  0  0  0  0  0  0  0
    1.1986    2.4127   -1.3967 H   0  0  0  0  0  0  0  0  0  0  0  0
    2.5483    1.3102   -1.0750 H   0  0  0  0  0  0  0  0  0  0  0  0
  1  6  1  0  0  0  0
  1  7  1  0  0  0  0
  2  6  2  0  0  0  0
  3  7  2  0  0  0  0
  4  5  1  0  0  0  0
  4  6  1  0  0  0  0
  4  8  1  0  0  0  0
  4 10  1  0  0  0  0
  5  7  1  0  0  0  0
  5  9  1  0  0  0  0
  5 11  1  0  0  0  0
  8 12  1  0  0  0  0
  8 13  1  0  0  0  0
  8 14  1  0  0  0  0
  9 15  1  0  0  0  0
  9 16  1  0  0  0  0
  9 17  1  0  0  0  0
M  END
> <PUBCHEM_COMPOUND_CID>
140145

> <PUBCHEM_CONFORMER_RMSD>
0.4

> <PUBCHEM_CONFORMER_DIVERSEORDER>
1
2
3

> <PUBCHEM_MMFF94_PARTIAL_CHARGES>
7
1 -0.3
2 -0.57
3 -0.57
4 0.06
5 0.06
6 0.66
7 0.66

> <PUBCHEM_EFFECTIVE_ROTOR_COUNT>
0.6

> <PUBCHEM_PHARMACOPHORE_FEATURES>
3
1 2 acceptor
1 3 acceptor
5 1 4 5 6 7 rings

> <PUBCHEM_HEAVY_ATOM_COUNT>
9

> <PUBCHEM_ATOM_DEF_STEREO_COUNT>
0

> <PUBCHEM_ATOM_UDEF_STEREO_COUNT>
2

> <PUBCHEM_BOND_DEF_STEREO_COUNT>
0

> <PUBCHEM_BOND_UDEF_STEREO_COUNT>
0

> <PUBCHEM_ISOTOPIC_ATOM_COUNT>
0

> <PUBCHEM_COMPONENT_COUNT>
1

> <PUBCHEM_CACTVS_TAUTO_COUNT>
3

> <PUBCHEM_CONFORMER_ID>
0002237100000001

> <PUBCHEM_MMFF94_ENERGY>
5.9262

> <PUBCHEM_FEATURE_SELFOVERLAP>
15.223

> <PUBCHEM_SHAPE_FINGERPRINT>
12423570 1 17463655987034879468
14128692 85 18337940294360433894
18185500 45 18410288116428477927
21040471 1 17770794424252716289
23211744 25 16969984246950497669
23552333 60 18335698398867686897
23552423 10 18334292084709407718
29004967 10 17315371227744443160
5084963 1 18334849519834896771
5943 1 18337115578945480832

> <PUBCHEM_SHAPE_MULTIPOLES>
167.61
2.37
1.64
1.02
0
0.11
0
-0.21
0
0
0
0
0.26
-0.89

> <PUBCHEM_SHAPE_SELFOVERLAP>
342.509

> <PUBCHEM_SHAPE_VOLUME>
100.5

> <PUBCHEM_COORDINATE_TYPE>
2
5
10

$$$$
