137624
  -OEChem-11012400413D

 14 14  0     0  0  0  0  0  0999 V2000
   -0.6216    1.4740    0.0001 O   0  0  0  0  0  0  0  0  0  0  0  0
   -2.3435   -0.0139   -0.0001 O   0  5  0  0  0  0  0  0  0  0  0  0
   -1.1007    0.1293   -0.0001 N   0  3  0  0  0  0  0  0  0  0  0  0
    0.7673    1.4168    0.0000 N   0  0  0  0  0  0  0  0  0  0  0  0
   -0.0532   -0.6940    0.0001 C   0  0  0  0  0  0  0  0  0  0  0  0
    1.0826    0.1222    0.0000 C   0  0  0  0  0  0  0  0  0  0  0  0
   -0.2267   -2.1471    0.0001 C   0  0  0  0  0  0  0  0  0  0  0  0
    2.4958   -0.2873   -0.0001 C   0  0  0  0  0  0  0  0  0  0  0  0
    0.7372   -2.6657    0.0004 H   0  0  0  0  0  0  0  0  0  0  0  0
   -0.7797   -2.4728    0.8870 H   0  0  0  0  0  0  0  0  0  0  0  0
   -0.7791   -2.4728   -0.8872 H   0  0  0  0  0  0  0  0  0  0  0  0
    3.1717    0.5745   -0.0004 H   0  0  0  0  0  0  0  0  0  0  0  0
    2.7216   -0.8882    0.8870 H   0  0  0  0  0  0  0  0  0  0  0  0
    2.7214   -0.8886   -0.8868 H   0  0  0  0  0  0  0  0  0  0  0  0
  1  3  1  0  0  0  0
  1  4  1  0  0  0  0
  2  3  1  0  0  0  0
  3  5  2  0  0  0  0
  4  6  2  0  0  0  0
  5  6  1  0  0  0  0
  5  7  1  0  0  0  0
  6  8  1  0  0  0  0
  7  9  1  0  0  0  0
  7 10  1  0  0  0  0
  7 11  1  0  0  0  0
  8 12  1  0  0  0  0
  8 13  1  0  0  0  0
  8 14  1  0  0  0  0
M  CHG  2   2  -1   3   1
M  END
> <PUBCHEM_COMPOUND_CID>
137624

> <PUBCHEM_CONFORMER_RMSD>
0.4

> <PUBCHEM_CONFORMER_DIVERSEORDER>
1

> <PUBCHEM_MMFF94_PARTIAL_CHARGES>
8
1 -0.12
2 -0.63
3 0.95
4 -0.41
5 -0.26
6 0.11
7 0.18
8 0.18

> <PUBCHEM_EFFECTIVE_ROTOR_COUNT>
0

> <PUBCHEM_PHARMACOPHORE_FEATURES>
3
1 2 anion
1 4 acceptor
5 1 3 4 5 6 rings

> <PUBCHEM_HEAVY_ATOM_COUNT>
8

> <PUBCHEM_ATOM_DEF_STEREO_COUNT>
0

> <PUBCHEM_ATOM_UDEF_STEREO_COUNT>
0

> <PUBCHEM_BOND_DEF_STEREO_COUNT>
0

> <PUBCHEM_BOND_UDEF_STEREO_COUNT>
0

> <PUBCHEM_ISOTOPIC_ATOM_COUNT>
0

> <PUBCHEM_COMPONENT_COUNT>
1

> <PUBCHEM_CACTVS_TAUTO_COUNT>
1

> <PUBCHEM_CONFORMER_ID>
0002199800000001

> <PUBCHEM_MMFF94_ENERGY>
4.9238

> <PUBCHEM_FEATURE_SELFOVERLAP>
15.223

> <PUBCHEM_SHAPE_FINGERPRINT>
16714656 1 18410015420655103174
21040471 1 18338797939104788324
23552423 10 17901959547392104910
29004967 10 18336272257848116553

> <PUBCHEM_SHAPE_MULTIPOLES>
142.94
2.43
1.75
0.57
0.38
0.54
0
-0.05
0
-0.22
0
0.05
0.04
0

> <PUBCHEM_SHAPE_SELFOVERLAP>
286.369

> <PUBCHEM_SHAPE_VOLUME>
87.1

> <PUBCHEM_COORDINATE_TYPE>
2
5
10

$$$$
