136182
  -OEChem-11012400473D

 12 11  0     0  0  0  0  0  0999 V2000
   -0.4927    1.1279    1.2838 F   0  0  0  0  0  0  0  0  0  0  0  0
   -0.4917   -1.0592    1.3412 F   0  0  0  0  0  0  0  0  0  0  0  0
    0.4938    1.0585   -1.3490 F   0  0  0  0  0  0  0  0  0  0  0  0
    0.4966   -1.1284   -1.2897 F   0  0  0  0  0  0  0  0  0  0  0  0
   -2.4119   -1.1096   -0.2738 O   0  5  0  0  0  0  0  0  0  0  0  0
    2.4164   -1.0896    0.3248 O   0  5  0  0  0  0  0  0  0  0  0  0
   -2.4225    1.0901   -0.3107 O   0  0  0  0  0  0  0  0  0  0  0  0
    2.4059    1.1101    0.2874 O   0  0  0  0  0  0  0  0  0  0  0  0
   -1.8935   -0.0035   -0.0746 N   0  3  0  0  0  0  0  0  0  0  0  0
    1.8965    0.0037    0.0675 N   0  3  0  0  0  0  0  0  0  0  0  0
   -0.5270    0.0136    0.5263 C   0  0  0  0  0  0  0  0  0  0  0  0
    0.5301   -0.0135   -0.5332 C   0  0  0  0  0  0  0  0  0  0  0  0
  1 11  1  0  0  0  0
  2 11  1  0  0  0  0
  3 12  1  0  0  0  0
  4 12  1  0  0  0  0
  5  9  1  0  0  0  0
  6 10  1  0  0  0  0
  7  9  2  0  0  0  0
  8 10  2  0  0  0  0
  9 11  1  0  0  0  0
 10 12  1  0  0  0  0
 11 12  1  0  0  0  0
M  CHG  4   5  -1   6  -1   9   1  10   1
M  END
> <PUBCHEM_COMPOUND_CID>
136182

> <PUBCHEM_CONFORMER_RMSD>
0.6

> <PUBCHEM_CONFORMER_DIVERSEORDER>
1
6
7
4
2
5
3

> <PUBCHEM_MMFF94_PARTIAL_CHARGES>
12
1 -0.34
10 0.8
11 0.92
12 0.92
2 -0.34
3 -0.34
4 -0.34
5 -0.52
6 -0.52
7 -0.52
8 -0.52
9 0.8

> <PUBCHEM_EFFECTIVE_ROTOR_COUNT>
3

> <PUBCHEM_PHARMACOPHORE_FEATURES>
6
1 5 acceptor
1 5 anion
1 6 acceptor
1 6 anion
1 7 acceptor
1 8 acceptor

> <PUBCHEM_HEAVY_ATOM_COUNT>
12

> <PUBCHEM_ATOM_DEF_STEREO_COUNT>
0

> <PUBCHEM_ATOM_UDEF_STEREO_COUNT>
0

> <PUBCHEM_BOND_DEF_STEREO_COUNT>
0

> <PUBCHEM_BOND_UDEF_STEREO_COUNT>
0

> <PUBCHEM_ISOTOPIC_ATOM_COUNT>
0

> <PUBCHEM_COMPONENT_COUNT>
1

> <PUBCHEM_CACTVS_TAUTO_COUNT>
1

> <PUBCHEM_CONFORMER_ID>
000213F600000001

> <PUBCHEM_MMFF94_ENERGY>
12.2405

> <PUBCHEM_FEATURE_SELFOVERLAP>
30.608

> <PUBCHEM_SHAPE_FINGERPRINT>
10857977 72 16630238203489659947
12897270 3 17703793608597236565
16945 1 18410285891630137346
21040471 1 17458354021685482299
24536 1 18049763746938637348
29004967 10 17489873747520888227
369184 2 18411138034706177689
5084963 1 18334859415460736692

> <PUBCHEM_SHAPE_MULTIPOLES>
184.42
3.11
1.25
1.11
0.01
0
-0.01
0
0.01
0
0
-0.01
0
0

> <PUBCHEM_SHAPE_SELFOVERLAP>
375.053

> <PUBCHEM_SHAPE_VOLUME>
107.8

> <PUBCHEM_COORDINATE_TYPE>
2
5
10

$$$$
