12984
  -OEChem-11012400403D

 21 20  0     0  0  0  0  0  0999 V2000
    0.8740   -0.0331   -0.0165 C   0  0  0  0  0  0  0  0  0  0  0  0
   -0.4292    0.3278   -0.7805 C   0  0  0  0  0  0  0  0  0  0  0  0
    1.2015    1.1207    0.9512 C   0  0  0  0  0  0  0  0  0  0  0  0
    2.0586   -0.2089   -0.9829 C   0  0  0  0  0  0  0  0  0  0  0  0
    0.6924   -1.3229    0.8030 C   0  0  0  0  0  0  0  0  0  0  0  0
   -1.6634    0.4555    0.0691 C   0  0  0  0  0  0  0  0  0  0  0  0
   -2.7339   -0.3391   -0.0435 C   0  0  0  0  0  0  0  0  0  0  0  0
   -0.2890    1.2763   -1.3158 H   0  0  0  0  0  0  0  0  0  0  0  0
   -0.5975   -0.4290   -1.5589 H   0  0  0  0  0  0  0  0  0  0  0  0
    0.4456    1.2331    1.7354 H   0  0  0  0  0  0  0  0  0  0  0  0
    1.2822    2.0752    0.4188 H   0  0  0  0  0  0  0  0  0  0  0  0
    2.1588    0.9452    1.4563 H   0  0  0  0  0  0  0  0  0  0  0  0
    2.2273    0.7020   -1.5678 H   0  0  0  0  0  0  0  0  0  0  0  0
    1.8701   -1.0270   -1.6868 H   0  0  0  0  0  0  0  0  0  0  0  0
    2.9847   -0.4377   -0.4440 H   0  0  0  0  0  0  0  0  0  0  0  0
    0.3999   -2.1583    0.1571 H   0  0  0  0  0  0  0  0  0  0  0  0
   -0.0707   -1.2145    1.5809 H   0  0  0  0  0  0  0  0  0  0  0  0
    1.6259   -1.6034    1.3047 H   0  0  0  0  0  0  0  0  0  0  0  0
   -1.6965    1.2618    0.7964 H   0  0  0  0  0  0  0  0  0  0  0  0
   -3.6007   -0.1856    0.5899 H   0  0  0  0  0  0  0  0  0  0  0  0
   -2.7650   -1.1514   -0.7610 H   0  0  0  0  0  0  0  0  0  0  0  0
  1  2  1  0  0  0  0
  1  3  1  0  0  0  0
  1  4  1  0  0  0  0
  1  5  1  0  0  0  0
  2  6  1  0  0  0  0
  2  8  1  0  0  0  0
  2  9  1  0  0  0  0
  3 10  1  0  0  0  0
  3 11  1  0  0  0  0
  3 12  1  0  0  0  0
  4 13  1  0  0  0  0
  4 14  1  0  0  0  0
  4 15  1  0  0  0  0
  5 16  1  0  0  0  0
  5 17  1  0  0  0  0
  5 18  1  0  0  0  0
  6  7  2  0  0  0  0
  6 19  1  0  0  0  0
  7 20  1  0  0  0  0
  7 21  1  0  0  0  0
M  END
> <PUBCHEM_COMPOUND_CID>
12984

> <PUBCHEM_CONFORMER_RMSD>
0.4

> <PUBCHEM_CONFORMER_DIVERSEORDER>
1
4
3
2

> <PUBCHEM_MMFF94_PARTIAL_CHARGES>
6
19 0.15
2 0.14
20 0.15
21 0.15
6 -0.29
7 -0.3

> <PUBCHEM_EFFECTIVE_ROTOR_COUNT>
2

> <PUBCHEM_PHARMACOPHORE_FEATURES>
2
1 7 hydrophobe
4 1 3 4 5 hydrophobe

> <PUBCHEM_HEAVY_ATOM_COUNT>
7

> <PUBCHEM_ATOM_DEF_STEREO_COUNT>
0

> <PUBCHEM_ATOM_UDEF_STEREO_COUNT>
0

> <PUBCHEM_BOND_DEF_STEREO_COUNT>
0

> <PUBCHEM_BOND_UDEF_STEREO_COUNT>
0

> <PUBCHEM_ISOTOPIC_ATOM_COUNT>
0

> <PUBCHEM_COMPONENT_COUNT>
1

> <PUBCHEM_CACTVS_TAUTO_COUNT>
1

> <PUBCHEM_CONFORMER_ID>
000032B800000001

> <PUBCHEM_MMFF94_ENERGY>
12.887

> <PUBCHEM_FEATURE_SELFOVERLAP>
10.149

> <PUBCHEM_SHAPE_FINGERPRINT>
12897270 3 17458354030417887423
12932741 1 18343294877691550613
12932764 1 18411131425363464829
137420 1 15798792114923357968
14128692 85 17898009019240737826
20096714 4 17345743221900709433
21040471 1 18040715913008994923
23552423 10 17169547411515697035
23552449 11 18271791411522561411
24536 1 17096352961035338997
29004967 10 17489595523829152462
5084963 1 18335707151858126805
5943 1 10253247440437608026

> <PUBCHEM_SHAPE_MULTIPOLES>
144.06
3.09
1.11
1.06
1.95
0.12
-0.01
0.16
-0.39
-0.3
0.35
-0.46
-0.02
0.14

> <PUBCHEM_SHAPE_SELFOVERLAP>
257.944

> <PUBCHEM_SHAPE_VOLUME>
96.3

> <PUBCHEM_COORDINATE_TYPE>
2
5
10

$$$$
