1715238
  -OEChem-11012401083D

 26 26  0     0  0  0  0  0  0999 V2000
   -3.4544   -1.0367    1.2778 O   0  0  0  0  0  0  0  0  0  0  0  0
   -3.5953    1.8522   -0.2426 O   0  0  0  0  0  0  0  0  0  0  0  0
   -3.5885   -1.4159   -0.9685 O   0  0  0  0  0  0  0  0  0  0  0  0
   -1.4138    2.4918   -0.2776 O   0  0  0  0  0  0  0  0  0  0  0  0
    2.1961   -0.8162    0.1043 C   0  0  0  0  0  0  0  0  0  0  0  0
    3.1268   -0.8796   -0.9204 C   0  0  0  0  0  0  0  0  0  0  0  0
    2.2487    0.1811    1.0649 C   0  0  0  0  0  0  0  0  0  0  0  0
    1.1291   -1.8296    0.1736 C   0  0  0  0  0  0  0  0  0  0  0  0
    4.1372    0.0798   -0.9860 C   0  0  0  0  0  0  0  0  0  0  0  0
    3.2592    1.1405    0.9991 C   0  0  0  0  0  0  0  0  0  0  0  0
   -0.1870   -1.5658    0.1206 C   0  0  0  0  0  0  0  0  0  0  0  0
    4.2034    1.0897   -0.0264 C   0  0  0  0  0  0  0  0  0  0  0  0
   -0.7087   -0.2175   -0.0143 C   0  0  0  0  0  0  0  0  0  0  0  0
   -2.0009    0.1569   -0.0768 C   0  0  0  0  0  0  0  0  0  0  0  0
   -3.0896   -0.8469   -0.0115 C   0  0  0  0  0  0  0  0  0  0  0  0
   -2.2622    1.6160   -0.2161 C   0  0  0  0  0  0  0  0  0  0  0  0
    1.4620   -2.8622    0.2410 H   0  0  0  0  0  0  0  0  0  0  0  0
    3.0854   -1.6613   -1.6742 H   0  0  0  0  0  0  0  0  0  0  0  0
    1.5355    0.2279    1.8838 H   0  0  0  0  0  0  0  0  0  0  0  0
    4.8725    0.0404   -1.7843 H   0  0  0  0  0  0  0  0  0  0  0  0
    3.3135    1.9244    1.7488 H   0  0  0  0  0  0  0  0  0  0  0  0
   -0.8880   -2.3933    0.1698 H   0  0  0  0  0  0  0  0  0  0  0  0
    4.9908    1.8361   -0.0768 H   0  0  0  0  0  0  0  0  0  0  0  0
    0.0272    0.5741   -0.1110 H   0  0  0  0  0  0  0  0  0  0  0  0
   -4.1760   -1.6959    1.3621 H   0  0  0  0  0  0  0  0  0  0  0  0
   -3.7971    2.8088   -0.3249 H   0  0  0  0  0  0  0  0  0  0  0  0
  1 15  1  0  0  0  0
  1 25  1  0  0  0  0
  2 16  1  0  0  0  0
  2 26  1  0  0  0  0
  3 15  2  0  0  0  0
  4 16  2  0  0  0  0
  5  6  2  0  0  0  0
  5  7  1  0  0  0  0
  5  8  1  0  0  0  0
  6  9  1  0  0  0  0
  6 18  1  0  0  0  0
  7 10  2  0  0  0  0
  7 19  1  0  0  0  0
  8 11  2  0  0  0  0
  8 17  1  0  0  0  0
  9 12  2  0  0  0  0
  9 20  1  0  0  0  0
 10 12  1  0  0  0  0
 10 21  1  0  0  0  0
 11 13  1  0  0  0  0
 11 22  1  0  0  0  0
 12 23  1  0  0  0  0
 13 14  2  0  0  0  0
 13 24  1  0  0  0  0
 14 15  1  0  0  0  0
 14 16  1  0  0  0  0
M  END
> <PUBCHEM_COMPOUND_CID>
1715238

> <PUBCHEM_CONFORMER_RMSD>
0.6

> <PUBCHEM_CONFORMER_DIVERSEORDER>
1
3
2

> <PUBCHEM_MMFF94_PARTIAL_CHARGES>
26
1 -0.65
10 -0.15
11 -0.15
12 -0.15
13 -0.15
14 0.03
15 0.71
16 0.71
17 0.15
18 0.15
19 0.15
2 -0.65
20 0.15
21 0.15
22 0.15
23 0.15
24 0.15
25 0.5
26 0.5
3 -0.57
4 -0.57
5 0.03
6 -0.15
7 -0.15
8 -0.18
9 -0.15

> <PUBCHEM_EFFECTIVE_ROTOR_COUNT>
4

> <PUBCHEM_PHARMACOPHORE_FEATURES>
7
1 1 acceptor
1 2 acceptor
1 3 acceptor
1 4 acceptor
3 1 3 15 anion
3 2 4 16 anion
6 5 6 7 9 10 12 rings

> <PUBCHEM_HEAVY_ATOM_COUNT>
16

> <PUBCHEM_ATOM_DEF_STEREO_COUNT>
0

> <PUBCHEM_ATOM_UDEF_STEREO_COUNT>
0

> <PUBCHEM_BOND_DEF_STEREO_COUNT>
1

> <PUBCHEM_BOND_UDEF_STEREO_COUNT>
0

> <PUBCHEM_ISOTOPIC_ATOM_COUNT>
0

> <PUBCHEM_COMPONENT_COUNT>
1

> <PUBCHEM_CACTVS_TAUTO_COUNT>
1

> <PUBCHEM_CONFORMER_ID>
001A2C2600000001

> <PUBCHEM_MMFF94_ENERGY>
49.5904

> <PUBCHEM_FEATURE_SELFOVERLAP>
35.635

> <PUBCHEM_SHAPE_FINGERPRINT>
10498660 4 18335979792150848444
10608611 8 18412543184949645818
10646746 165 18409446956216913892
11715629 250 18273206517526653902
12173636 292 18338509725751691117
12932764 1 18201717336245272674
13764800 53 18187654573983205345
14004511 7 8718835292490621695
14787075 74 17461167831087334259
15775835 57 18338238163353764340
17802600 8 18341888610930535146
18186145 218 17775006786643204858
20449540 30 18273216383045642017
20510252 161 18411141337631045457
20671657 1 17976818688187921306
21501502 16 18263918843716919603
21524375 3 18413106186796674234
21652331 79 18410857680636848801
23048698 100 16443057322892432538
23402539 116 18411973668444864276
23402655 69 17989210334941713000
23503958 25 18410579487157869712
23557571 272 18271813431851530175
23559900 14 18196362616007965498
3268164 11 18410002260769813711
3524813 1 18272082855340315216
4028521 119 18410003347391368559
5281201 14 18202010919309381836
6333272 397 18187649171310005022
81228 2 17695612344723962946

> <PUBCHEM_SHAPE_MULTIPOLES>
305.8
8.21
2.09
1
0.79
0.68
0.09
1.44
-0.84
-1.24
-0.11
0.35
-0.08
0.58

> <PUBCHEM_SHAPE_SELFOVERLAP>
640.625

> <PUBCHEM_SHAPE_VOLUME>
171.8

> <PUBCHEM_COORDINATE_TYPE>
2
5
10

$$$$
