92723
  -OEChem-11012400323D

 29 28  0     0  0  0  0  0  0999 V2000
    0.4141   -0.3251   -0.0007 C   0  0  0  0  0  0  0  0  0  0  0  0
   -1.1149    0.1770   -0.0003 C   0  0  0  0  0  0  0  0  0  0  0  0
    1.3981    0.8939   -0.0578 C   0  0  0  0  0  0  0  0  0  0  0  0
    0.6908   -1.2545   -1.2088 C   0  0  0  0  0  0  0  0  0  0  0  0
    0.7272   -1.1454    1.2769 C   0  0  0  0  0  0  0  0  0  0  0  0
   -2.1136   -1.0033    0.0852 C   0  0  0  0  0  0  0  0  0  0  0  0
   -1.4764    0.9692   -1.2820 C   0  0  0  0  0  0  0  0  0  0  0  0
   -1.4168    1.1117    1.1974 C   0  0  0  0  0  0  0  0  0  0  0  0
    2.8916    0.5766   -0.0100 C   0  0  0  0  0  0  0  0  0  0  0  0
    1.1995    1.5729    0.7779 H   0  0  0  0  0  0  0  0  0  0  0  0
    1.2221    1.4648   -0.9760 H   0  0  0  0  0  0  0  0  0  0  0  0
    1.7033   -1.6711   -1.1715 H   0  0  0  0  0  0  0  0  0  0  0  0
    0.0160   -2.1145   -1.2320 H   0  0  0  0  0  0  0  0  0  0  0  0
    0.6004   -0.7207   -2.1596 H   0  0  0  0  0  0  0  0  0  0  0  0
    0.6725   -0.5300    2.1800 H   0  0  0  0  0  0  0  0  0  0  0  0
    1.7343   -1.5755    1.2418 H   0  0  0  0  0  0  0  0  0  0  0  0
    0.0493   -1.9947    1.3987 H   0  0  0  0  0  0  0  0  0  0  0  0
   -3.1480   -0.6369    0.0733 H   0  0  0  0  0  0  0  0  0  0  0  0
   -2.0205   -1.6893   -0.7611 H   0  0  0  0  0  0  0  0  0  0  0  0
   -2.0021   -1.5751    1.0105 H   0  0  0  0  0  0  0  0  0  0  0  0
   -0.8728    1.8751   -1.3890 H   0  0  0  0  0  0  0  0  0  0  0  0
   -2.5249    1.2912   -1.2605 H   0  0  0  0  0  0  0  0  0  0  0  0
   -1.3505    0.3637   -2.1845 H   0  0  0  0  0  0  0  0  0  0  0  0
   -0.8438    2.0422    1.1521 H   0  0  0  0  0  0  0  0  0  0  0  0
   -1.2149    0.6272    2.1570 H   0  0  0  0  0  0  0  0  0  0  0  0
   -2.4752    1.4007    1.2078 H   0  0  0  0  0  0  0  0  0  0  0  0
    3.2018   -0.0585   -0.8437 H   0  0  0  0  0  0  0  0  0  0  0  0
    3.1770    0.0943    0.9286 H   0  0  0  0  0  0  0  0  0  0  0  0
    3.4653    1.5073   -0.0809 H   0  0  0  0  0  0  0  0  0  0  0  0
  1  2  1  0  0  0  0
  1  3  1  0  0  0  0
  1  4  1  0  0  0  0
  1  5  1  0  0  0  0
  2  6  1  0  0  0  0
  2  7  1  0  0  0  0
  2  8  1  0  0  0  0
  3  9  1  0  0  0  0
  3 10  1  0  0  0  0
  3 11  1  0  0  0  0
  4 12  1  0  0  0  0
  4 13  1  0  0  0  0
  4 14  1  0  0  0  0
  5 15  1  0  0  0  0
  5 16  1  0  0  0  0
  5 17  1  0  0  0  0
  6 18  1  0  0  0  0
  6 19  1  0  0  0  0
  6 20  1  0  0  0  0
  7 21  1  0  0  0  0
  7 22  1  0  0  0  0
  7 23  1  0  0  0  0
  8 24  1  0  0  0  0
  8 25  1  0  0  0  0
  8 26  1  0  0  0  0
  9 27  1  0  0  0  0
  9 28  1  0  0  0  0
  9 29  1  0  0  0  0
M  END
> <PUBCHEM_COMPOUND_CID>
92723

> <PUBCHEM_CONFORMER_RMSD>
0.4

> <PUBCHEM_CONFORMER_DIVERSEORDER>
1
3
2

> <PUBCHEM_MMFF94_PARTIAL_CHARGES>
0

> <PUBCHEM_EFFECTIVE_ROTOR_COUNT>
2

> <PUBCHEM_PHARMACOPHORE_FEATURES>
3
1 9 hydrophobe
3 1 4 5 hydrophobe
4 2 6 7 8 hydrophobe

> <PUBCHEM_HEAVY_ATOM_COUNT>
9

> <PUBCHEM_ATOM_DEF_STEREO_COUNT>
0

> <PUBCHEM_ATOM_UDEF_STEREO_COUNT>
0

> <PUBCHEM_BOND_DEF_STEREO_COUNT>
0

> <PUBCHEM_BOND_UDEF_STEREO_COUNT>
0

> <PUBCHEM_ISOTOPIC_ATOM_COUNT>
0

> <PUBCHEM_COMPONENT_COUNT>
1

> <PUBCHEM_CACTVS_TAUTO_COUNT>
1

> <PUBCHEM_CONFORMER_ID>
00016A3300000001

> <PUBCHEM_MMFF94_ENERGY>
32.9446

> <PUBCHEM_FEATURE_SELFOVERLAP>
15.252

> <PUBCHEM_SHAPE_FINGERPRINT>
12423570 1 16818614034852666327
13024252 1 16371557232483452364
137420 1 11151024930692930586
16945 1 18266463293917001131
20653085 51 17488206888104436400
21040471 1 16628835050653819953
21922407 69 18334853866505350587
23235685 24 18131067125807140873
24536 1 18058442102222839659
29004967 10 17775016724843943914
369184 2 17895187844065023072
5084963 1 18262518207800421468
68250623 7 18339932528036750746

> <PUBCHEM_SHAPE_MULTIPOLES>
185.22
2.99
1.43
1.3
1.2
0.15
0.01
-0.6
0.01
-0.13
-0.01
-0.25
0.06
0

> <PUBCHEM_SHAPE_SELFOVERLAP>
336.968

> <PUBCHEM_SHAPE_VOLUME>
123.7

> <PUBCHEM_COORDINATE_TYPE>
2
5
10

$$$$
