12045911
  -OEChem-11012400443D

 33 32  0     0  0  0  0  0  0999 V2000
    1.3533   -0.0201   -0.8374 O   0  0  0  0  0  0  0  0  0  0  0  0
    0.1598    0.0023    0.0001 O   0  0  0  0  0  0  0  0  0  0  0  0
   -2.2389    0.0049   -0.2128 N   0  0  0  0  0  0  0  0  0  0  0  0
    2.4469   -0.0032    0.0684 C   0  0  0  0  0  0  0  0  0  0  0  0
   -2.3866   -1.1928    0.6155 C   0  0  0  0  0  0  0  0  0  0  0  0
   -2.3715    1.2064    0.6133 C   0  0  0  0  0  0  0  0  0  0  0  0
   -0.9454   -0.0147   -0.9093 C   0  0  0  0  0  0  0  0  0  0  0  0
    2.3554   -1.2377    0.9641 C   0  0  0  0  0  0  0  0  0  0  0  0
    3.7301   -0.0335   -0.7591 C   0  0  0  0  0  0  0  0  0  0  0  0
    2.3722    1.2783    0.8974 C   0  0  0  0  0  0  0  0  0  0  0  0
   -2.2532   -2.4563   -0.2177 C   0  0  0  0  0  0  0  0  0  0  0  0
   -2.2222    2.4663   -0.2224 C   0  0  0  0  0  0  0  0  0  0  0  0
   -1.6648   -1.2206    1.4416 H   0  0  0  0  0  0  0  0  0  0  0  0
   -3.3876   -1.1913    1.0645 H   0  0  0  0  0  0  0  0  0  0  0  0
   -3.3722    1.2187    1.0628 H   0  0  0  0  0  0  0  0  0  0  0  0
   -1.6490    1.2264    1.4390 H   0  0  0  0  0  0  0  0  0  0  0  0
   -0.8547   -0.8835   -1.5705 H   0  0  0  0  0  0  0  0  0  0  0  0
   -0.8551    0.8378   -1.5921 H   0  0  0  0  0  0  0  0  0  0  0  0
    2.2675   -2.1496    0.3622 H   0  0  0  0  0  0  0  0  0  0  0  0
    3.2422   -1.3298    1.6007 H   0  0  0  0  0  0  0  0  0  0  0  0
    1.4816   -1.2131    1.6246 H   0  0  0  0  0  0  0  0  0  0  0  0
    3.7764    0.8260   -1.4377 H   0  0  0  0  0  0  0  0  0  0  0  0
    3.7651   -0.9285   -1.3909 H   0  0  0  0  0  0  0  0  0  0  0  0
    4.6222   -0.0223   -0.1245 H   0  0  0  0  0  0  0  0  0  0  0  0
    1.4958    1.3019    1.5543 H   0  0  0  0  0  0  0  0  0  0  0  0
    3.2584    1.3905    1.5316 H   0  0  0  0  0  0  0  0  0  0  0  0
    2.3000    2.1582    0.2478 H   0  0  0  0  0  0  0  0  0  0  0  0
   -2.8536   -2.4076   -1.1326 H   0  0  0  0  0  0  0  0  0  0  0  0
   -1.2143   -2.6778   -0.4813 H   0  0  0  0  0  0  0  0  0  0  0  0
   -2.6149   -3.3133    0.3617 H   0  0  0  0  0  0  0  0  0  0  0  0
   -1.1825    2.6626   -0.5023 H   0  0  0  0  0  0  0  0  0  0  0  0
   -2.8357    2.4286   -1.1291 H   0  0  0  0  0  0  0  0  0  0  0  0
   -2.5567    3.3320    0.3605 H   0  0  0  0  0  0  0  0  0  0  0  0
  1  2  1  0  0  0  0
  1  4  1  0  0  0  0
  2  7  1  0  0  0  0
  3  5  1  0  0  0  0
  3  6  1  0  0  0  0
  3  7  1  0  0  0  0
  4  8  1  0  0  0  0
  4  9  1  0  0  0  0
  4 10  1  0  0  0  0
  5 11  1  0  0  0  0
  5 13  1  0  0  0  0
  5 14  1  0  0  0  0
  6 12  1  0  0  0  0
  6 15  1  0  0  0  0
  6 16  1  0  0  0  0
  7 17  1  0  0  0  0
  7 18  1  0  0  0  0
  8 19  1  0  0  0  0
  8 20  1  0  0  0  0
  8 21  1  0  0  0  0
  9 22  1  0  0  0  0
  9 23  1  0  0  0  0
  9 24  1  0  0  0  0
 10 25  1  0  0  0  0
 10 26  1  0  0  0  0
 10 27  1  0  0  0  0
 11 28  1  0  0  0  0
 11 29  1  0  0  0  0
 11 30  1  0  0  0  0
 12 31  1  0  0  0  0
 12 32  1  0  0  0  0
 12 33  1  0  0  0  0
M  END
> <PUBCHEM_COMPOUND_CID>
12045911

> <PUBCHEM_CONFORMER_RMSD>
0.6

> <PUBCHEM_CONFORMER_DIVERSEORDER>
1
16
20
21
28
27
29
6
13
14
11
12
2
8
9
22
30
3
24
10
19
23
25
26
5
7
17
15
4
18

> <PUBCHEM_MMFF94_PARTIAL_CHARGES>
7
1 -0.28
2 -0.28
3 -0.81
4 0.28
5 0.27
6 0.27
7 0.55

> <PUBCHEM_EFFECTIVE_ROTOR_COUNT>
6

> <PUBCHEM_PHARMACOPHORE_FEATURES>
2
1 3 cation
4 4 8 9 10 hydrophobe

> <PUBCHEM_HEAVY_ATOM_COUNT>
12

> <PUBCHEM_ATOM_DEF_STEREO_COUNT>
0

> <PUBCHEM_ATOM_UDEF_STEREO_COUNT>
0

> <PUBCHEM_BOND_DEF_STEREO_COUNT>
0

> <PUBCHEM_BOND_UDEF_STEREO_COUNT>
0

> <PUBCHEM_ISOTOPIC_ATOM_COUNT>
0

> <PUBCHEM_COMPONENT_COUNT>
1

> <PUBCHEM_CACTVS_TAUTO_COUNT>
1

> <PUBCHEM_CONFORMER_ID>
00B7CE5700000001

> <PUBCHEM_MMFF94_ENERGY>
17.8011

> <PUBCHEM_FEATURE_SELFOVERLAP>
10.148

> <PUBCHEM_SHAPE_FINGERPRINT>
124424 183 17988075565906324764
12500047 106 18337104549606595356
12932764 1 18410013234374259864
14144814 61 18337107878163915352
14965852 173 18410856559872060558
15279307 12 18187366476225303754
15669948 3 18408885135428506247
15775835 57 18262524684352667192
19973954 147 18342173409858959784
20524608 308 18412546479332181591
20715346 28 17703785938149486920
20871998 184 18341902913240586015
21524375 3 18050279263869704485
23402539 116 18343013394536238815
23598294 1 18409451371263829611
3248919 1 18335127675065735758
6049 1 17988365957156098560
74978 22 18411412878380126648
8030462 33 18334849528535750654
81228 2 18410583915764660091

> <PUBCHEM_SHAPE_MULTIPOLES>
230.23
5.82
2.22
1
3.08
0.04
0.03
-0.05
0.07
-2.38
0.16
0.36
-0.01
0

> <PUBCHEM_SHAPE_SELFOVERLAP>
419.796

> <PUBCHEM_SHAPE_VOLUME>
149.5

> <PUBCHEM_COORDINATE_TYPE>
2
5
10

$$$$
