9136
  -OEChem-11012401083D

 30 33  0     0  0  0  0  0  0999 V2000
    0.0000   -0.3310    0.0003 C   0  0  0  0  0  0  0  0  0  0  0  0
    1.3194    0.3108   -0.0484 C   0  0  0  0  0  0  0  0  0  0  0  0
   -1.3196    0.3108    0.0487 C   0  0  0  0  0  0  0  0  0  0  0  0
    0.0000   -1.7546    0.0002 C   0  0  0  0  0  0  0  0  0  0  0  0
    2.4971   -0.4695    0.1290 C   0  0  0  0  0  0  0  0  0  0  0  0
   -2.4972   -0.4695   -0.1290 C   0  0  0  0  0  0  0  0  0  0  0  0
    1.1820   -2.4851    0.1351 C   0  0  0  0  0  0  0  0  0  0  0  0
   -1.1820   -2.4852   -0.1350 C   0  0  0  0  0  0  0  0  0  0  0  0
    2.4082   -1.8513    0.2440 C   0  0  0  0  0  0  0  0  0  0  0  0
   -2.4083   -1.8513   -0.2441 C   0  0  0  0  0  0  0  0  0  0  0  0
    1.5594    1.6822   -0.3278 C   0  0  0  0  0  0  0  0  0  0  0  0
   -1.5595    1.6820    0.3284 C   0  0  0  0  0  0  0  0  0  0  0  0
    3.7752    0.1168    0.1559 C   0  0  0  0  0  0  0  0  0  0  0  0
   -3.7750    0.1168   -0.1567 C   0  0  0  0  0  0  0  0  0  0  0  0
    2.8347    2.2600   -0.3144 C   0  0  0  0  0  0  0  0  0  0  0  0
   -2.8347    2.2600    0.3145 C   0  0  0  0  0  0  0  0  0  0  0  0
    3.9438    1.4791   -0.0491 C   0  0  0  0  0  0  0  0  0  0  0  0
   -3.9436    1.4791    0.0485 C   0  0  0  0  0  0  0  0  0  0  0  0
    1.1648   -3.5736    0.1686 H   0  0  0  0  0  0  0  0  0  0  0  0
   -1.1647   -3.5737   -0.1686 H   0  0  0  0  0  0  0  0  0  0  0  0
    3.2995   -2.4635    0.3672 H   0  0  0  0  0  0  0  0  0  0  0  0
   -3.2995   -2.4635   -0.3677 H   0  0  0  0  0  0  0  0  0  0  0  0
    0.7553    2.3443   -0.6294 H   0  0  0  0  0  0  0  0  0  0  0  0
   -0.7555    2.3439    0.6306 H   0  0  0  0  0  0  0  0  0  0  0  0
    4.6623   -0.4940    0.3166 H   0  0  0  0  0  0  0  0  0  0  0  0
   -4.6621   -0.4938   -0.3180 H   0  0  0  0  0  0  0  0  0  0  0  0
    2.9512    3.3184   -0.5289 H   0  0  0  0  0  0  0  0  0  0  0  0
   -2.9513    3.3183    0.5292 H   0  0  0  0  0  0  0  0  0  0  0  0
    4.9364    1.9176   -0.0373 H   0  0  0  0  0  0  0  0  0  0  0  0
   -4.9362    1.9177    0.0362 H   0  0  0  0  0  0  0  0  0  0  0  0
  1  2  1  0  0  0  0
  1  3  1  0  0  0  0
  1  4  2  0  0  0  0
  2  5  1  0  0  0  0
  2 11  2  0  0  0  0
  3  6  1  0  0  0  0
  3 12  2  0  0  0  0
  4  7  1  0  0  0  0
  4  8  1  0  0  0  0
  5  9  1  0  0  0  0
  5 13  2  0  0  0  0
  6 10  1  0  0  0  0
  6 14  2  0  0  0  0
  7  9  2  0  0  0  0
  7 19  1  0  0  0  0
  8 10  2  0  0  0  0
  8 20  1  0  0  0  0
  9 21  1  0  0  0  0
 10 22  1  0  0  0  0
 11 15  1  0  0  0  0
 11 23  1  0  0  0  0
 12 16  1  0  0  0  0
 12 24  1  0  0  0  0
 13 17  1  0  0  0  0
 13 25  1  0  0  0  0
 14 18  1  0  0  0  0
 14 26  1  0  0  0  0
 15 17  2  0  0  0  0
 15 27  1  0  0  0  0
 16 18  2  0  0  0  0
 16 28  1  0  0  0  0
 17 29  1  0  0  0  0
 18 30  1  0  0  0  0
M  END
> <PUBCHEM_COMPOUND_CID>
9136

> <PUBCHEM_CONFORMER_RMSD>
0.4

> <PUBCHEM_CONFORMER_DIVERSEORDER>
1

> <PUBCHEM_MMFF94_PARTIAL_CHARGES>
24
10 -0.15
11 -0.15
12 -0.15
13 -0.15
14 -0.15
15 -0.15
16 -0.15
17 -0.15
18 -0.15
19 0.15
20 0.15
21 0.15
22 0.15
23 0.15
24 0.15
25 0.15
26 0.15
27 0.15
28 0.15
29 0.15
30 0.15
7 -0.15
8 -0.15
9 -0.15

> <PUBCHEM_EFFECTIVE_ROTOR_COUNT>
0

> <PUBCHEM_PHARMACOPHORE_FEATURES>
4
6 1 2 4 5 7 9 rings
6 1 3 4 6 8 10 rings
6 2 5 11 13 15 17 rings
6 3 6 12 14 16 18 rings

> <PUBCHEM_HEAVY_ATOM_COUNT>
18

> <PUBCHEM_ATOM_DEF_STEREO_COUNT>
0

> <PUBCHEM_ATOM_UDEF_STEREO_COUNT>
0

> <PUBCHEM_BOND_DEF_STEREO_COUNT>
0

> <PUBCHEM_BOND_UDEF_STEREO_COUNT>
0

> <PUBCHEM_ISOTOPIC_ATOM_COUNT>
0

> <PUBCHEM_COMPONENT_COUNT>
1

> <PUBCHEM_CACTVS_TAUTO_COUNT>
1

> <PUBCHEM_CONFORMER_ID>
000023B000000001

> <PUBCHEM_MMFF94_ENERGY>
76.2622

> <PUBCHEM_FEATURE_SELFOVERLAP>
20.369

> <PUBCHEM_SHAPE_FINGERPRINT>
10411042 1 16897365915601301578
10608611 8 18410855460128181280
10616163 171 18339363070912314502
10967382 1 18410573950828791940
10980938 120 18335703784783095208
11370993 70 18410848863058758928
12173636 292 18340202002626644013
12390115 104 18197517296770253080
13140716 1 18408884014457723610
13380535 76 18410855464423382435
13583140 156 17095514089714341625
138480 1 17762056532179771143
14178342 30 18337655499732537434
14787075 74 17899136293785165195
15196674 1 18410573985151477127
15442244 35 18338231553562730114
15536298 74 18342738468820333638
16945 1 18410858762958402182
17492 89 18410572885762201611
18186145 218 18270687445855638733
20510252 161 18125726935217174104
21267235 1 18410582785539817414
21501502 16 18410568491893866118
21524375 3 18410292514469714275
22094290 62 18337953376783182202
22854114 111 18335986376261450705
2334 1 17906452477961665091
23366157 5 18114184086493439810
23402539 116 18270673298227954860
23463225 33 18336826377332952856
23558518 356 18188776179065533922
23559900 14 18202002157977310160
238 59 17467593076450180965
2748010 2 17113812990767297422
3091708 16 9191563689639747666
335352 9 18338234843555125982
350125 39 18410015463325155809
474 4 17967818283735018340
5104073 3 18409448085271054714
58051976 378 18413386544495844964
5939293 188 17906167347999395072
6333272 397 18410013217247151153
7097593 13 17970609832252680106
7364860 26 18341333271453641926
7832392 63 18411418380338714870
84936 182 18272928306620028968
9709674 26 18413111666599944174
9981440 41 18192142909750590946

> <PUBCHEM_SHAPE_MULTIPOLES>
370.43
6.78
3.02
0.65
0
0.55
0
-3.37
0
0
0
0
-0.03
-0.53

> <PUBCHEM_SHAPE_SELFOVERLAP>
851.132

> <PUBCHEM_SHAPE_VOLUME>
175

> <PUBCHEM_COORDINATE_TYPE>
2
5
10

$$$$
