19838
  -OEChem-11012401093D

 23 22  0     0  0  0  0  0  0999 V2000
    1.0372    0.2660    0.0004 O   0  0  0  0  0  0  0  0  0  0  0  0
    0.0009   -1.7878   -0.0002 O   0  0  0  0  0  0  0  0  0  0  0  0
   -1.3464    0.2511    0.0000 C   0  0  0  0  0  0  0  0  0  0  0  0
   -1.3955    1.1359   -1.2527 C   0  0  0  0  0  0  0  0  0  0  0  0
   -2.5513   -0.7036   -0.0155 C   0  0  0  0  0  0  0  0  0  0  0  0
   -1.4106    1.1135    1.2676 C   0  0  0  0  0  0  0  0  0  0  0  0
   -0.0487   -0.5637    0.0003 C   0  0  0  0  0  0  0  0  0  0  0  0
    2.3132   -0.3821   -0.0001 C   0  0  0  0  0  0  0  0  0  0  0  0
    3.4011    0.6707    0.0001 C   0  0  0  0  0  0  0  0  0  0  0  0
   -1.2937    0.5347   -2.1635 H   0  0  0  0  0  0  0  0  0  0  0  0
   -2.3416    1.6851   -1.3136 H   0  0  0  0  0  0  0  0  0  0  0  0
   -0.5850    1.8734   -1.2587 H   0  0  0  0  0  0  0  0  0  0  0  0
   -2.5380   -1.3456   -0.9039 H   0  0  0  0  0  0  0  0  0  0  0  0
   -3.4973   -0.1505   -0.0170 H   0  0  0  0  0  0  0  0  0  0  0  0
   -2.5493   -1.3603    0.8622 H   0  0  0  0  0  0  0  0  0  0  0  0
   -0.5976    1.8477    1.2979 H   0  0  0  0  0  0  0  0  0  0  0  0
   -2.3559    1.6647    1.3253 H   0  0  0  0  0  0  0  0  0  0  0  0
   -1.3231    0.4957    2.1687 H   0  0  0  0  0  0  0  0  0  0  0  0
    2.4046   -1.0088    0.8939 H   0  0  0  0  0  0  0  0  0  0  0  0
    2.4043   -1.0081   -0.8947 H   0  0  0  0  0  0  0  0  0  0  0  0
    4.3923    0.2090   -0.0003 H   0  0  0  0  0  0  0  0  0  0  0  0
    3.3115    1.3173   -0.8790 H   0  0  0  0  0  0  0  0  0  0  0  0
    3.3119    1.3165    0.8799 H   0  0  0  0  0  0  0  0  0  0  0  0
  1  7  1  0  0  0  0
  1  8  1  0  0  0  0
  2  7  2  0  0  0  0
  3  4  1  0  0  0  0
  3  5  1  0  0  0  0
  3  6  1  0  0  0  0
  3  7  1  0  0  0  0
  4 10  1  0  0  0  0
  4 11  1  0  0  0  0
  4 12  1  0  0  0  0
  5 13  1  0  0  0  0
  5 14  1  0  0  0  0
  5 15  1  0  0  0  0
  6 16  1  0  0  0  0
  6 17  1  0  0  0  0
  6 18  1  0  0  0  0
  8  9  1  0  0  0  0
  8 19  1  0  0  0  0
  8 20  1  0  0  0  0
  9 21  1  0  0  0  0
  9 22  1  0  0  0  0
  9 23  1  0  0  0  0
M  END
> <PUBCHEM_COMPOUND_CID>
19838

> <PUBCHEM_CONFORMER_RMSD>
0.6

> <PUBCHEM_CONFORMER_DIVERSEORDER>
1
4
5
7
3
6
2

> <PUBCHEM_MMFF94_PARTIAL_CHARGES>
5
1 -0.43
2 -0.57
3 0.06
7 0.66
8 0.28

> <PUBCHEM_EFFECTIVE_ROTOR_COUNT>
3

> <PUBCHEM_PHARMACOPHORE_FEATURES>
2
1 2 acceptor
4 3 4 5 6 hydrophobe

> <PUBCHEM_HEAVY_ATOM_COUNT>
9

> <PUBCHEM_ATOM_DEF_STEREO_COUNT>
0

> <PUBCHEM_ATOM_UDEF_STEREO_COUNT>
0

> <PUBCHEM_BOND_DEF_STEREO_COUNT>
0

> <PUBCHEM_BOND_UDEF_STEREO_COUNT>
0

> <PUBCHEM_ISOTOPIC_ATOM_COUNT>
0

> <PUBCHEM_COMPONENT_COUNT>
1

> <PUBCHEM_CACTVS_TAUTO_COUNT>
1

> <PUBCHEM_CONFORMER_ID>
00004D7E00000001

> <PUBCHEM_MMFF94_ENERGY>
13.842

> <PUBCHEM_FEATURE_SELFOVERLAP>
10.148

> <PUBCHEM_SHAPE_FINGERPRINT>
12423570 1 8163600728389424265
12932764 1 18041565737182418858
13024252 1 14851600003224328385
14325111 11 18410855447559803494
14390081 3 18060418028003247016
20653085 51 18115867391065329284
21028194 46 18408885131418271590
23235685 24 18272651246705732584
23552423 10 18198629830480264742
24536 1 17842264870618032163
3248919 1 18059569144860040886
369184 2 17530961375869201816
5084963 1 18334858311801763242

> <PUBCHEM_SHAPE_MULTIPOLES>
173.48
4.15
1.34
0.97
3.65
0.24
-0.01
-0.58
0
-0.34
0.01
-0.53
-0.42
0

> <PUBCHEM_SHAPE_SELFOVERLAP>
321.805

> <PUBCHEM_SHAPE_VOLUME>
111

> <PUBCHEM_COORDINATE_TYPE>
2
5
10

$$$$
