13043
  -OEChem-11012400553D

 26 27  0     0  0  0  0  0  0999 V2000
   -2.9094   -1.0771   -0.6467 C   0  0  0  0  0  0  0  0  0  0  0  0
   -3.5926   -0.1052    0.3072 C   0  0  0  0  0  0  0  0  0  0  0  0
   -1.4382   -1.2675   -0.2671 C   0  0  0  0  0  0  0  0  0  0  0  0
   -2.8995    1.2563    0.2933 C   0  0  0  0  0  0  0  0  0  0  0  0
   -0.7199    0.0342    0.0108 C   0  0  0  0  0  0  0  0  0  0  0  0
   -1.4005    1.1693    0.2612 C   0  0  0  0  0  0  0  0  0  0  0  0
    0.7633    0.0156    0.0085 C   0  0  0  0  0  0  0  0  0  0  0  0
    1.4768    1.1586   -0.3563 C   0  0  0  0  0  0  0  0  0  0  0  0
    1.4492   -1.1448    0.3717 C   0  0  0  0  0  0  0  0  0  0  0  0
    2.8716    1.1415   -0.3580 C   0  0  0  0  0  0  0  0  0  0  0  0
    2.8440   -1.1620    0.3701 C   0  0  0  0  0  0  0  0  0  0  0  0
    3.5551   -0.0188    0.0052 C   0  0  0  0  0  0  0  0  0  0  0  0
   -2.9813   -0.6961   -1.6733 H   0  0  0  0  0  0  0  0  0  0  0  0
   -3.4228   -2.0451   -0.6283 H   0  0  0  0  0  0  0  0  0  0  0  0
   -3.5708   -0.5181    1.3239 H   0  0  0  0  0  0  0  0  0  0  0  0
   -4.6474    0.0137    0.0356 H   0  0  0  0  0  0  0  0  0  0  0  0
   -0.9484   -1.8093   -1.0857 H   0  0  0  0  0  0  0  0  0  0  0  0
   -1.3877   -1.9024    0.6265 H   0  0  0  0  0  0  0  0  0  0  0  0
   -3.2120    1.8241    1.1772 H   0  0  0  0  0  0  0  0  0  0  0  0
   -3.2270    1.8264   -0.5845 H   0  0  0  0  0  0  0  0  0  0  0  0
   -0.8912    2.1040    0.4778 H   0  0  0  0  0  0  0  0  0  0  0  0
    0.9849    2.0746   -0.6716 H   0  0  0  0  0  0  0  0  0  0  0  0
    0.9299   -2.0500    0.6733 H   0  0  0  0  0  0  0  0  0  0  0  0
    3.4259    2.0295   -0.6479 H   0  0  0  0  0  0  0  0  0  0  0  0
    3.3768   -2.0645    0.6552 H   0  0  0  0  0  0  0  0  0  0  0  0
    4.6411   -0.0326    0.0032 H   0  0  0  0  0  0  0  0  0  0  0  0
  1  2  1  0  0  0  0
  1  3  1  0  0  0  0
  1 13  1  0  0  0  0
  1 14  1  0  0  0  0
  2  4  1  0  0  0  0
  2 15  1  0  0  0  0
  2 16  1  0  0  0  0
  3  5  1  0  0  0  0
  3 17  1  0  0  0  0
  3 18  1  0  0  0  0
  4  6  1  0  0  0  0
  4 19  1  0  0  0  0
  4 20  1  0  0  0  0
  5  6  2  0  0  0  0
  5  7  1  0  0  0  0
  6 21  1  0  0  0  0
  7  8  2  0  0  0  0
  7  9  1  0  0  0  0
  8 10  1  0  0  0  0
  8 22  1  0  0  0  0
  9 11  2  0  0  0  0
  9 23  1  0  0  0  0
 10 12  2  0  0  0  0
 10 24  1  0  0  0  0
 11 12  1  0  0  0  0
 11 25  1  0  0  0  0
 12 26  1  0  0  0  0
M  END
> <PUBCHEM_COMPOUND_CID>
13043

> <PUBCHEM_CONFORMER_RMSD>
0.4

> <PUBCHEM_CONFORMER_DIVERSEORDER>
1
2
3

> <PUBCHEM_MMFF94_PARTIAL_CHARGES>
16
10 -0.15
11 -0.15
12 -0.15
21 0.15
22 0.15
23 0.15
24 0.15
25 0.15
26 0.15
3 0.14
4 0.14
5 -0.17
6 -0.29
7 0.03
8 -0.15
9 -0.15

> <PUBCHEM_EFFECTIVE_ROTOR_COUNT>
1.8

> <PUBCHEM_PHARMACOPHORE_FEATURES>
2
6 1 2 3 4 5 6 rings
6 7 8 9 10 11 12 rings

> <PUBCHEM_HEAVY_ATOM_COUNT>
12

> <PUBCHEM_ATOM_DEF_STEREO_COUNT>
0

> <PUBCHEM_ATOM_UDEF_STEREO_COUNT>
0

> <PUBCHEM_BOND_DEF_STEREO_COUNT>
0

> <PUBCHEM_BOND_UDEF_STEREO_COUNT>
0

> <PUBCHEM_ISOTOPIC_ATOM_COUNT>
0

> <PUBCHEM_COMPONENT_COUNT>
1

> <PUBCHEM_CACTVS_TAUTO_COUNT>
1

> <PUBCHEM_CONFORMER_ID>
000032F300000001

> <PUBCHEM_MMFF94_ENERGY>
22.8086

> <PUBCHEM_FEATURE_SELFOVERLAP>
10.149

> <PUBCHEM_SHAPE_FINGERPRINT>
10608611 8 18410570686632892272
11132069 177 18342170055399441096
12251169 10 18410855442948292616
12932764 1 17846212293270615491
13380535 76 18410294713519824330
14144814 61 18410011022318402803
14325111 11 18410294700639891865
15442244 35 18194401095964256378
15536298 74 18341895190968106082
15669948 3 18130784607200954303
15775835 57 18411426110973996489
16945 1 18337390564258054392
17844478 74 17385727971778285253
18186145 218 17894910719779491382
19422 9 18410857663504660271
200 152 18341037588935982991
20279233 1 15791727516269948547
20645477 70 18261384508249170423
20871998 184 17988364866392908127
20871998 22 18050002195672085146
21267235 1 18410583880767001426
21501502 16 18411136939410395780
22445834 79 18335419023987793099
2255824 54 18041000639930128314
23402539 116 17988634178227808805
23402655 69 18408321060098857477
23463225 33 18410010996654256422
23552423 10 18334574672029718591
23559900 14 17989485187448027554
2748010 2 17113535909578962916
3248919 1 17821730571677392104
3312278 4 18337392754939574619
5104073 3 18410856555344829776
57096353 35 18338516472733752684
7364860 26 18343865515789269410
77492 1 18410855464428403855
8030462 33 18335988648404561004

> <PUBCHEM_SHAPE_MULTIPOLES>
246.95
6.3
1.54
0.72
0.26
0.02
0.02
-0.03
-0.09
0.06
0.03
0.07
-0.03
-0.63

> <PUBCHEM_SHAPE_SELFOVERLAP>
519.097

> <PUBCHEM_SHAPE_VOLUME>
132.6

> <PUBCHEM_COORDINATE_TYPE>
2
5
10

$$$$
