22121
  -OEChem-11012401273D

 24 25  0     0  0  0  0  0  0999 V2000
    0.4167    1.2290    0.0012 N   0  0  0  0  0  0  0  0  0  0  0  0
    0.6245   -0.9838    0.0010 N   0  0  0  0  0  0  0  0  0  0  0  0
    2.7329    0.3493   -0.0003 C   0  0  0  0  0  0  0  0  0  0  0  0
    1.2700    0.1609    0.0011 C   0  0  0  0  0  0  0  0  0  0  0  0
   -0.8648    0.7411    0.0005 C   0  0  0  0  0  0  0  0  0  0  0  0
   -0.7085   -0.6422    0.0004 C   0  0  0  0  0  0  0  0  0  0  0  0
    3.4164   -0.2287   -1.2618 C   0  0  0  0  0  0  0  0  0  0  0  0
    3.4191   -0.2300    1.2592 C   0  0  0  0  0  0  0  0  0  0  0  0
   -2.1094    1.3718    0.0000 C   0  0  0  0  0  0  0  0  0  0  0  0
   -1.8507   -1.4605   -0.0001 C   0  0  0  0  0  0  0  0  0  0  0  0
   -3.2355    0.5421   -0.0007 C   0  0  0  0  0  0  0  0  0  0  0  0
   -3.1108   -0.8492   -0.0006 C   0  0  0  0  0  0  0  0  0  0  0  0
    2.9482    1.4271    0.0000 H   0  0  0  0  0  0  0  0  0  0  0  0
    0.6788    2.2060    0.0011 H   0  0  0  0  0  0  0  0  0  0  0  0
    3.2827   -1.3146   -1.3202 H   0  0  0  0  0  0  0  0  0  0  0  0
    4.4902   -0.0144   -1.2558 H   0  0  0  0  0  0  0  0  0  0  0  0
    2.9862    0.2104   -2.1686 H   0  0  0  0  0  0  0  0  0  0  0  0
    2.9907    0.2081    2.1674 H   0  0  0  0  0  0  0  0  0  0  0  0
    4.4928   -0.0156    1.2513 H   0  0  0  0  0  0  0  0  0  0  0  0
    3.2856   -1.3160    1.3167 H   0  0  0  0  0  0  0  0  0  0  0  0
   -2.2037    2.4518    0.0001 H   0  0  0  0  0  0  0  0  0  0  0  0
   -1.7642   -2.5424   -0.0002 H   0  0  0  0  0  0  0  0  0  0  0  0
   -4.2264    0.9895   -0.0011 H   0  0  0  0  0  0  0  0  0  0  0  0
   -4.0046   -1.4677   -0.0010 H   0  0  0  0  0  0  0  0  0  0  0  0
  1  4  1  0  0  0  0
  1  5  1  0  0  0  0
  1 14  1  0  0  0  0
  2  4  2  0  0  0  0
  2  6  1  0  0  0  0
  3  4  1  0  0  0  0
  3  7  1  0  0  0  0
  3  8  1  0  0  0  0
  3 13  1  0  0  0  0
  5  6  1  0  0  0  0
  5  9  2  0  0  0  0
  6 10  2  0  0  0  0
  7 15  1  0  0  0  0
  7 16  1  0  0  0  0
  7 17  1  0  0  0  0
  8 18  1  0  0  0  0
  8 19  1  0  0  0  0
  8 20  1  0  0  0  0
  9 11  1  0  0  0  0
  9 21  1  0  0  0  0
 10 12  1  0  0  0  0
 10 22  1  0  0  0  0
 11 12  2  0  0  0  0
 11 23  1  0  0  0  0
 12 24  1  0  0  0  0
M  END
> <PUBCHEM_COMPOUND_CID>
22121

> <PUBCHEM_CONFORMER_RMSD>
0.4

> <PUBCHEM_CONFORMER_DIVERSEORDER>
1
2
3

> <PUBCHEM_MMFF94_PARTIAL_CHARGES>
15
1 0.03
10 -0.15
11 -0.15
12 -0.15
14 0.27
2 -0.57
21 0.15
22 0.15
23 0.15
24 0.15
3 0.18
4 0.01
5 -0.15
6 0.23
9 -0.15

> <PUBCHEM_EFFECTIVE_ROTOR_COUNT>
1

> <PUBCHEM_PHARMACOPHORE_FEATURES>
5
1 1 donor
3 1 2 4 cation
3 3 7 8 hydrophobe
5 1 2 4 5 6 rings
6 5 6 9 10 11 12 rings

> <PUBCHEM_HEAVY_ATOM_COUNT>
12

> <PUBCHEM_ATOM_DEF_STEREO_COUNT>
0

> <PUBCHEM_ATOM_UDEF_STEREO_COUNT>
0

> <PUBCHEM_BOND_DEF_STEREO_COUNT>
0

> <PUBCHEM_BOND_UDEF_STEREO_COUNT>
0

> <PUBCHEM_ISOTOPIC_ATOM_COUNT>
0

> <PUBCHEM_COMPONENT_COUNT>
1

> <PUBCHEM_CACTVS_TAUTO_COUNT>
2

> <PUBCHEM_CONFORMER_ID>
0000566900000001

> <PUBCHEM_MMFF94_ENERGY>
16.4095

> <PUBCHEM_FEATURE_SELFOVERLAP>
25.479

> <PUBCHEM_SHAPE_FINGERPRINT>
10465860 71 18266200425187120772
10857977 72 18343013423757075296
11132069 177 18413666907176330545
11206711 2 18408035221809699773
11543360 7 15575277726172632803
12032990 46 18342465858434647335
12932764 1 17822008713859876796
13024252 1 15502375625911066833
13296908 3 17917996083291136054
13380535 76 18410851028160126023
14144814 61 18334293167040919546
14325111 11 18410856559771820768
14993402 34 17967256411575477165
15219456 202 17775567533325609678
15669948 3 18337109067933458702
16945 1 18410573981115011653
18175812 5 17775287170571401060
18186145 218 17775007847262613704
19026448 4 16702302351647480169
19026448 5 16660363679629220205
19422 9 17603586326555064682
20279233 1 17846777408156670334
20645464 45 17917419934734441594
20645476 183 17604442897779719414
20645477 70 16486977233101428252
20715346 28 17775284988785991206
20871998 184 18129946801079403455
23402539 116 18200861938448750541
23402655 69 18196354946130084549
23463225 33 18187921734097831282
23552423 10 17970912399486252469
23559900 14 18272092665488276068
2748010 2 18122621927555341141
3248919 1 18060419118619030328
369184 2 15864070974815042417
474 4 16880206765281340700
57812782 119 17989202655112919864
6333449 129 18343298163183159365
7364860 26 18054513766347404308
77492 1 17676206866420134476
8030462 33 17822014228771724192

> <PUBCHEM_SHAPE_MULTIPOLES>
236.99
6
1.31
0.88
2.23
0.01
0
0.31
0
-0.88
0
0.94
0.06
0

> <PUBCHEM_SHAPE_SELFOVERLAP>
507.575

> <PUBCHEM_SHAPE_VOLUME>
131.8

> <PUBCHEM_COORDINATE_TYPE>
2
5
10

$$$$
