18184
  -OEChem-11012400343D

 32 31  0     0  0  0  0  0  0999 V2000
   -0.8762   -1.1977   -0.9373 F   0  0  0  0  0  0  0  0  0  0  0  0
   -0.9036    0.9711   -1.1502 F   0  0  0  0  0  0  0  0  0  0  0  0
    0.8790    1.1981    0.9342 F   0  0  0  0  0  0  0  0  0  0  0  0
    0.9063   -0.9707    1.1471 F   0  0  0  0  0  0  0  0  0  0  0  0
   -1.5245   -0.9398    1.7441 F   0  0  0  0  0  0  0  0  0  0  0  0
   -1.5518    1.2228    1.5319 F   0  0  0  0  0  0  0  0  0  0  0  0
    1.5281    0.9401   -1.7470 F   0  0  0  0  0  0  0  0  0  0  0  0
    1.5553   -1.2226   -1.5349 F   0  0  0  0  0  0  0  0  0  0  0  0
   -3.9282    0.0177    1.6805 F   0  0  0  0  0  0  0  0  0  0  0  0
    3.9320   -0.0174   -1.6825 F   0  0  0  0  0  0  0  0  0  0  0  0
   -3.0810    1.3762   -1.4547 F   0  0  0  0  0  0  0  0  0  0  0  0
   -3.5605    2.3553    0.4296 F   0  0  0  0  0  0  0  0  0  0  0  0
   -5.0658    1.1532   -0.5759 F   0  0  0  0  0  0  0  0  0  0  0  0
   -3.4381   -2.3620    0.5484 F   0  0  0  0  0  0  0  0  0  0  0  0
   -4.9973   -1.2672   -0.5044 F   0  0  0  0  0  0  0  0  0  0  0  0
   -3.0233   -1.4563   -1.3929 F   0  0  0  0  0  0  0  0  0  0  0  0
    3.5775   -2.3531   -0.4379 F   0  0  0  0  0  0  0  0  0  0  0  0
    5.0649   -1.1459    0.5878 F   0  0  0  0  0  0  0  0  0  0  0  0
    3.0727   -1.3844    1.4453 F   0  0  0  0  0  0  0  0  0  0  0  0
    2.9891    1.4390    1.3770 F   0  0  0  0  0  0  0  0  0  0  0  0
    4.9897    1.2684    0.5364 F   0  0  0  0  0  0  0  0  0  0  0  0
    3.4408    2.3735   -0.5320 F   0  0  0  0  0  0  0  0  0  0  0  0
   -0.7176   -0.0341   -0.2592 C   0  0  0  0  0  0  0  0  0  0  0  0
    0.7207    0.0345    0.2560 C   0  0  0  0  0  0  0  0  0  0  0  0
   -1.7651    0.0611    0.8472 C   0  0  0  0  0  0  0  0  0  0  0  0
    1.7683   -0.0608   -0.8501 C   0  0  0  0  0  0  0  0  0  0  0  0
   -3.2580    0.0060    0.4784 C   0  0  0  0  0  0  0  0  0  0  0  0
    3.2611   -0.0057   -0.4807 C   0  0  0  0  0  0  0  0  0  0  0  0
   -3.7492    1.2252   -0.2907 C   0  0  0  0  0  0  0  0  0  0  0  0
   -3.6733   -1.2796   -0.2242 C   0  0  0  0  0  0  0  0  0  0  0  0
    3.7518   -1.2248    0.2887 C   0  0  0  0  0  0  0  0  0  0  0  0
    3.6763    1.2800    0.2221 C   0  0  0  0  0  0  0  0  0  0  0  0
  1 23  1  0  0  0  0
  2 23  1  0  0  0  0
  3 24  1  0  0  0  0
  4 24  1  0  0  0  0
  5 25  1  0  0  0  0
  6 25  1  0  0  0  0
  7 26  1  0  0  0  0
  8 26  1  0  0  0  0
  9 27  1  0  0  0  0
 10 28  1  0  0  0  0
 11 29  1  0  0  0  0
 12 29  1  0  0  0  0
 13 29  1  0  0  0  0
 14 30  1  0  0  0  0
 15 30  1  0  0  0  0
 16 30  1  0  0  0  0
 17 31  1  0  0  0  0
 18 31  1  0  0  0  0
 19 31  1  0  0  0  0
 20 32  1  0  0  0  0
 21 32  1  0  0  0  0
 22 32  1  0  0  0  0
 23 24  1  0  0  0  0
 23 25  1  0  0  0  0
 24 26  1  0  0  0  0
 25 27  1  0  0  0  0
 26 28  1  0  0  0  0
 27 29  1  0  0  0  0
 27 30  1  0  0  0  0
 28 31  1  0  0  0  0
 28 32  1  0  0  0  0
M  END
> <PUBCHEM_COMPOUND_CID>
18184

> <PUBCHEM_CONFORMER_RMSD>
1

> <PUBCHEM_CONFORMER_DIVERSEORDER>
1
37
38
9
36
8
41
55
29
28
6
40
24
16
39
7
25
10
33
53
30
52
54
12
13
23
2
27
4
21
22
5
34
14
35
3
15
45
51
17
18
19
32
47
43
31
26
20
11
57
56
50
49
46
42
48
44

> <PUBCHEM_MMFF94_PARTIAL_CHARGES>
32
1 -0.34
10 -0.34
11 -0.34
12 -0.34
13 -0.34
14 -0.34
15 -0.34
16 -0.34
17 -0.34
18 -0.34
19 -0.34
2 -0.34
20 -0.34
21 -0.34
22 -0.34
23 0.68
24 0.68
25 0.68
26 0.68
27 0.34
28 0.34
29 1.02
3 -0.34
30 1.02
31 1.02
32 1.02
4 -0.34
5 -0.34
6 -0.34
7 -0.34
8 -0.34
9 -0.34

> <PUBCHEM_EFFECTIVE_ROTOR_COUNT>
9

> <PUBCHEM_PHARMACOPHORE_FEATURES>
0

> <PUBCHEM_HEAVY_ATOM_COUNT>
32

> <PUBCHEM_ATOM_DEF_STEREO_COUNT>
0

> <PUBCHEM_ATOM_UDEF_STEREO_COUNT>
0

> <PUBCHEM_BOND_DEF_STEREO_COUNT>
0

> <PUBCHEM_BOND_UDEF_STEREO_COUNT>
0

> <PUBCHEM_ISOTOPIC_ATOM_COUNT>
0

> <PUBCHEM_COMPONENT_COUNT>
1

> <PUBCHEM_CACTVS_TAUTO_COUNT>
1

> <PUBCHEM_CONFORMER_ID>
0000470800000001

> <PUBCHEM_MMFF94_ENERGY>
47.3533

> <PUBCHEM_FEATURE_SELFOVERLAP>
0

> <PUBCHEM_SHAPE_FINGERPRINT>
10366900 7 18041848423334853068
10646746 165 18410575076157741844
10863032 1 18411699876473640417
1100329 8 16239252620445883944
11370993 70 18201438051939292679
11405975 8 18410012100350029920
11552529 35 17774156941527934775
11578080 2 18265593485741498413
12107183 9 17834393423671722032
121448 382 17749666398129596203
12236239 1 18408601457001755834
12403814 3 18271809064265480911
12507557 5 18060132146263496688
12553582 1 15123511423586017793
12633257 1 18130515128125754777
12670546 56 18261106378919633799
12788726 201 17274263816982805033
128620 24 15913329095612800176
13167823 11 18410290315452077787
13224815 77 18342181089138717392
13583140 156 18201711894568759233
13631057 29 17912643806589981790
13675066 3 18113344102147548153
14004511 7 17967820392648226689
14289901 80 18336829787584660128
15309172 13 13470695823687204317
15788980 27 18261114058178701834
16945 1 15913326905147785216
17349148 13 16415477138349877582
17492 89 18411985762403759599
18186145 218 18271536342052291740
19862831 5 17894633621432341331
200 152 18342453751095880663
20645477 70 18272654528467071654
20715895 44 17983859986886693921
21033648 29 18335124376341578544
22393880 68 18343310266459301590
23402539 116 18113896052652781812
23557571 272 18411417349699726569
23559900 14 18412825759680616410
2838139 119 18117546346202405509
296302 2 18342460356539219636
4214541 1 18408884018842387325
474 4 18119531183390792924
5104073 3 18342459248448292051
5283173 99 18339354176647298893
633830 44 16370733607953301964
7495541 125 17846213418531019802
9709674 26 18260835912060426914
9971528 1 17676205771388214204

> <PUBCHEM_SHAPE_MULTIPOLES>
498.52
10.14
2
1.45
0.01
0
0.01
-0.01
-0.01
0
0
0
0
0

> <PUBCHEM_SHAPE_SELFOVERLAP>
1096.75

> <PUBCHEM_SHAPE_VOLUME>
262.6

> <PUBCHEM_COORDINATE_TYPE>
2
5
10

$$$$
