14300
  -OEChem-11012401173D

 14 14  0     0  0  0  0  0  0999 V2000
    3.3679    0.0000   -0.0004 O   0  5  0  0  0  0  0  0  0  0  0  0
   -2.7220    1.0976    0.0000 O   0  5  0  0  0  0  0  0  0  0  0  0
   -2.7220   -1.0976   -0.0003 O   0  0  0  0  0  0  0  0  0  0  0  0
    2.0944    0.0000    0.0001 N   0  3  0  0  0  0  0  0  0  0  0  0
   -2.1139    0.0000    0.0001 N   0  3  0  0  0  0  0  0  0  0  0  0
   -0.6940    0.0000    0.0001 C   0  0  0  0  0  0  0  0  0  0  0  0
    0.0020    1.2038    0.0000 C   0  0  0  0  0  0  0  0  0  0  0  0
    0.0020   -1.2038    0.0001 C   0  0  0  0  0  0  0  0  0  0  0  0
    1.3929    1.1903    0.0001 C   0  0  0  0  0  0  0  0  0  0  0  0
    1.3929   -1.1903    0.0002 C   0  0  0  0  0  0  0  0  0  0  0  0
   -0.5013    2.1665    0.0000 H   0  0  0  0  0  0  0  0  0  0  0  0
   -0.5013   -2.1665    0.0002 H   0  0  0  0  0  0  0  0  0  0  0  0
    2.0046    2.0807   -0.0001 H   0  0  0  0  0  0  0  0  0  0  0  0
    2.0046   -2.0807    0.0001 H   0  0  0  0  0  0  0  0  0  0  0  0
  1  4  1  0  0  0  0
  2  5  1  0  0  0  0
  3  5  2  0  0  0  0
  4  9  2  0  0  0  0
  4 10  1  0  0  0  0
  5  6  1  0  0  0  0
  6  7  2  0  0  0  0
  6  8  1  0  0  0  0
  7  9  1  0  0  0  0
  7 11  1  0  0  0  0
  8 10  2  0  0  0  0
  8 12  1  0  0  0  0
  9 13  1  0  0  0  0
 10 14  1  0  0  0  0
M  CHG  4   1  -1   2  -1   4   1   5   1
M  END
> <PUBCHEM_COMPOUND_CID>
14300

> <PUBCHEM_CONFORMER_RMSD>
0.4

> <PUBCHEM_CONFORMER_DIVERSEORDER>
1

> <PUBCHEM_MMFF94_PARTIAL_CHARGES>
14
1 -0.75
10 -0.06
11 0.15
12 0.15
13 0.15
14 0.15
2 -0.52
3 -0.52
4 0.57
5 0.91
6 0.13
7 -0.15
8 -0.15
9 -0.06

> <PUBCHEM_EFFECTIVE_ROTOR_COUNT>
1

> <PUBCHEM_PHARMACOPHORE_FEATURES>
5
1 1 anion
1 2 acceptor
1 2 anion
1 3 acceptor
6 4 6 7 8 9 10 rings

> <PUBCHEM_HEAVY_ATOM_COUNT>
10

> <PUBCHEM_ATOM_DEF_STEREO_COUNT>
0

> <PUBCHEM_ATOM_UDEF_STEREO_COUNT>
0

> <PUBCHEM_BOND_DEF_STEREO_COUNT>
0

> <PUBCHEM_BOND_UDEF_STEREO_COUNT>
0

> <PUBCHEM_ISOTOPIC_ATOM_COUNT>
0

> <PUBCHEM_COMPONENT_COUNT>
1

> <PUBCHEM_CACTVS_TAUTO_COUNT>
1

> <PUBCHEM_CONFORMER_ID>
000037DC00000001

> <PUBCHEM_MMFF94_ENERGY>
27.0645

> <PUBCHEM_FEATURE_SELFOVERLAP>
25.453

> <PUBCHEM_SHAPE_FINGERPRINT>
10857977 72 18411127065296439274
12897270 3 18411417293421754253
14325111 11 18410856581288861760
16945 1 18410575084742200196
193761 8 17473825026667282300
21040471 1 18338517572430028640
23235685 24 18410288108123464392
23402655 69 18196354954477341549
23552423 10 18261397723594086087
2748010 2 18194401323381271172
29004967 10 18408608045528852946
5084963 1 18271246130953819577
528886 8 18411131407550573409

> <PUBCHEM_SHAPE_MULTIPOLES>
178.23
4
1.43
0.57
0.25
0
0
0
0
0.12
0
-0.02
0
0

> <PUBCHEM_SHAPE_SELFOVERLAP>
371.557

> <PUBCHEM_SHAPE_VOLUME>
101.1

> <PUBCHEM_COORDINATE_TYPE>
2
5
10

$$$$
