92524148
  -OEChem-11012400583D

 50 51  0     1  0  0  0  0  0999 V2000
    2.4959   -0.7989    1.3704 S   0  0  0  0  0  0  0  0  0  0  0  0
   -0.9430   -3.5229   -0.0676 O   0  0  0  0  0  0  0  0  0  0  0  0
    0.2823   -3.3326   -2.0167 O   0  0  0  0  0  0  0  0  0  0  0  0
    3.9875    2.1221   -0.9414 O   0  0  0  0  0  0  0  0  0  0  0  0
    2.7965    2.9484    0.8428 O   0  0  0  0  0  0  0  0  0  0  0  0
   -0.4260    2.8492   -0.8962 O   0  0  0  0  0  0  0  0  0  0  0  0
    1.6186   -1.2335   -1.1173 N   0  0  0  0  0  0  0  0  0  0  0  0
    0.6880    1.2575    0.3755 N   0  0  0  0  0  0  0  0  0  0  0  0
    1.4202   -2.2515    1.0866 C   0  0  0  0  0  0  0  0  0  0  0  0
    0.6580   -1.8237   -0.1810 C   0  0  2  0  0  0  0  0  0  0  0  0
    2.4276   -0.2632   -0.3714 C   0  0  1  0  0  0  0  0  0  0  0  0
    1.8539    1.1478   -0.4613 C   0  0  2  0  0  0  0  0  0  0  0  0
    0.4819   -2.4468    2.2776 C   0  0  0  0  0  0  0  0  0  0  0  0
    2.3231   -3.4802    0.9073 C   0  0  0  0  0  0  0  0  0  0  0  0
   -0.0010   -2.9693   -0.8831 C   0  0  0  0  0  0  0  0  0  0  0  0
    2.9176    2.1717   -0.0992 C   0  0  0  0  0  0  0  0  0  0  0  0
   -0.3699    2.1113    0.0842 C   0  0  0  0  0  0  0  0  0  0  0  0
   -1.4664    2.0215    1.1281 C   0  0  0  0  0  0  0  0  0  0  0  0
   -1.6546   -4.6362   -0.6173 C   0  0  0  0  0  0  0  0  0  0  0  0
   -2.7923    1.5835    0.5646 C   0  0  0  0  0  0  0  0  0  0  0  0
    5.0324    3.0640   -0.6767 C   0  0  0  0  0  0  0  0  0  0  0  0
   -3.6992    2.5339    0.0954 C   0  0  0  0  0  0  0  0  0  0  0  0
   -3.1135    0.2273    0.5118 C   0  0  0  0  0  0  0  0  0  0  0  0
   -4.9275    2.1278   -0.4264 C   0  0  0  0  0  0  0  0  0  0  0  0
   -4.3417   -0.1788   -0.0100 C   0  0  0  0  0  0  0  0  0  0  0  0
   -5.2486    0.7715   -0.4790 C   0  0  0  0  0  0  0  0  0  0  0  0
   -0.1394   -1.1025    0.0300 H   0  0  0  0  0  0  0  0  0  0  0  0
    3.4451   -0.2966   -0.7748 H   0  0  0  0  0  0  0  0  0  0  0  0
    2.2393   -1.9681   -1.4585 H   0  0  0  0  0  0  0  0  0  0  0  0
    1.5591    1.3782   -1.4938 H   0  0  0  0  0  0  0  0  0  0  0  0
    1.0442   -2.5249    3.2163 H   0  0  0  0  0  0  0  0  0  0  0  0
   -0.2229   -1.6138    2.3834 H   0  0  0  0  0  0  0  0  0  0  0  0
   -0.1022   -3.3681    2.1948 H   0  0  0  0  0  0  0  0  0  0  0  0
    1.7281   -4.3811    0.7191 H   0  0  0  0  0  0  0  0  0  0  0  0
    3.0258   -3.3757    0.0734 H   0  0  0  0  0  0  0  0  0  0  0  0
    2.9114   -3.6753    1.8123 H   0  0  0  0  0  0  0  0  0  0  0  0
    0.6907    0.7566    1.2591 H   0  0  0  0  0  0  0  0  0  0  0  0
   -1.5622    3.0143    1.5863 H   0  0  0  0  0  0  0  0  0  0  0  0
   -1.1837    1.3514    1.9491 H   0  0  0  0  0  0  0  0  0  0  0  0
   -2.3720   -4.9835    0.1309 H   0  0  0  0  0  0  0  0  0  0  0  0
   -0.9623   -5.4522   -0.8456 H   0  0  0  0  0  0  0  0  0  0  0  0
   -2.2021   -4.3302   -1.5138 H   0  0  0  0  0  0  0  0  0  0  0  0
    5.8199    2.9157   -1.4204 H   0  0  0  0  0  0  0  0  0  0  0  0
    5.4528    2.8927    0.3189 H   0  0  0  0  0  0  0  0  0  0  0  0
    4.6525    4.0862   -0.7662 H   0  0  0  0  0  0  0  0  0  0  0  0
   -3.4599    3.5934    0.1295 H   0  0  0  0  0  0  0  0  0  0  0  0
   -2.4168   -0.5227    0.8758 H   0  0  0  0  0  0  0  0  0  0  0  0
   -5.6335    2.8676   -0.7922 H   0  0  0  0  0  0  0  0  0  0  0  0
   -4.5916   -1.2349   -0.0509 H   0  0  0  0  0  0  0  0  0  0  0  0
   -6.2049    0.4553   -0.8854 H   0  0  0  0  0  0  0  0  0  0  0  0
  1  9  1  0  0  0  0
  1 11  1  0  0  0  0
  2 15  1  0  0  0  0
  2 19  1  0  0  0  0
  3 15  2  0  0  0  0
  4 16  1  0  0  0  0
  4 21  1  0  0  0  0
  5 16  2  0  0  0  0
  6 17  2  0  0  0  0
  7 10  1  0  0  0  0
  7 11  1  0  0  0  0
  7 29  1  0  0  0  0
  8 12  1  0  0  0  0
  8 17  1  0  0  0  0
  8 37  1  0  0  0  0
  9 10  1  0  0  0  0
  9 13  1  0  0  0  0
  9 14  1  0  0  0  0
 10 15  1  0  0  0  0
 10 27  1  0  0  0  0
 11 12  1  0  0  0  0
 11 28  1  0  0  0  0
 12 16  1  0  0  0  0
 12 30  1  0  0  0  0
 13 31  1  0  0  0  0
 13 32  1  0  0  0  0
 13 33  1  0  0  0  0
 14 34  1  0  0  0  0
 14 35  1  0  0  0  0
 14 36  1  0  0  0  0
 17 18  1  0  0  0  0
 18 20  1  0  0  0  0
 18 38  1  0  0  0  0
 18 39  1  0  0  0  0
 19 40  1  0  0  0  0
 19 41  1  0  0  0  0
 19 42  1  0  0  0  0
 20 22  2  0  0  0  0
 20 23  1  0  0  0  0
 21 43  1  0  0  0  0
 21 44  1  0  0  0  0
 21 45  1  0  0  0  0
 22 24  1  0  0  0  0
 22 46  1  0  0  0  0
 23 25  2  0  0  0  0
 23 47  1  0  0  0  0
 24 26  2  0  0  0  0
 24 48  1  0  0  0  0
 25 26  1  0  0  0  0
 25 49  1  0  0  0  0
 26 50  1  0  0  0  0
M  END
> <PUBCHEM_COMPOUND_CID>
92524148

> <PUBCHEM_CONFORMER_RMSD>
1

> <PUBCHEM_CONFORMER_DIVERSEORDER>
1
58
27
37
142
147
70
80
53
62
105
124
109
44
113
33
83
127
134
138
104
122
21
114
99
28
120
92
13
128
101
121
148
145
96
140
100
146
3
89
50
112
129
143
74
119
77
123
125
102
46
69
82
118
126
137
97
75
117
103
71
26
91
133
68
51
108
16
136
94
61
149
9
135
107
78
116
17
66
23
111
32
132
41
43
47
115
5
22
39
73
84
98
25
30
65
7
93
144
57
88
95
81
86
40
72
85
106
10
130
42
29
90
131
79
20
76
87
14
45
52
15
11
110
2
8
48
24
67
35
18
141
38
4
36
59
6
12
34
31
63
64
60
49
139
19
55
56
54

> <PUBCHEM_MMFF94_PARTIAL_CHARGES>
31
1 -0.46
10 0.33
11 0.5
12 0.36
15 0.66
16 0.66
17 0.57
18 0.2
19 0.28
2 -0.43
20 -0.14
21 0.28
22 -0.15
23 -0.15
24 -0.15
25 -0.15
26 -0.15
29 0.36
3 -0.57
37 0.37
4 -0.43
46 0.15
47 0.15
48 0.15
49 0.15
5 -0.57
50 0.15
6 -0.57
7 -0.9
8 -0.73
9 0.23

> <PUBCHEM_EFFECTIVE_ROTOR_COUNT>
10

> <PUBCHEM_PHARMACOPHORE_FEATURES>
9
1 3 acceptor
1 5 acceptor
1 6 acceptor
1 7 cation
1 7 donor
1 8 donor
3 9 13 14 hydrophobe
5 1 7 9 10 11 rings
6 20 22 23 24 25 26 rings

> <PUBCHEM_HEAVY_ATOM_COUNT>
26

> <PUBCHEM_ATOM_DEF_STEREO_COUNT>
3

> <PUBCHEM_ATOM_UDEF_STEREO_COUNT>
0

> <PUBCHEM_BOND_DEF_STEREO_COUNT>
0

> <PUBCHEM_BOND_UDEF_STEREO_COUNT>
0

> <PUBCHEM_ISOTOPIC_ATOM_COUNT>
0

> <PUBCHEM_COMPONENT_COUNT>
1

> <PUBCHEM_CACTVS_TAUTO_COUNT>
7

> <PUBCHEM_CONFORMER_ID>
0583CE7400000001

> <PUBCHEM_MMFF94_ENERGY>
64.6387

> <PUBCHEM_FEATURE_SELFOVERLAP>
45.671

> <PUBCHEM_SHAPE_FINGERPRINT>
10675989 125 18048313345864874069
10940486 97 15598942051260701734
1100329 8 18410004438861713778
11513181 2 18202564007506864919
12156800 1 17767092651964121027
12160290 23 17617981291842512312
12553582 1 17619082633162929049
12788726 201 17399508417461042408
13083527 12 18116136780109726640
13140716 1 18266444581330139674
13150687 139 18411989074440223676
138480 1 17835524821416427247
14028597 1 17250017661318109288
14117953 113 17764579929188354487
14866123 147 18337102480276358314
15338160 23 17262687363965780328
15422964 175 17404011527081975636
15664445 248 17833835967218835721
17138139 8 17843380020596221605
18681886 176 18268984298297322546
20197701 30 18409731798358807476
20567600 347 18260831526682455553
20645477 70 18337673001814367705
20775530 9 17261593972744793583
21315764 371 16556459797109457431
21421861 104 17980497675896851017
21796203 349 17618542819918971635
22393880 68 18411143502395237797
2255824 54 18266745670921499944
23558518 356 17834106829648771772
23559900 14 18055062160777751537
238 59 18265067850510534449
3052486 1 17976527639929646056
4280585 95 17476084523026192710
59755656 520 18263923401284155268
9709674 26 18193842535857847209

> <PUBCHEM_SHAPE_MULTIPOLES>
499.61
8.26
5.94
1.39
8.48
4.2
0.25
-7.78
-0.93
-3.66
-1.15
-0.7
0.97
-1.33

> <PUBCHEM_SHAPE_SELFOVERLAP>
1020.673

> <PUBCHEM_SHAPE_VOLUME>
290.7

> <PUBCHEM_COORDINATE_TYPE>
2
5
10

$$$$
