10977233
  -OEChem-11012401083D

 36 36  0     1  0  0  0  0  0999 V2000
    1.0040   -1.7083   -0.3815 O   0  0  0  0  0  0  0  0  0  0  0  0
    1.0074    1.7066   -0.3814 O   0  0  0  0  0  0  0  0  0  0  0  0
   -0.4406   -1.7847    1.4198 O   0  0  0  0  0  0  0  0  0  0  0  0
   -0.4363    1.7846    1.4202 O   0  0  0  0  0  0  0  0  0  0  0  0
   -1.2630   -1.2913   -0.7911 C   0  0  2  0  0  0  0  0  0  0  0  0
   -1.2604    1.2931   -0.7905 C   0  0  1  0  0  0  0  0  0  0  0  0
   -0.9111    0.0006   -1.5353 C   0  0  0  0  0  0  0  0  0  0  0  0
   -2.6571   -1.2624   -0.1675 C   0  0  0  0  0  0  0  0  0  0  0  0
   -2.6543    1.2669   -0.1665 C   0  0  0  0  0  0  0  0  0  0  0  0
   -2.9282    0.0023    0.6419 C   0  0  0  0  0  0  0  0  0  0  0  0
   -0.2124   -1.6224    0.2286 C   0  0  0  0  0  0  0  0  0  0  0  0
   -0.2087    1.6220    0.2290 C   0  0  0  0  0  0  0  0  0  0  0  0
    2.1034   -2.0200    0.4800 C   0  0  0  0  0  0  0  0  0  0  0  0
    2.1075    2.0172    0.4797 C   0  0  0  0  0  0  0  0  0  0  0  0
    3.3730   -2.0790   -0.3423 C   0  0  0  0  0  0  0  0  0  0  0  0
    3.3768    2.0749   -0.3431 C   0  0  0  0  0  0  0  0  0  0  0  0
   -1.2467   -2.1250   -1.5069 H   0  0  0  0  0  0  0  0  0  0  0  0
   -1.2427    2.1268   -1.5061 H   0  0  0  0  0  0  0  0  0  0  0  0
    0.1310   -0.0003   -1.8738 H   0  0  0  0  0  0  0  0  0  0  0  0
   -1.5060    0.0015   -2.4601 H   0  0  0  0  0  0  0  0  0  0  0  0
   -2.8233   -2.1428    0.4650 H   0  0  0  0  0  0  0  0  0  0  0  0
   -3.3994   -1.3204   -0.9745 H   0  0  0  0  0  0  0  0  0  0  0  0
   -3.3968    1.3272   -0.9732 H   0  0  0  0  0  0  0  0  0  0  0  0
   -2.8185    2.1472    0.4667 H   0  0  0  0  0  0  0  0  0  0  0  0
   -3.9758    0.0033    0.9659 H   0  0  0  0  0  0  0  0  0  0  0  0
   -2.3273    0.0012    1.5571 H   0  0  0  0  0  0  0  0  0  0  0  0
    2.1954   -1.2452    1.2485 H   0  0  0  0  0  0  0  0  0  0  0  0
    1.9282   -2.9887    0.9614 H   0  0  0  0  0  0  0  0  0  0  0  0
    1.9336    2.9860    0.9611 H   0  0  0  0  0  0  0  0  0  0  0  0
    2.1990    1.2423    1.2482 H   0  0  0  0  0  0  0  0  0  0  0  0
    4.2414   -2.2770    0.2921 H   0  0  0  0  0  0  0  0  0  0  0  0
    3.3021   -2.8689   -1.0975 H   0  0  0  0  0  0  0  0  0  0  0  0
    3.5328   -1.1427   -0.8831 H   0  0  0  0  0  0  0  0  0  0  0  0
    4.2456    2.2720    0.2910 H   0  0  0  0  0  0  0  0  0  0  0  0
    3.5354    1.1384   -0.8839 H   0  0  0  0  0  0  0  0  0  0  0  0
    3.3065    2.8649   -1.0983 H   0  0  0  0  0  0  0  0  0  0  0  0
  1 11  1  0  0  0  0
  1 13  1  0  0  0  0
  2 12  1  0  0  0  0
  2 14  1  0  0  0  0
  3 11  2  0  0  0  0
  4 12  2  0  0  0  0
  5  7  1  0  0  0  0
  5  8  1  0  0  0  0
  5 11  1  0  0  0  0
  5 17  1  0  0  0  0
  6  7  1  0  0  0  0
  6  9  1  0  0  0  0
  6 12  1  0  0  0  0
  6 18  1  0  0  0  0
  7 19  1  0  0  0  0
  7 20  1  0  0  0  0
  8 10  1  0  0  0  0
  8 21  1  0  0  0  0
  8 22  1  0  0  0  0
  9 10  1  0  0  0  0
  9 23  1  0  0  0  0
  9 24  1  0  0  0  0
 10 25  1  0  0  0  0
 10 26  1  0  0  0  0
 13 15  1  0  0  0  0
 13 27  1  0  0  0  0
 13 28  1  0  0  0  0
 14 16  1  0  0  0  0
 14 29  1  0  0  0  0
 14 30  1  0  0  0  0
 15 31  1  0  0  0  0
 15 32  1  0  0  0  0
 15 33  1  0  0  0  0
 16 34  1  0  0  0  0
 16 35  1  0  0  0  0
 16 36  1  0  0  0  0
M  END
> <PUBCHEM_COMPOUND_CID>
10977233

> <PUBCHEM_CONFORMER_RMSD>
0.8

> <PUBCHEM_CONFORMER_DIVERSEORDER>
1
6
3
24
11
7
67
70
59
23
8
16
12
74
17
9
65
53
14
56
38
43
57
51
66
15
36
31
2
46
33
71
39
73
21
40
61
68
13
54
25
50
28
19
10
69
63
72
49
44
58
52
47
34
60
32
37
30
26
35
29
4
42
27
20
48
62
64
18
5
22
55
41
45

> <PUBCHEM_MMFF94_PARTIAL_CHARGES>
10
1 -0.43
11 0.66
12 0.66
13 0.28
14 0.28
2 -0.43
3 -0.57
4 -0.57
5 0.06
6 0.06

> <PUBCHEM_EFFECTIVE_ROTOR_COUNT>
7.2

> <PUBCHEM_PHARMACOPHORE_FEATURES>
3
1 3 acceptor
1 4 acceptor
6 5 6 7 8 9 10 rings

> <PUBCHEM_HEAVY_ATOM_COUNT>
16

> <PUBCHEM_ATOM_DEF_STEREO_COUNT>
2

> <PUBCHEM_ATOM_UDEF_STEREO_COUNT>
0

> <PUBCHEM_BOND_DEF_STEREO_COUNT>
0

> <PUBCHEM_BOND_UDEF_STEREO_COUNT>
0

> <PUBCHEM_ISOTOPIC_ATOM_COUNT>
0

> <PUBCHEM_COMPONENT_COUNT>
1

> <PUBCHEM_CACTVS_TAUTO_COUNT>
1

> <PUBCHEM_CONFORMER_ID>
00A77FD100000001

> <PUBCHEM_MMFF94_ENERGY>
15.4189

> <PUBCHEM_FEATURE_SELFOVERLAP>
15.223

> <PUBCHEM_SHAPE_FINGERPRINT>
10989021 7 18412535514259835815
12173636 292 17904484347874864356
14142880 1 17336454251622417952
16945 1 18191875741183218645
19868273 325 18122337986898572798
20905425 154 18269278022320281750
21501502 16 18411978078885887639
22344851 341 18334849507155775451
23419403 2 17680466387076858258
2748010 2 18335408058983622797
43471831 8 18192987338680244786
528862 383 18408316692280478593
57483677 51 18335698360307972234

> <PUBCHEM_SHAPE_MULTIPOLES>
305.8
4.64
3.1
1.13
2.22
0
-0.02
0
0.17
2.38
-0.32
-0.28
0
0

> <PUBCHEM_SHAPE_SELFOVERLAP>
605.86

> <PUBCHEM_SHAPE_VOLUME>
180.1

> <PUBCHEM_COORDINATE_TYPE>
2
5
10

$$$$
