284756
  -OEChem-11012400383D

 16 16  0     0  0  0  0  0  0999 V2000
   -0.1987    0.3117    0.3256 N   0  0  0  0  0  0  0  0  0  0  0  0
   -0.9501    1.3831    0.0921 N   0  0  0  0  0  0  0  0  0  0  0  0
   -2.0644   -0.4913   -0.3724 N   0  0  0  0  0  0  0  0  0  0  0  0
   -0.2960   -2.0358    0.2109 N   0  0  0  0  0  0  0  0  0  0  0  0
   -2.1023    0.8844   -0.3394 N   0  0  0  0  0  0  0  0  0  0  0  0
    1.1666    0.4742    0.8235 C   0  0  0  0  0  0  0  0  0  0  0  0
   -0.8650   -0.8227    0.0472 C   0  0  0  0  0  0  0  0  0  0  0  0
    2.1528    0.5795   -0.2979 C   0  0  0  0  0  0  0  0  0  0  0  0
    3.1571   -0.2831   -0.4897 C   0  0  0  0  0  0  0  0  0  0  0  0
    1.1851    1.3929    1.4215 H   0  0  0  0  0  0  0  0  0  0  0  0
    1.3815   -0.3563    1.5038 H   0  0  0  0  0  0  0  0  0  0  0  0
    2.0482    1.4159   -0.9844 H   0  0  0  0  0  0  0  0  0  0  0  0
   -0.8058   -2.8882    0.0013 H   0  0  0  0  0  0  0  0  0  0  0  0
    0.6575   -2.1679    0.5315 H   0  0  0  0  0  0  0  0  0  0  0  0
    3.8448   -0.1506   -1.3177 H   0  0  0  0  0  0  0  0  0  0  0  0
    3.3098   -1.1308    0.1692 H   0  0  0  0  0  0  0  0  0  0  0  0
  1  2  1  0  0  0  0
  1  6  1  0  0  0  0
  1  7  1  0  0  0  0
  2  5  2  0  0  0  0
  3  5  1  0  0  0  0
  3  7  2  0  0  0  0
  4  7  1  0  0  0  0
  4 13  1  0  0  0  0
  4 14  1  0  0  0  0
  6  8  1  0  0  0  0
  6 10  1  0  0  0  0
  6 11  1  0  0  0  0
  8  9  2  0  0  0  0
  8 12  1  0  0  0  0
  9 15  1  0  0  0  0
  9 16  1  0  0  0  0
M  END
> <PUBCHEM_COMPOUND_CID>
284756

> <PUBCHEM_CONFORMER_RMSD>
0.4

> <PUBCHEM_CONFORMER_DIVERSEORDER>
4
10
12
6
11
14
5
13
9
7
8
1
3
2

> <PUBCHEM_MMFF94_PARTIAL_CHARGES>
13
1 0.31
12 0.15
13 0.4
14 0.4
15 0.15
16 0.15
2 -0.42
3 -0.34
4 -0.88
6 0.39
7 0.27
8 -0.29
9 -0.3

> <PUBCHEM_EFFECTIVE_ROTOR_COUNT>
2

> <PUBCHEM_PHARMACOPHORE_FEATURES>
4
1 4 donor
1 9 hydrophobe
4 1 3 4 7 cation
5 1 2 3 5 7 rings

> <PUBCHEM_HEAVY_ATOM_COUNT>
9

> <PUBCHEM_ATOM_DEF_STEREO_COUNT>
0

> <PUBCHEM_ATOM_UDEF_STEREO_COUNT>
0

> <PUBCHEM_BOND_DEF_STEREO_COUNT>
0

> <PUBCHEM_BOND_UDEF_STEREO_COUNT>
0

> <PUBCHEM_ISOTOPIC_ATOM_COUNT>
0

> <PUBCHEM_COMPONENT_COUNT>
1

> <PUBCHEM_CACTVS_TAUTO_COUNT>
3

> <PUBCHEM_CONFORMER_ID>
0004585400000004

> <PUBCHEM_MMFF94_ENERGY>
6.8213

> <PUBCHEM_FEATURE_SELFOVERLAP>
20.297

> <PUBCHEM_SHAPE_FINGERPRINT>
12716758 59 18411697699299754944
12897270 3 18266186217509158156
16714656 1 18335984245931213649
20201158 50 17988929955239815390
21040471 1 18337095809242490681
23552423 10 18189333635882013698
29004967 10 16200434680259951048
369184 2 10735883841616994628
5084963 1 18272369775934370344

> <PUBCHEM_SHAPE_MULTIPOLES>
160.31
3.63
1.43
0.73
2.24
0.5
-0.06
-0.16
0.91
-0.53
-0.08
0.17
-0.03
0.13

> <PUBCHEM_SHAPE_SELFOVERLAP>
318.84

> <PUBCHEM_SHAPE_VOLUME>
94.7

> <PUBCHEM_COORDINATE_TYPE>
2
5
10

$$$$
