138795
  -OEChem-11012401283D

 48 48  0     0  0  0  0  0  0999 V2000
    2.8794   -2.0061    0.6565 O   0  0  0  0  0  0  0  0  0  0  0  0
    2.3095    2.3889    0.2253 O   0  0  0  0  0  0  0  0  0  0  0  0
   -2.8819   -2.0046    0.6544 O   0  0  0  0  0  0  0  0  0  0  0  0
   -2.3067    2.3908    0.2281 O   0  0  0  0  0  0  0  0  0  0  0  0
    3.0477   -2.0020   -1.6392 O   0  0  0  0  0  0  0  0  0  0  0  0
    3.5091    0.8483   -0.9940 O   0  0  0  0  0  0  0  0  0  0  0  0
   -3.0502   -1.9968   -1.6414 O   0  0  0  0  0  0  0  0  0  0  0  0
   -3.5079    0.8541   -0.9943 O   0  0  0  0  0  0  0  0  0  0  0  0
    1.2072   -0.9305   -0.5673 C   0  0  0  0  0  0  0  0  0  0  0  0
    1.2083    0.4628   -0.5013 C   0  0  0  0  0  0  0  0  0  0  0  0
   -1.2088   -0.9286   -0.5676 C   0  0  0  0  0  0  0  0  0  0  0  0
   -1.2078    0.4647   -0.5018 C   0  0  0  0  0  0  0  0  0  0  0  0
   -0.0013   -1.6262   -0.6003 C   0  0  0  0  0  0  0  0  0  0  0  0
    0.0008    1.1603   -0.4686 C   0  0  0  0  0  0  0  0  0  0  0  0
    2.4520   -1.6877   -0.6024 C   0  0  0  0  0  0  0  0  0  0  0  0
    2.4541    1.2181   -0.4656 C   0  0  0  0  0  0  0  0  0  0  0  0
   -2.4545   -1.6839   -0.6040 C   0  0  0  0  0  0  0  0  0  0  0  0
   -2.4524    1.2219   -0.4656 C   0  0  0  0  0  0  0  0  0  0  0  0
    4.0976   -2.7518    0.7541 C   0  0  0  0  0  0  0  0  0  0  0  0
    3.4684    3.2230    0.3295 C   0  0  0  0  0  0  0  0  0  0  0  0
   -4.0998   -2.7509    0.7506 C   0  0  0  0  0  0  0  0  0  0  0  0
   -3.4651    3.2253    0.3354 C   0  0  0  0  0  0  0  0  0  0  0  0
    4.4044   -3.0062    2.2145 C   0  0  0  0  0  0  0  0  0  0  0  0
    3.1141    4.4626    1.1229 C   0  0  0  0  0  0  0  0  0  0  0  0
   -4.4067   -3.0079    2.2105 C   0  0  0  0  0  0  0  0  0  0  0  0
   -3.1096    4.4626    1.1316 C   0  0  0  0  0  0  0  0  0  0  0  0
   -0.0021   -2.7131   -0.6516 H   0  0  0  0  0  0  0  0  0  0  0  0
    0.0015    2.2477   -0.4506 H   0  0  0  0  0  0  0  0  0  0  0  0
    3.9837   -3.7051    0.2265 H   0  0  0  0  0  0  0  0  0  0  0  0
    4.9119   -2.1783    0.2977 H   0  0  0  0  0  0  0  0  0  0  0  0
    4.2680    2.6725    0.8373 H   0  0  0  0  0  0  0  0  0  0  0  0
    3.8032    3.5072   -0.6742 H   0  0  0  0  0  0  0  0  0  0  0  0
   -3.9854   -3.7034    0.2215 H   0  0  0  0  0  0  0  0  0  0  0  0
   -4.9143   -2.1771    0.2950 H   0  0  0  0  0  0  0  0  0  0  0  0
   -4.2646    2.6738    0.8424 H   0  0  0  0  0  0  0  0  0  0  0  0
   -3.8006    3.5122   -0.6673 H   0  0  0  0  0  0  0  0  0  0  0  0
    3.5888   -3.5624    2.6882 H   0  0  0  0  0  0  0  0  0  0  0  0
    4.5020   -2.0606    2.7579 H   0  0  0  0  0  0  0  0  0  0  0  0
    5.3317   -3.5751    2.3260 H   0  0  0  0  0  0  0  0  0  0  0  0
    2.7598    4.1916    2.1229 H   0  0  0  0  0  0  0  0  0  0  0  0
    2.3016    5.0122    0.6362 H   0  0  0  0  0  0  0  0  0  0  0  0
    3.9790    5.1244    1.2217 H   0  0  0  0  0  0  0  0  0  0  0  0
   -4.5047   -2.0632    2.7555 H   0  0  0  0  0  0  0  0  0  0  0  0
   -3.5909   -3.5645    2.6835 H   0  0  0  0  0  0  0  0  0  0  0  0
   -5.3337   -3.5774    2.3210 H   0  0  0  0  0  0  0  0  0  0  0  0
   -2.2972    5.0130    0.6457 H   0  0  0  0  0  0  0  0  0  0  0  0
   -2.7546    4.1890    2.1307 H   0  0  0  0  0  0  0  0  0  0  0  0
   -3.9741    5.1246    1.2328 H   0  0  0  0  0  0  0  0  0  0  0  0
  1 15  1  0  0  0  0
  1 19  1  0  0  0  0
  2 16  1  0  0  0  0
  2 20  1  0  0  0  0
  3 17  1  0  0  0  0
  3 21  1  0  0  0  0
  4 18  1  0  0  0  0
  4 22  1  0  0  0  0
  5 15  2  0  0  0  0
  6 16  2  0  0  0  0
  7 17  2  0  0  0  0
  8 18  2  0  0  0  0
  9 10  2  0  0  0  0
  9 13  1  0  0  0  0
  9 15  1  0  0  0  0
 10 14  1  0  0  0  0
 10 16  1  0  0  0  0
 11 12  1  0  0  0  0
 11 13  2  0  0  0  0
 11 17  1  0  0  0  0
 12 14  2  0  0  0  0
 12 18  1  0  0  0  0
 13 27  1  0  0  0  0
 14 28  1  0  0  0  0
 19 23  1  0  0  0  0
 19 29  1  0  0  0  0
 19 30  1  0  0  0  0
 20 24  1  0  0  0  0
 20 31  1  0  0  0  0
 20 32  1  0  0  0  0
 21 25  1  0  0  0  0
 21 33  1  0  0  0  0
 21 34  1  0  0  0  0
 22 26  1  0  0  0  0
 22 35  1  0  0  0  0
 22 36  1  0  0  0  0
 23 37  1  0  0  0  0
 23 38  1  0  0  0  0
 23 39  1  0  0  0  0
 24 40  1  0  0  0  0
 24 41  1  0  0  0  0
 24 42  1  0  0  0  0
 25 43  1  0  0  0  0
 25 44  1  0  0  0  0
 25 45  1  0  0  0  0
 26 46  1  0  0  0  0
 26 47  1  0  0  0  0
 26 48  1  0  0  0  0
M  END
> <PUBCHEM_COMPOUND_CID>
138795

> <PUBCHEM_CONFORMER_RMSD>
1

> <PUBCHEM_CONFORMER_DIVERSEORDER>
1
10
13
12
7
5
16
14
6
15
11
4
9
2
8
3

> <PUBCHEM_MMFF94_PARTIAL_CHARGES>
24
1 -0.43
10 0.09
11 0.09
12 0.09
13 -0.15
14 -0.15
15 0.63
16 0.63
17 0.63
18 0.63
19 0.28
2 -0.43
20 0.28
21 0.28
22 0.28
27 0.15
28 0.15
3 -0.43
4 -0.43
5 -0.57
6 -0.57
7 -0.57
8 -0.57
9 0.09

> <PUBCHEM_EFFECTIVE_ROTOR_COUNT>
12

> <PUBCHEM_PHARMACOPHORE_FEATURES>
5
1 5 acceptor
1 6 acceptor
1 7 acceptor
1 8 acceptor
6 9 10 11 12 13 14 rings

> <PUBCHEM_HEAVY_ATOM_COUNT>
26

> <PUBCHEM_ATOM_DEF_STEREO_COUNT>
0

> <PUBCHEM_ATOM_UDEF_STEREO_COUNT>
0

> <PUBCHEM_BOND_DEF_STEREO_COUNT>
0

> <PUBCHEM_BOND_UDEF_STEREO_COUNT>
0

> <PUBCHEM_ISOTOPIC_ATOM_COUNT>
0

> <PUBCHEM_COMPONENT_COUNT>
1

> <PUBCHEM_CACTVS_TAUTO_COUNT>
1

> <PUBCHEM_CONFORMER_ID>
00021E2B00000001

> <PUBCHEM_MMFF94_ENERGY>
70.9529

> <PUBCHEM_FEATURE_SELFOVERLAP>
25.376

> <PUBCHEM_SHAPE_FINGERPRINT>
10006869 2 18342462569228027505
10382601 240 18053958512758820258
1100329 8 18194119612271088504
12633257 1 18120091680442556676
13140716 1 18337108973285708215
13911987 19 10373002157720117657
14022347 108 17836379142157223662
14178342 30 18336545009994902900
14223421 5 18339084894512516471
14466204 15 17691121535335113849
14790565 3 17764888900504327356
15420108 30 17191205445942405237
15475509 84 18339655464228512321
17980427 23 17843375454835170876
20510252 161 18055635276481211209
20600515 1 18055059970512741896
20642791 268 17553231061337155451
23366157 5 18259699017443241636
23558518 356 18261403238574706699
23559900 14 18340473504842235070
25147074 1 18335421227495829414
350125 39 18340501061458115660
5104073 3 18409173229561899715
5486654 36 18114745915112426098
58807428 26 17761485190471520816
9981440 41 18048861185737785008

> <PUBCHEM_SHAPE_MULTIPOLES>
488.11
8.85
6.04
1.53
0
5.36
-0.59
-3.1
-3.65
0
-3.66
0
-1.19
-0.01

> <PUBCHEM_SHAPE_SELFOVERLAP>
1004.682

> <PUBCHEM_SHAPE_VOLUME>
282.4

> <PUBCHEM_COORDINATE_TYPE>
2
5
10

$$$$
