737157
  -OEChem-11012400453D

 21 21  0     0  0  0  0  0  0999 V2000
    4.2354    1.3636    0.0551 O   0  5  0  0  0  0  0  0  0  0  0  0
    4.5127   -0.8017   -0.1764 O   0  0  0  0  0  0  0  0  0  0  0  0
   -4.9124    1.2165   -0.3275 O   0  0  0  0  0  0  0  0  0  0  0  0
   -4.6899   -0.9833    0.2344 O   0  0  0  0  0  0  0  0  0  0  0  0
    3.7715    0.2018   -0.0422 N   0  3  0  0  0  0  0  0  0  0  0  0
   -0.4005   -0.3458    0.0876 C   0  0  0  0  0  0  0  0  0  0  0  0
    2.3642    0.0170    0.0015 C   0  0  0  0  0  0  0  0  0  0  0  0
    0.1382    0.9364    0.1938 C   0  0  0  0  0  0  0  0  0  0  0  0
    0.4430   -1.4467   -0.0617 C   0  0  0  0  0  0  0  0  0  0  0  0
    1.5205    1.1177    0.1506 C   0  0  0  0  0  0  0  0  0  0  0  0
    1.8255   -1.2654   -0.1047 C   0  0  0  0  0  0  0  0  0  0  0  0
   -1.8418   -0.5348    0.1336 C   0  0  0  0  0  0  0  0  0  0  0  0
   -2.7636    0.4240   -0.1064 C   0  0  0  0  0  0  0  0  0  0  0  0
   -4.2029    0.1009   -0.0377 C   0  0  0  0  0  0  0  0  0  0  0  0
   -0.4783    1.8199    0.3312 H   0  0  0  0  0  0  0  0  0  0  0  0
    0.0410   -2.4535   -0.1472 H   0  0  0  0  0  0  0  0  0  0  0  0
    1.9055    2.1304    0.2407 H   0  0  0  0  0  0  0  0  0  0  0  0
    2.4520   -2.1459   -0.2222 H   0  0  0  0  0  0  0  0  0  0  0  0
   -2.1733   -1.5434    0.3722 H   0  0  0  0  0  0  0  0  0  0  0  0
   -2.5003    1.4409   -0.3743 H   0  0  0  0  0  0  0  0  0  0  0  0
   -5.8796    1.0557   -0.2949 H   0  0  0  0  0  0  0  0  0  0  0  0
  1  5  1  0  0  0  0
  2  5  2  0  0  0  0
  3 14  1  0  0  0  0
  3 21  1  0  0  0  0
  4 14  2  0  0  0  0
  5  7  1  0  0  0  0
  6  8  2  0  0  0  0
  6  9  1  0  0  0  0
  6 12  1  0  0  0  0
  7 10  2  0  0  0  0
  7 11  1  0  0  0  0
  8 10  1  0  0  0  0
  8 15  1  0  0  0  0
  9 11  2  0  0  0  0
  9 16  1  0  0  0  0
 10 17  1  0  0  0  0
 11 18  1  0  0  0  0
 12 13  2  0  0  0  0
 12 19  1  0  0  0  0
 13 14  1  0  0  0  0
 13 20  1  0  0  0  0
M  CHG  2   1  -1   5   1
M  END
> <PUBCHEM_COMPOUND_CID>
737157

> <PUBCHEM_CONFORMER_RMSD>
0.6

> <PUBCHEM_CONFORMER_DIVERSEORDER>
1

> <PUBCHEM_MMFF94_PARTIAL_CHARGES>
21
1 -0.52
10 -0.15
11 -0.15
12 -0.18
13 -0.14
14 0.71
15 0.15
16 0.15
17 0.15
18 0.15
19 0.15
2 -0.52
20 0.15
21 0.5
3 -0.65
4 -0.57
5 0.91
6 0.03
7 0.13
8 -0.15
9 -0.15

> <PUBCHEM_EFFECTIVE_ROTOR_COUNT>
3

> <PUBCHEM_PHARMACOPHORE_FEATURES>
7
1 1 acceptor
1 1 anion
1 2 acceptor
1 3 acceptor
1 4 acceptor
3 3 4 14 anion
6 6 7 8 9 10 11 rings

> <PUBCHEM_HEAVY_ATOM_COUNT>
14

> <PUBCHEM_ATOM_DEF_STEREO_COUNT>
0

> <PUBCHEM_ATOM_UDEF_STEREO_COUNT>
0

> <PUBCHEM_BOND_DEF_STEREO_COUNT>
1

> <PUBCHEM_BOND_UDEF_STEREO_COUNT>
0

> <PUBCHEM_ISOTOPIC_ATOM_COUNT>
0

> <PUBCHEM_COMPONENT_COUNT>
1

> <PUBCHEM_CACTVS_TAUTO_COUNT>
1

> <PUBCHEM_CONFORMER_ID>
000B3F8500000001

> <PUBCHEM_MMFF94_ENERGY>
39.9871

> <PUBCHEM_FEATURE_SELFOVERLAP>
35.66

> <PUBCHEM_SHAPE_FINGERPRINT>
11062470 55 18410575084663078921
11401426 45 18273209802997215850
11471102 20 18413106160699316108
13380535 76 18410858767311573699
13690532 89 18412827975688711682
14123238 8 18113900480938072135
14911166 2 18341901796580380262
14943859 89 18343863342008485383
14993402 34 17060618905988846365
15196674 1 18411136943715912549
17834072 33 18131629023678054765
200 152 18060135449393832507
20279233 1 18041006133082536843
20645477 70 18272654497938460398
23402539 116 17676199178560576199
23402655 69 18271520914883315933
23557571 272 17313384461772562463
23559900 14 18338234865051457402
3545911 37 18409730634865353149
366044 4 18410855481904042506
4047638 21 18259705605754157856
4072396 5 18337939105002607282
42788 4 18410012139015180901
4990 188 18059863856630611030
5104073 3 18409449172256444251
77779 3 18410293605808203839

> <PUBCHEM_SHAPE_MULTIPOLES>
259.66
9.41
1.37
0.6
4.74
0.04
0
-1.33
-0.48
-0.37
-0.01
0.06
0
0.28

> <PUBCHEM_SHAPE_SELFOVERLAP>
544.421

> <PUBCHEM_SHAPE_VOLUME>
146.4

> <PUBCHEM_COORDINATE_TYPE>
2
5
10

$$$$
