18465
  -OEChem-11012401123D

 40 39  0     0  0  0  0  0  0999 V2000
    0.5856    0.7068   -2.4672 O   0  0  0  0  0  0  0  0  0  0  0  0
   -3.7129   -3.1212    0.4788 O   0  0  0  0  0  0  0  0  0  0  0  0
   -4.3333    2.1653   -1.1462 O   0  0  0  0  0  0  0  0  0  0  0  0
    4.0384   -2.8958    0.1055 O   0  0  0  0  0  0  0  0  0  0  0  0
    2.2050    2.4633    2.2321 O   0  0  0  0  0  0  0  0  0  0  0  0
   -2.4537   -2.0974    2.0730 O   0  0  0  0  0  0  0  0  0  0  0  0
   -3.2075    2.3605    0.8210 O   0  0  0  0  0  0  0  0  0  0  0  0
    4.6347   -0.9679   -0.9447 O   0  0  0  0  0  0  0  0  0  0  0  0
    3.0730    2.9122    0.1778 O   0  0  0  0  0  0  0  0  0  0  0  0
   -2.1660   -0.2151   -0.1874 N   0  0  0  0  0  0  0  0  0  0  0  0
    2.1903    0.1136   -0.1662 N   0  0  0  0  0  0  0  0  0  0  0  0
    0.0212    0.0528   -1.3285 C   0  0  0  0  0  0  0  0  0  0  0  0
   -1.4617    0.4355   -1.2839 C   0  0  0  0  0  0  0  0  0  0  0  0
    0.7806    0.4864   -0.0692 C   0  0  0  0  0  0  0  0  0  0  0  0
   -2.0428   -1.6712   -0.2855 C   0  0  0  0  0  0  0  0  0  0  0  0
   -3.5778    0.1740   -0.1766 C   0  0  0  0  0  0  0  0  0  0  0  0
    2.3304   -1.3393   -0.2627 C   0  0  0  0  0  0  0  0  0  0  0  0
    2.9353    0.6227    0.9852 C   0  0  0  0  0  0  0  0  0  0  0  0
   -2.7233   -2.2902    0.8968 C   0  0  0  0  0  0  0  0  0  0  0  0
   -3.6627    1.6662   -0.0756 C   0  0  0  0  0  0  0  0  0  0  0  0
    3.7823   -1.6710   -0.4229 C   0  0  0  0  0  0  0  0  0  0  0  0
    2.7652    2.1097    1.0464 C   0  0  0  0  0  0  0  0  0  0  0  0
    0.0982   -1.0114   -1.5475 H   0  0  0  0  0  0  0  0  0  0  0  0
   -1.5037    1.5293   -1.2084 H   0  0  0  0  0  0  0  0  0  0  0  0
   -1.9220    0.1910   -2.2522 H   0  0  0  0  0  0  0  0  0  0  0  0
    0.3267    0.0499    0.8293 H   0  0  0  0  0  0  0  0  0  0  0  0
    0.6663    1.5743   -0.0007 H   0  0  0  0  0  0  0  0  0  0  0  0
   -1.0115   -2.0294   -0.2130 H   0  0  0  0  0  0  0  0  0  0  0  0
   -2.4657   -2.0553   -1.2223 H   0  0  0  0  0  0  0  0  0  0  0  0
   -4.1232   -0.2149    0.6905 H   0  0  0  0  0  0  0  0  0  0  0  0
   -4.0991   -0.1760   -1.0769 H   0  0  0  0  0  0  0  0  0  0  0  0
    1.8604   -1.7680   -1.1507 H   0  0  0  0  0  0  0  0  0  0  0  0
    1.9289   -1.8353    0.6296 H   0  0  0  0  0  0  0  0  0  0  0  0
    4.0152    0.4533    0.9325 H   0  0  0  0  0  0  0  0  0  0  0  0
    2.5839    0.1658    1.9198 H   0  0  0  0  0  0  0  0  0  0  0  0
    1.5302    0.4775   -2.4964 H   0  0  0  0  0  0  0  0  0  0  0  0
   -4.1797   -3.5417    1.2322 H   0  0  0  0  0  0  0  0  0  0  0  0
   -4.4041    3.1430   -1.1096 H   0  0  0  0  0  0  0  0  0  0  0  0
    4.9838   -3.1418    0.0164 H   0  0  0  0  0  0  0  0  0  0  0  0
    2.0788    3.4336    2.3018 H   0  0  0  0  0  0  0  0  0  0  0  0
  1 12  1  0  0  0  0
  1 36  1  0  0  0  0
  2 19  1  0  0  0  0
  2 37  1  0  0  0  0
  3 20  1  0  0  0  0
  3 38  1  0  0  0  0
  4 21  1  0  0  0  0
  4 39  1  0  0  0  0
  5 22  1  0  0  0  0
  5 40  1  0  0  0  0
  6 19  2  0  0  0  0
  7 20  2  0  0  0  0
  8 21  2  0  0  0  0
  9 22  2  0  0  0  0
 10 13  1  0  0  0  0
 10 15  1  0  0  0  0
 10 16  1  0  0  0  0
 11 14  1  0  0  0  0
 11 17  1  0  0  0  0
 11 18  1  0  0  0  0
 12 13  1  0  0  0  0
 12 14  1  0  0  0  0
 12 23  1  0  0  0  0
 13 24  1  0  0  0  0
 13 25  1  0  0  0  0
 14 26  1  0  0  0  0
 14 27  1  0  0  0  0
 15 19  1  0  0  0  0
 15 28  1  0  0  0  0
 15 29  1  0  0  0  0
 16 20  1  0  0  0  0
 16 30  1  0  0  0  0
 16 31  1  0  0  0  0
 17 21  1  0  0  0  0
 17 32  1  0  0  0  0
 17 33  1  0  0  0  0
 18 22  1  0  0  0  0
 18 34  1  0  0  0  0
 18 35  1  0  0  0  0
M  END
> <PUBCHEM_COMPOUND_CID>
18465

> <PUBCHEM_CONFORMER_RMSD>
1

> <PUBCHEM_CONFORMER_DIVERSEORDER>
1
9
26
15
25
27
2
17
23
10
20
28
6
24
22
14
13
21
8
11
29
16
4
12
3
5
19
7
18

> <PUBCHEM_MMFF94_PARTIAL_CHARGES>
27
1 -0.68
10 -0.81
11 -0.81
12 0.28
13 0.27
14 0.27
15 0.33
16 0.33
17 0.33
18 0.33
19 0.66
2 -0.65
20 0.66
21 0.66
22 0.66
3 -0.65
36 0.4
37 0.5
38 0.5
39 0.5
4 -0.65
40 0.5
5 -0.65
6 -0.57
7 -0.57
8 -0.57
9 -0.57

> <PUBCHEM_EFFECTIVE_ROTOR_COUNT>
12

> <PUBCHEM_PHARMACOPHORE_FEATURES>
16
1 1 acceptor
1 1 donor
1 10 cation
1 11 cation
1 2 acceptor
1 3 acceptor
1 4 acceptor
1 5 acceptor
1 6 acceptor
1 7 acceptor
1 8 acceptor
1 9 acceptor
3 2 6 19 anion
3 3 7 20 anion
3 4 8 21 anion
3 5 9 22 anion

> <PUBCHEM_HEAVY_ATOM_COUNT>
22

> <PUBCHEM_ATOM_DEF_STEREO_COUNT>
0

> <PUBCHEM_ATOM_UDEF_STEREO_COUNT>
0

> <PUBCHEM_BOND_DEF_STEREO_COUNT>
0

> <PUBCHEM_BOND_UDEF_STEREO_COUNT>
0

> <PUBCHEM_ISOTOPIC_ATOM_COUNT>
0

> <PUBCHEM_COMPONENT_COUNT>
1

> <PUBCHEM_CACTVS_TAUTO_COUNT>
1

> <PUBCHEM_CONFORMER_ID>
0000482100000001

> <PUBCHEM_MMFF94_ENERGY>
49.3312

> <PUBCHEM_FEATURE_SELFOVERLAP>
81.435

> <PUBCHEM_SHAPE_FINGERPRINT>
10366900 7 18125436664179083137
11405975 8 18412826884519053443
12160290 23 15866290785606975765
12166972 35 15841256078326245832
12293681 4 18127980715095269888
12500047 106 18334858268973526727
12507560 18 18125157134938634633
12507560 40 18341049708948615735
12549972 3 18411696595134561875
12596599 1 17458904945878128859
12633257 1 18199190585625990865
12788726 201 17694502547007702682
13533116 47 18413101784417986983
13583140 156 18130221678537648973
14178342 30 17895183450334662987
14223421 5 18339922735257854921
14251757 5 18195257620033668964
14289901 80 18199180874620460366
14466204 15 17764021368201522497
15295992 7 18272097063202679281
17349148 13 15554442976984020357
17804303 29 18336551503758140119
192875 21 16271637906402458049
20681677 76 18272364317183768477
21065198 57 18411417310628107623
21065199 12 18339640152195295843
23532345 11 18188205511250638069
23557571 272 18043807808763498723
23559900 14 18410007762459577541
458136 41 18053106413365227808
59124914 9 17907857310900572505
6049 1 18341056314555543384
81228 2 17895473738969328111
9709674 26 18411974793336035431
9981440 41 17482508226290012609

> <PUBCHEM_SHAPE_MULTIPOLES>
389.96
8.81
3.5
1.62
0.57
0.33
-0.05
0.93
-0.49
-0.29
-1.42
0.03
-0.41
2.31

> <PUBCHEM_SHAPE_SELFOVERLAP>
771.928

> <PUBCHEM_SHAPE_VOLUME>
231.3

> <PUBCHEM_COORDINATE_TYPE>
2
5
10

$$$$
