9561107
  -OEChem-11012401063D

 37 37  0     1  0  0  0  0  0999 V2000
   -3.7772   -0.8340   -1.3111 O   0  0  0  0  0  0  0  0  0  0  0  0
   -3.1768    1.8317   -1.1943 O   0  0  0  0  0  0  0  0  0  0  0  0
   -3.5616   -1.4066    1.4823 O   0  0  0  0  0  0  0  0  0  0  0  0
   -2.0841    2.9836    1.0982 O   0  0  0  0  0  0  0  0  0  0  0  0
   -1.1724   -2.9634   -0.7938 O   0  0  0  0  0  0  0  0  0  0  0  0
    0.5567    0.9845    0.3064 N   0  0  0  0  0  0  0  0  0  0  0  0
    1.5930    1.0591   -0.5507 N   0  0  0  0  0  0  0  0  0  0  0  0
   -2.6510   -0.4180   -0.5286 C   0  0  1  0  0  0  0  0  0  0  0  0
   -2.9245    1.0194   -0.0384 C   0  0  1  0  0  0  0  0  0  0  0  0
   -2.4445   -1.4489    0.5972 C   0  0  2  0  0  0  0  0  0  0  0  0
   -1.7611    1.6557    0.7335 C   0  0  1  0  0  0  0  0  0  0  0  0
   -2.2785   -2.8819    0.0904 C   0  0  0  0  0  0  0  0  0  0  0  0
   -0.4967    1.6127   -0.1003 C   0  0  0  0  0  0  0  0  0  0  0  0
    2.8127    0.4297   -0.2575 C   0  0  0  0  0  0  0  0  0  0  0  0
    3.8843    0.5185   -1.1517 C   0  0  0  0  0  0  0  0  0  0  0  0
    2.9653   -0.2914    0.9308 C   0  0  0  0  0  0  0  0  0  0  0  0
    5.0962   -0.1077   -0.8605 C   0  0  0  0  0  0  0  0  0  0  0  0
    4.1774   -0.9175    1.2219 C   0  0  0  0  0  0  0  0  0  0  0  0
    5.2427   -0.8255    0.3263 C   0  0  0  0  0  0  0  0  0  0  0  0
   -1.7941   -0.4307   -1.2117 H   0  0  0  0  0  0  0  0  0  0  0  0
   -3.8454    1.0533    0.5558 H   0  0  0  0  0  0  0  0  0  0  0  0
   -1.5506   -1.1717    1.1671 H   0  0  0  0  0  0  0  0  0  0  0  0
   -1.5854    1.1037    1.6625 H   0  0  0  0  0  0  0  0  0  0  0  0
   -2.1079   -3.5623    0.9322 H   0  0  0  0  0  0  0  0  0  0  0  0
   -3.1800   -3.2291   -0.4261 H   0  0  0  0  0  0  0  0  0  0  0  0
   -0.5220    2.1539   -1.0648 H   0  0  0  0  0  0  0  0  0  0  0  0
   -3.8906   -0.1841   -2.0257 H   0  0  0  0  0  0  0  0  0  0  0  0
   -3.5804    2.6612   -0.8878 H   0  0  0  0  0  0  0  0  0  0  0  0
   -3.3858   -2.0302    2.2074 H   0  0  0  0  0  0  0  0  0  0  0  0
   -2.2016    3.5034    0.2856 H   0  0  0  0  0  0  0  0  0  0  0  0
   -1.1040   -3.8897   -1.0816 H   0  0  0  0  0  0  0  0  0  0  0  0
    1.5165    1.5716   -1.4223 H   0  0  0  0  0  0  0  0  0  0  0  0
    3.7841    1.0747   -2.0806 H   0  0  0  0  0  0  0  0  0  0  0  0
    2.1571   -0.3851    1.6514 H   0  0  0  0  0  0  0  0  0  0  0  0
    5.9259   -0.0363   -1.5578 H   0  0  0  0  0  0  0  0  0  0  0  0
    4.2920   -1.4769    2.1459 H   0  0  0  0  0  0  0  0  0  0  0  0
    6.1863   -1.3131    0.5530 H   0  0  0  0  0  0  0  0  0  0  0  0
  1  8  1  0  0  0  0
  1 27  1  0  0  0  0
  2  9  1  0  0  0  0
  2 28  1  0  0  0  0
  3 10  1  0  0  0  0
  3 29  1  0  0  0  0
  4 11  1  0  0  0  0
  4 30  1  0  0  0  0
  5 12  1  0  0  0  0
  5 31  1  0  0  0  0
  6  7  1  0  0  0  0
  6 13  2  0  0  0  0
  7 14  1  0  0  0  0
  7 32  1  0  0  0  0
  8  9  1  0  0  0  0
  8 10  1  0  0  0  0
  8 20  1  0  0  0  0
  9 11  1  0  0  0  0
  9 21  1  0  0  0  0
 10 12  1  0  0  0  0
 10 22  1  0  0  0  0
 11 13  1  0  0  0  0
 11 23  1  0  0  0  0
 12 24  1  0  0  0  0
 12 25  1  0  0  0  0
 13 26  1  0  0  0  0
 14 15  2  0  0  0  0
 14 16  1  0  0  0  0
 15 17  1  0  0  0  0
 15 33  1  0  0  0  0
 16 18  2  0  0  0  0
 16 34  1  0  0  0  0
 17 19  2  0  0  0  0
 17 35  1  0  0  0  0
 18 19  1  0  0  0  0
 18 36  1  0  0  0  0
 19 37  1  0  0  0  0
M  END
> <PUBCHEM_COMPOUND_CID>
9561107

> <PUBCHEM_CONFORMER_RMSD>
1

> <PUBCHEM_CONFORMER_DIVERSEORDER>
1
513
511
219
530
51
515
21
365
580
216
313
557
56
627
156
105
96
389
422
458
304
69
132
518
27
404
279
477
549
335
471
135
22
588
77
479
80
533
53
297
123
221
405
603
417
305
413
44
428
225
569
285
6
553
371
496
470
118
334
384
278
554
42
162
597
642
461
48
505
236
501
354
525
482
385
136
556
226
262
169
264
494
592
12
472
37
634
181
9
459
573
29
416
531
40
131
249
161
63
11
332
552
286
406
81
555
222
386
116
20
308
5
28
196
18
612
430
243
113
442
187
10
4
104
421
345
98
227
614
58
183
208
66
74
481
25
149
451
24
194
260
134
529
258
605
247
114
198
107
121
8
369
2
43
68
368
70
220
272
293
3
564
158
449
23
199

> <PUBCHEM_MMFF94_PARTIAL_CHARGES>
31
1 -0.68
10 0.28
11 0.34
12 0.28
13 0.33
14 0.1
15 -0.15
16 -0.15
17 -0.15
18 -0.15
19 -0.15
2 -0.68
26 0.06
27 0.4
28 0.4
29 0.4
3 -0.68
30 0.4
31 0.4
32 0.4
33 0.15
34 0.15
35 0.15
36 0.15
37 0.15
4 -0.68
5 -0.68
6 -0.49
7 -0.46
8 0.28
9 0.28

> <PUBCHEM_EFFECTIVE_ROTOR_COUNT>
7

> <PUBCHEM_PHARMACOPHORE_FEATURES>
13
1 1 acceptor
1 1 donor
1 2 acceptor
1 2 donor
1 3 acceptor
1 3 donor
1 4 acceptor
1 4 donor
1 5 acceptor
1 5 donor
1 6 acceptor
1 7 donor
6 14 15 16 17 18 19 rings

> <PUBCHEM_HEAVY_ATOM_COUNT>
19

> <PUBCHEM_ATOM_DEF_STEREO_COUNT>
0

> <PUBCHEM_ATOM_UDEF_STEREO_COUNT>
4

> <PUBCHEM_BOND_DEF_STEREO_COUNT>
1

> <PUBCHEM_BOND_UDEF_STEREO_COUNT>
0

> <PUBCHEM_ISOTOPIC_ATOM_COUNT>
0

> <PUBCHEM_COMPONENT_COUNT>
1

> <PUBCHEM_CACTVS_TAUTO_COUNT>
1

> <PUBCHEM_CONFORMER_ID>
0091E41300000001

> <PUBCHEM_MMFF94_ENERGY>
49.4159

> <PUBCHEM_FEATURE_SELFOVERLAP>
66.002

> <PUBCHEM_SHAPE_FINGERPRINT>
10366900 7 17775558711473541080
10616163 171 18409451379922868186
11370993 144 16629979758386059874
12553582 1 18340773752931202770
12633257 1 18059026084615486779
12757275 245 18411420609342312956
13167823 11 18186242823108167328
13631057 29 18192156116880351574
14251757 5 18191599746822797598
14251764 30 17243034598788648955
15880784 105 16415470584509404414
16752209 62 18337376193424316491
167882 2 17542213567968748341
18186145 218 13767934498822010628
18915474 69 18187086152906054412
20291156 8 18263365961203594354
20621476 51 18057878233226415886
21634736 98 18189339133635422428
23402655 69 17530967934986064812
23559900 14 18341321280142776784
23728640 28 18413108342711637691
27216 239 10303824198000161071
339767 52 18187632622964673994
559249 180 18115579340736210090
58051976 100 18113618975712318597
602551 16 18272651247360016186
90127 26 17060053710538007112
9709674 26 18272655615014708926

> <PUBCHEM_SHAPE_MULTIPOLES>
351.7
10.23
2.78
1.24
10.98
0.77
-0.04
2.32
0.62
-3.76
-0.23
-0.06
0.02
-0.62

> <PUBCHEM_SHAPE_SELFOVERLAP>
709.43

> <PUBCHEM_SHAPE_VOLUME>
204.2

> <PUBCHEM_COORDINATE_TYPE>
2
5
10

$$$$
