142846
  -OEChem-11012400513D

 18 19  0     0  0  0  0  0  0999 V2000
    1.5858    1.9816   -0.0178 O   0  0  0  0  0  0  0  0  0  0  0  0
    0.8414   -0.2176   -0.0134 N   0  0  0  0  0  0  0  0  0  0  0  0
    1.5506   -1.3571    0.0172 N   0  0  0  0  0  0  0  0  0  0  0  0
    3.0269    0.1556    0.0171 N   0  0  0  0  0  0  0  0  0  0  0  0
    2.8733   -1.0998    0.0016 N   0  0  0  0  0  0  0  0  0  0  0  0
   -0.5510   -0.1286   -0.0062 C   0  0  0  0  0  0  0  0  0  0  0  0
   -1.1698    1.1215    0.0093 C   0  0  0  0  0  0  0  0  0  0  0  0
   -1.3244   -1.2895   -0.0151 C   0  0  0  0  0  0  0  0  0  0  0  0
    1.7805    0.7729   -0.0076 C   0  0  0  0  0  0  0  0  0  0  0  0
   -2.5617    1.2109    0.0161 C   0  0  0  0  0  0  0  0  0  0  0  0
   -2.7165   -1.2001   -0.0084 C   0  0  0  0  0  0  0  0  0  0  0  0
   -3.3350    0.0501    0.0072 C   0  0  0  0  0  0  0  0  0  0  0  0
   -0.6319    2.0602    0.0183 H   0  0  0  0  0  0  0  0  0  0  0  0
   -0.8834   -2.2815   -0.0253 H   0  0  0  0  0  0  0  0  0  0  0  0
    1.1947   -2.2760   -0.2059 H   0  0  0  0  0  0  0  0  0  0  0  0
   -3.0446    2.1838    0.0287 H   0  0  0  0  0  0  0  0  0  0  0  0
   -3.3193   -2.1036   -0.0148 H   0  0  0  0  0  0  0  0  0  0  0  0
   -4.4188    0.1196    0.0126 H   0  0  0  0  0  0  0  0  0  0  0  0
  1  9  2  0  0  0  0
  2  3  1  0  0  0  0
  2  6  1  0  0  0  0
  2  9  1  0  0  0  0
  3  5  1  0  0  0  0
  3 15  1  0  0  0  0
  4  5  2  0  0  0  0
  4  9  1  0  0  0  0
  6  7  2  0  0  0  0
  6  8  1  0  0  0  0
  7 10  1  0  0  0  0
  7 13  1  0  0  0  0
  8 11  2  0  0  0  0
  8 14  1  0  0  0  0
 10 12  2  0  0  0  0
 10 16  1  0  0  0  0
 11 12  1  0  0  0  0
 11 17  1  0  0  0  0
 12 18  1  0  0  0  0
M  END
> <PUBCHEM_COMPOUND_CID>
142846

> <PUBCHEM_CONFORMER_RMSD>
0.4

> <PUBCHEM_CONFORMER_DIVERSEORDER>
1
2

> <PUBCHEM_MMFF94_PARTIAL_CHARGES>
18
1 -0.57
10 -0.15
11 -0.15
12 -0.15
13 0.15
14 0.15
15 0.37
16 0.15
17 0.15
18 0.15
2 -0.18
3 -0.31
4 -0.21
5 -0.06
6 0.12
7 -0.15
8 -0.15
9 0.84

> <PUBCHEM_EFFECTIVE_ROTOR_COUNT>
1

> <PUBCHEM_PHARMACOPHORE_FEATURES>
4
1 1 acceptor
1 4 donor
5 2 3 4 5 9 rings
6 6 7 8 10 11 12 rings

> <PUBCHEM_HEAVY_ATOM_COUNT>
12

> <PUBCHEM_ATOM_DEF_STEREO_COUNT>
0

> <PUBCHEM_ATOM_UDEF_STEREO_COUNT>
0

> <PUBCHEM_BOND_DEF_STEREO_COUNT>
0

> <PUBCHEM_BOND_UDEF_STEREO_COUNT>
0

> <PUBCHEM_ISOTOPIC_ATOM_COUNT>
0

> <PUBCHEM_COMPONENT_COUNT>
1

> <PUBCHEM_CACTVS_TAUTO_COUNT>
3

> <PUBCHEM_CONFORMER_ID>
00022DFE00000001

> <PUBCHEM_MMFF94_ENERGY>
38.1168

> <PUBCHEM_FEATURE_SELFOVERLAP>
20.297

> <PUBCHEM_SHAPE_FINGERPRINT>
10608611 8 18410569600116910177
12897270 3 18338234967829394461
12932764 1 17703789279422988103
14144814 61 18410855434400608179
14325111 11 18410575076268446561
15775835 57 18261680276792184821
16945 1 18410575063420377007
17844478 74 18113346314483051473
193761 8 14663861012669487373
19973954 147 18410576210102999889
20201158 50 18412261722757837599
20871998 184 18201724011183724167
21501502 16 18411139177246729461
23402539 116 18130213883979102493
23463225 33 18336826373244064650
23552423 10 18334012838920749023
2748010 2 18338234989314832469
369184 2 18411418423414877907
5084963 1 18272368663680122729
7364860 26 18271245027458772504

> <PUBCHEM_SHAPE_MULTIPOLES>
221.16
5.09
1.66
0.58
0.31
0.22
0
-0.33
0.02
0.08
0
-0.08
0
-0.02

> <PUBCHEM_SHAPE_SELFOVERLAP>
480.226

> <PUBCHEM_SHAPE_VOLUME>
121.4

> <PUBCHEM_COORDINATE_TYPE>
2
5
10

$$$$
