139739
  -OEChem-11012400343D

 16 16  0     0  0  0  0  0  0999 V2000
    0.5043    2.4069    0.0006 Cl  0  0  0  0  0  0  0  0  0  0  0  0
    2.6542    0.6710    1.4653 Cl  0  0  0  0  0  0  0  0  0  0  0  0
    2.9487   -1.7901   -0.0052 Cl  0  0  0  0  0  0  0  0  0  0  0  0
    2.6464    0.6827   -1.4613 Cl  0  0  0  0  0  0  0  0  0  0  0  0
   -3.8330   -0.8996    0.0008 Cl  0  0  0  0  0  0  0  0  0  0  0  0
    0.0849   -1.5649   -0.0006 N   0  0  0  0  0  0  0  0  0  0  0  0
   -2.4461    1.8004    0.0010 N   0  0  0  0  0  0  0  0  0  0  0  0
    0.5758   -0.3054   -0.0003 C   0  0  0  0  0  0  0  0  0  0  0  0
   -0.2122    0.8344    0.0003 C   0  0  0  0  0  0  0  0  0  0  0  0
   -1.5930    0.6709    0.0004 C   0  0  0  0  0  0  0  0  0  0  0  0
    2.0677   -0.2127   -0.0005 C   0  0  0  0  0  0  0  0  0  0  0  0
   -2.1359   -0.6093    0.0000 C   0  0  0  0  0  0  0  0  0  0  0  0
   -1.2618   -1.6844   -0.0006 C   0  0  0  0  0  0  0  0  0  0  0  0
   -1.6209   -2.7093   -0.0007 H   0  0  0  0  0  0  0  0  0  0  0  0
   -2.0498    2.7308    0.0014 H   0  0  0  0  0  0  0  0  0  0  0  0
   -3.4495    1.6741    0.0014 H   0  0  0  0  0  0  0  0  0  0  0  0
  1  9  1  0  0  0  0
  2 11  1  0  0  0  0
  3 11  1  0  0  0  0
  4 11  1  0  0  0  0
  5 12  1  0  0  0  0
  6  8  2  0  0  0  0
  6 13  1  0  0  0  0
  7 10  1  0  0  0  0
  7 15  1  0  0  0  0
  7 16  1  0  0  0  0
  8  9  1  0  0  0  0
  8 11  1  0  0  0  0
  9 10  2  0  0  0  0
 10 12  1  0  0  0  0
 12 13  2  0  0  0  0
 13 14  1  0  0  0  0
M  END
> <PUBCHEM_COMPOUND_CID>
139739

> <PUBCHEM_CONFORMER_RMSD>
0.4

> <PUBCHEM_CONFORMER_DIVERSEORDER>
1

> <PUBCHEM_MMFF94_PARTIAL_CHARGES>
16
1 -0.18
10 0.1
11 1.01
12 0.18
13 0.16
14 0.15
15 0.4
16 0.4
2 -0.29
3 -0.29
4 -0.29
5 -0.18
6 -0.62
7 -0.9
8 0.17
9 0.18

> <PUBCHEM_EFFECTIVE_ROTOR_COUNT>
1

> <PUBCHEM_PHARMACOPHORE_FEATURES>
4
1 6 acceptor
1 7 cation
1 7 donor
6 6 8 9 10 12 13 rings

> <PUBCHEM_HEAVY_ATOM_COUNT>
13

> <PUBCHEM_ATOM_DEF_STEREO_COUNT>
0

> <PUBCHEM_ATOM_UDEF_STEREO_COUNT>
0

> <PUBCHEM_BOND_DEF_STEREO_COUNT>
0

> <PUBCHEM_BOND_UDEF_STEREO_COUNT>
0

> <PUBCHEM_ISOTOPIC_ATOM_COUNT>
0

> <PUBCHEM_COMPONENT_COUNT>
1

> <PUBCHEM_CACTVS_TAUTO_COUNT>
2

> <PUBCHEM_CONFORMER_ID>
000221DB00000001

> <PUBCHEM_MMFF94_ENERGY>
45.7135

> <PUBCHEM_FEATURE_SELFOVERLAP>
20.297

> <PUBCHEM_SHAPE_FINGERPRINT>
10967382 1 18338516477049811879
11132069 177 18337103484718443593
11206711 2 18409730668840002605
12032990 46 18410859832647949467
12524768 44 18122062280252428833
12932764 1 17989207061754776854
13140716 1 18267020544628214643
14325111 11 18410856520990365159
15219456 202 18130776846474430354
161256 15 18267307723363893381
16945 1 18338517572372058343
17804303 29 18196931076815832338
18186145 218 17918280843965294465
193761 8 17618223253199000167
20559304 39 18334857263882490528
20645476 183 17532378753705577598
21040471 1 18410856516716516356
21501502 16 18337962194329902967
22802520 49 18058737875092944398
2334 1 18410856529759803735
23402539 116 18271512139758884079
23463225 33 18335986354786796102
23552423 10 18187931638218712042
23557571 272 18272940410190841780
23559900 14 18199751333263762494
241688 4 18338799992188807472
2748010 2 18339920411796488471
3248919 1 17967532389046952034
369184 2 17988915678251558563
5084963 1 18262520286522336250
53812653 166 18271239426599755817
7364860 26 18339926030020016868
8030462 33 18409453608709915806

> <PUBCHEM_SHAPE_MULTIPOLES>
266.92
5.17
2.2
0.98
1.94
0.46
0
-1.26
0
-0.15
0
-0.96
0.21
0

> <PUBCHEM_SHAPE_SELFOVERLAP>
511.677

> <PUBCHEM_SHAPE_VOLUME>
161.9

> <PUBCHEM_COORDINATE_TYPE>
2
5
10

$$$$
