21122212
  -OEChem-11012401223D

 30 30  0     1  0  0  0  0  0999 V2000
   -3.3156   -0.3999   -0.1774 O   0  0  0  0  0  0  0  0  0  0  0  0
    2.6468   -1.2996   -0.0225 O   0  0  0  0  0  0  0  0  0  0  0  0
   -1.4808   -1.5512    0.6256 O   0  0  0  0  0  0  0  0  0  0  0  0
    3.3025    0.8963    0.2688 O   0  0  0  0  0  0  0  0  0  0  0  0
   -1.2114    0.1882   -1.0229 C   0  0  2  0  0  0  0  0  0  0  0  0
    0.9702    0.3006    0.2906 C   0  0  2  0  0  0  0  0  0  0  0  0
    0.2782   -0.1656   -0.9940 C   0  0  0  0  0  0  0  0  0  0  0  0
   -1.4590    1.6644   -0.7024 C   0  0  0  0  0  0  0  0  0  0  0  0
    0.7330    1.7879    0.5486 C   0  0  0  0  0  0  0  0  0  0  0  0
   -0.7557    2.1180    0.5763 C   0  0  0  0  0  0  0  0  0  0  0  0
   -1.9881   -0.6987   -0.0907 C   0  0  0  0  0  0  0  0  0  0  0  0
    2.4403    0.0324    0.1827 C   0  0  0  0  0  0  0  0  0  0  0  0
   -4.1766   -1.1750    0.6628 C   0  0  0  0  0  0  0  0  0  0  0  0
    4.0160   -1.6978   -0.1454 C   0  0  0  0  0  0  0  0  0  0  0  0
   -1.5852   -0.0287   -2.0324 H   0  0  0  0  0  0  0  0  0  0  0  0
    0.6070   -0.2601    1.1599 H   0  0  0  0  0  0  0  0  0  0  0  0
    0.4066   -1.2467   -1.1333 H   0  0  0  0  0  0  0  0  0  0  0  0
    0.7663    0.3064   -1.8582 H   0  0  0  0  0  0  0  0  0  0  0  0
   -1.0811    2.2684   -1.5378 H   0  0  0  0  0  0  0  0  0  0  0  0
   -2.5285    1.8898   -0.6240 H   0  0  0  0  0  0  0  0  0  0  0  0
    1.2172    2.3932   -0.2294 H   0  0  0  0  0  0  0  0  0  0  0  0
    1.1879    2.0851    1.5017 H   0  0  0  0  0  0  0  0  0  0  0  0
   -1.2219    1.6378    1.4452 H   0  0  0  0  0  0  0  0  0  0  0  0
   -0.8888    3.1985    0.7031 H   0  0  0  0  0  0  0  0  0  0  0  0
   -5.2039   -0.8394    0.4987 H   0  0  0  0  0  0  0  0  0  0  0  0
   -3.9196   -1.0185    1.7147 H   0  0  0  0  0  0  0  0  0  0  0  0
   -4.1071   -2.2351    0.4010 H   0  0  0  0  0  0  0  0  0  0  0  0
    4.0425   -2.7790   -0.3051 H   0  0  0  0  0  0  0  0  0  0  0  0
    4.5621   -1.4647    0.7736 H   0  0  0  0  0  0  0  0  0  0  0  0
    4.4779   -1.2043   -1.0059 H   0  0  0  0  0  0  0  0  0  0  0  0
  1 11  1  0  0  0  0
  1 13  1  0  0  0  0
  2 12  1  0  0  0  0
  2 14  1  0  0  0  0
  3 11  2  0  0  0  0
  4 12  2  0  0  0  0
  5  7  1  0  0  0  0
  5  8  1  0  0  0  0
  5 11  1  0  0  0  0
  5 15  1  0  0  0  0
  6  7  1  0  0  0  0
  6  9  1  0  0  0  0
  6 12  1  0  0  0  0
  6 16  1  0  0  0  0
  7 17  1  0  0  0  0
  7 18  1  0  0  0  0
  8 10  1  0  0  0  0
  8 19  1  0  0  0  0
  8 20  1  0  0  0  0
  9 10  1  0  0  0  0
  9 21  1  0  0  0  0
  9 22  1  0  0  0  0
 10 23  1  0  0  0  0
 10 24  1  0  0  0  0
 13 25  1  0  0  0  0
 13 26  1  0  0  0  0
 13 27  1  0  0  0  0
 14 28  1  0  0  0  0
 14 29  1  0  0  0  0
 14 30  1  0  0  0  0
M  END
> <PUBCHEM_COMPOUND_CID>
21122212

> <PUBCHEM_CONFORMER_RMSD>
0.6

> <PUBCHEM_CONFORMER_DIVERSEORDER>
2
15
3
12
7
14
4
1
8
6
10
5
9
13
11

> <PUBCHEM_MMFF94_PARTIAL_CHARGES>
10
1 -0.43
11 0.66
12 0.66
13 0.28
14 0.28
2 -0.43
3 -0.57
4 -0.57
5 0.06
6 0.06

> <PUBCHEM_EFFECTIVE_ROTOR_COUNT>
5.2

> <PUBCHEM_PHARMACOPHORE_FEATURES>
3
1 3 acceptor
1 4 acceptor
6 5 6 7 8 9 10 rings

> <PUBCHEM_HEAVY_ATOM_COUNT>
14

> <PUBCHEM_ATOM_DEF_STEREO_COUNT>
2

> <PUBCHEM_ATOM_UDEF_STEREO_COUNT>
0

> <PUBCHEM_BOND_DEF_STEREO_COUNT>
0

> <PUBCHEM_BOND_UDEF_STEREO_COUNT>
0

> <PUBCHEM_ISOTOPIC_ATOM_COUNT>
0

> <PUBCHEM_COMPONENT_COUNT>
1

> <PUBCHEM_CACTVS_TAUTO_COUNT>
1

> <PUBCHEM_CONFORMER_ID>
01424CA400000002

> <PUBCHEM_MMFF94_ENERGY>
21.0757

> <PUBCHEM_FEATURE_SELFOVERLAP>
15.223

> <PUBCHEM_SHAPE_FINGERPRINT>
10219947 1 18059859501665589511
10618630 7 18408605863675053327
11769659 78 18260543394648698062
12032990 46 18335142011793313123
12251169 10 18129946813937567415
12507560 14 18202566206962285327
12932764 1 17417797462075496860
13024252 1 13407657475923532549
14252887 29 18336830904223357891
15219456 202 18412536604938598004
15375462 478 17632303410410374097
16945 1 18268696384842861997
17844478 74 18409163324670930389
20201158 50 18336541715564504578
20281407 28 18334860549495600655
20281475 54 18338519745731089791
20671657 53 17022897973406805390
20711983 138 18408605850779621587
20871998 184 17916299446628888348
20871998 22 18410576222977254841
20871999 31 18040718009148136660
21296965 67 18409448107072885953
21501502 16 18341057332647746616
228727 97 14056989512614540437
23382010 3 11386373698353935335
23402539 116 17846492626709146117
23559900 14 18265884779735276762
25610 137 18410575115192372524
2748010 2 18271228435931627396
83771 10 18410575093316382010
8809292 202 18337672997255266578

> <PUBCHEM_SHAPE_MULTIPOLES>
264.64
6.14
2.06
0.91
1.01
0.56
-0.13
-4.09
0.84
0.06
0.34
-0.3
0.08
0.58

> <PUBCHEM_SHAPE_SELFOVERLAP>
529.099

> <PUBCHEM_SHAPE_VOLUME>
154.9

> <PUBCHEM_COORDINATE_TYPE>
2
5
10

$$$$
