18982
  -OEChem-11012401183D

 18 21  0     0  0  0  0  0  0999 V2000
    0.8212    3.1816    0.0010 O   0  0  0  0  0  0  0  0  0  0  0  0
    2.3448   -2.3020    0.0002 O   0  0  0  0  0  0  0  0  0  0  0  0
   -3.1660   -0.8796    0.0007 O   0  0  0  0  0  0  0  0  0  0  0  0
    2.9521    2.3058    0.0005 O   0  5  0  0  0  0  0  0  0  0  0  0
   -3.4729    1.4036   -0.0005 O   0  5  0  0  0  0  0  0  0  0  0  0
    0.5210   -3.7095    0.0021 O   0  5  0  0  0  0  0  0  0  0  0  0
    1.7294    2.0482    0.0003 N   0  3  0  0  0  0  0  0  0  0  0  0
   -2.6385    0.4736    0.0004 N   0  3  0  0  0  0  0  0  0  0  0  0
    0.9092   -2.5217   -0.0003 N   0  3  0  0  0  0  0  0  0  0  0  0
   -0.5130    2.6818    0.0008 N   0  0  0  0  0  0  0  0  0  0  0  0
    2.5791   -0.8967   -0.0005 N   0  0  0  0  0  0  0  0  0  0  0  0
   -2.0661   -1.7851    0.0001 N   0  0  0  0  0  0  0  0  0  0  0  0
    0.9659    0.9799   -0.0008 C   0  0  0  0  0  0  0  0  0  0  0  0
   -1.3316    0.3465   -0.0006 C   0  0  0  0  0  0  0  0  0  0  0  0
    0.3656   -1.3264   -0.0011 C   0  0  0  0  0  0  0  0  0  0  0  0
   -0.3649    1.3697   -0.0005 C   0  0  0  0  0  0  0  0  0  0  0  0
    1.3687   -0.3689   -0.0010 C   0  0  0  0  0  0  0  0  0  0  0  0
   -1.0039   -1.0009   -0.0009 C   0  0  0  0  0  0  0  0  0  0  0  0
  1  7  1  0  0  0  0
  1 10  1  0  0  0  0
  2  9  1  0  0  0  0
  2 11  1  0  0  0  0
  3  8  1  0  0  0  0
  3 12  1  0  0  0  0
  4  7  1  0  0  0  0
  5  8  1  0  0  0  0
  6  9  1  0  0  0  0
  7 13  2  0  0  0  0
  8 14  2  0  0  0  0
  9 15  2  0  0  0  0
 10 16  2  0  0  0  0
 11 17  2  0  0  0  0
 12 18  2  0  0  0  0
 13 16  1  0  0  0  0
 13 17  1  0  0  0  0
 14 16  1  0  0  0  0
 14 18  1  0  0  0  0
 15 17  1  0  0  0  0
 15 18  1  0  0  0  0
M  CHG  6   4  -1   5  -1   6  -1   7   1   8   1   9   1
M  END
> <PUBCHEM_COMPOUND_CID>
18982

> <PUBCHEM_CONFORMER_RMSD>
0.4

> <PUBCHEM_CONFORMER_DIVERSEORDER>
1

> <PUBCHEM_MMFF94_PARTIAL_CHARGES>
18
1 -0.12
10 -0.41
11 -0.41
12 -0.41
13 -0.08
14 -0.08
15 -0.08
16 0.29
17 0.29
18 0.29
2 -0.12
3 -0.12
4 -0.63
5 -0.63
6 -0.63
7 0.95
8 0.95
9 0.95

> <PUBCHEM_EFFECTIVE_ROTOR_COUNT>
0

> <PUBCHEM_PHARMACOPHORE_FEATURES>
10
1 10 acceptor
1 11 acceptor
1 12 acceptor
1 4 anion
1 5 anion
1 6 anion
5 1 7 10 13 16 rings
5 2 9 11 15 17 rings
5 3 8 12 14 18 rings
6 13 14 15 16 17 18 rings

> <PUBCHEM_HEAVY_ATOM_COUNT>
18

> <PUBCHEM_ATOM_DEF_STEREO_COUNT>
0

> <PUBCHEM_ATOM_UDEF_STEREO_COUNT>
0

> <PUBCHEM_BOND_DEF_STEREO_COUNT>
0

> <PUBCHEM_BOND_UDEF_STEREO_COUNT>
0

> <PUBCHEM_ISOTOPIC_ATOM_COUNT>
0

> <PUBCHEM_COMPONENT_COUNT>
1

> <PUBCHEM_CACTVS_TAUTO_COUNT>
1

> <PUBCHEM_CONFORMER_ID>
00004A2600000001

> <PUBCHEM_MMFF94_ENERGY>
64.5203

> <PUBCHEM_FEATURE_SELFOVERLAP>
51.088

> <PUBCHEM_SHAPE_FINGERPRINT>
10411042 1 17690280413762099587
10967382 1 18266459810714289861
12553582 1 18194684756937188087
13140716 1 18410573985151451584
13380535 76 18050845825410417806
14648413 74 18408324380408958763
14790565 3 18195269753211486540
15042514 8 16896243811922932715
16945 1 18266459797813531239
193761 8 18338798901225208229
19591789 44 18265903634320037230
20510252 161 17405418902118587866
20645477 70 18335692867561914679
21501502 16 18411134770879205197
2334 1 18338516468422934539
23402539 116 17764851516718047151
23419403 2 17390188626185866742
23526114 1 18410855498782867549
23559900 14 15605389587304204726
2748010 2 18337674216751535655
352729 6 17689998259520536612
54173680 148 17041201238716635683
7364860 26 18412263943118552205
81228 2 17762338011434975626

> <PUBCHEM_SHAPE_MULTIPOLES>
305.33
3.86
3.86
0.55
1.89
0.42
0
-0.42
0
-1.89
0
0
0
0

> <PUBCHEM_SHAPE_SELFOVERLAP>
706.279

> <PUBCHEM_SHAPE_VOLUME>
159.3

> <PUBCHEM_COORDINATE_TYPE>
2
5
10

$$$$
