140879
  -OEChem-11012400423D

 40 39  0     0  0  0  0  0  0999 V2000
   -5.4914    1.0285   -0.3067 O   0  0  0  0  0  0  0  0  0  0  0  0
    4.7331    0.3177   -1.3550 O   0  0  0  0  0  0  0  0  0  0  0  0
   -0.6123    0.4124   -0.2068 C   0  0  0  0  0  0  0  0  0  0  0  0
    0.6134   -0.4576    0.0879 C   0  0  0  0  0  0  0  0  0  0  0  0
   -1.9422   -0.2859    0.0947 C   0  0  0  0  0  0  0  0  0  0  0  0
    1.9443    0.2654   -0.1440 C   0  0  0  0  0  0  0  0  0  0  0  0
   -3.1267    0.6420   -0.1945 C   0  0  0  0  0  0  0  0  0  0  0  0
    3.1315   -0.6470    0.1948 C   0  0  0  0  0  0  0  0  0  0  0  0
   -4.5229    0.0185    0.0078 C   0  0  0  0  0  0  0  0  0  0  0  0
    4.5223   -0.0004    0.0221 C   0  0  0  0  0  0  0  0  0  0  0  0
   -4.7713   -0.3858    1.4614 C   0  0  0  0  0  0  0  0  0  0  0  0
   -4.7747   -1.1692   -0.9234 C   0  0  0  0  0  0  0  0  0  0  0  0
    5.6052   -1.0127    0.4092 C   0  0  0  0  0  0  0  0  0  0  0  0
    4.6916    1.2741    0.8524 C   0  0  0  0  0  0  0  0  0  0  0  0
   -0.5900    0.7153   -1.2610 H   0  0  0  0  0  0  0  0  0  0  0  0
   -0.5475    1.3318    0.3884 H   0  0  0  0  0  0  0  0  0  0  0  0
    0.5734   -1.3565   -0.5396 H   0  0  0  0  0  0  0  0  0  0  0  0
    0.5660   -0.7967    1.1303 H   0  0  0  0  0  0  0  0  0  0  0  0
   -2.0097   -1.1924   -0.5160 H   0  0  0  0  0  0  0  0  0  0  0  0
   -1.9553   -0.5957    1.1453 H   0  0  0  0  0  0  0  0  0  0  0  0
    2.0096    0.5922   -1.1881 H   0  0  0  0  0  0  0  0  0  0  0  0
    1.9665    1.1633    0.4829 H   0  0  0  0  0  0  0  0  0  0  0  0
   -3.0447    1.5414    0.4311 H   0  0  0  0  0  0  0  0  0  0  0  0
   -3.0516    1.0092   -1.2274 H   0  0  0  0  0  0  0  0  0  0  0  0
    3.0699   -1.5319   -0.4527 H   0  0  0  0  0  0  0  0  0  0  0  0
    3.0234   -0.9984    1.2292 H   0  0  0  0  0  0  0  0  0  0  0  0
   -4.1250   -1.2104    1.7765 H   0  0  0  0  0  0  0  0  0  0  0  0
   -5.8131   -0.6955    1.6056 H   0  0  0  0  0  0  0  0  0  0  0  0
   -4.6065    0.4630    2.1348 H   0  0  0  0  0  0  0  0  0  0  0  0
   -5.8221   -1.4884   -0.8688 H   0  0  0  0  0  0  0  0  0  0  0  0
   -4.5916   -0.8917   -1.9676 H   0  0  0  0  0  0  0  0  0  0  0  0
   -4.1446   -2.0290   -0.6768 H   0  0  0  0  0  0  0  0  0  0  0  0
    6.6078   -0.5996    0.2486 H   0  0  0  0  0  0  0  0  0  0  0  0
    5.5398   -1.9117   -0.2147 H   0  0  0  0  0  0  0  0  0  0  0  0
    5.5204   -1.3123    1.4590 H   0  0  0  0  0  0  0  0  0  0  0  0
    4.0482    2.0795    0.4831 H   0  0  0  0  0  0  0  0  0  0  0  0
    5.7169    1.6551    0.7770 H   0  0  0  0  0  0  0  0  0  0  0  0
    4.4687    1.0983    1.9097 H   0  0  0  0  0  0  0  0  0  0  0  0
   -5.3707    1.2797   -1.2384 H   0  0  0  0  0  0  0  0  0  0  0  0
    5.6099    0.7299   -1.4397 H   0  0  0  0  0  0  0  0  0  0  0  0
  1  9  1  0  0  0  0
  1 39  1  0  0  0  0
  2 10  1  0  0  0  0
  2 40  1  0  0  0  0
  3  4  1  0  0  0  0
  3  5  1  0  0  0  0
  3 15  1  0  0  0  0
  3 16  1  0  0  0  0
  4  6  1  0  0  0  0
  4 17  1  0  0  0  0
  4 18  1  0  0  0  0
  5  7  1  0  0  0  0
  5 19  1  0  0  0  0
  5 20  1  0  0  0  0
  6  8  1  0  0  0  0
  6 21  1  0  0  0  0
  6 22  1  0  0  0  0
  7  9  1  0  0  0  0
  7 23  1  0  0  0  0
  7 24  1  0  0  0  0
  8 10  1  0  0  0  0
  8 25  1  0  0  0  0
  8 26  1  0  0  0  0
  9 11  1  0  0  0  0
  9 12  1  0  0  0  0
 10 13  1  0  0  0  0
 10 14  1  0  0  0  0
 11 27  1  0  0  0  0
 11 28  1  0  0  0  0
 11 29  1  0  0  0  0
 12 30  1  0  0  0  0
 12 31  1  0  0  0  0
 12 32  1  0  0  0  0
 13 33  1  0  0  0  0
 13 34  1  0  0  0  0
 13 35  1  0  0  0  0
 14 36  1  0  0  0  0
 14 37  1  0  0  0  0
 14 38  1  0  0  0  0
M  END
> <PUBCHEM_COMPOUND_CID>
140879

> <PUBCHEM_CONFORMER_RMSD>
0.8

> <PUBCHEM_CONFORMER_DIVERSEORDER>
1
64
89
8
40
4
80
3
54
58
71
32
18
69
84
41
46
10
90
85
47
53
37
39
88
38
66
67
30
72
15
73
50
23
51
14
65
22
79
82
35
17
45
12
34
49
75
77
42
25
70
57
81
16
31
43
76
78
61
9
52
2
33
83
68
44
26
55
36
63
13
86
74
56
21
29
27
60
62
87
20
59
28
48
7
5
6
11
19
24

> <PUBCHEM_MMFF94_PARTIAL_CHARGES>
6
1 -0.68
10 0.28
2 -0.68
39 0.4
40 0.4
9 0.28

> <PUBCHEM_EFFECTIVE_ROTOR_COUNT>
7

> <PUBCHEM_PHARMACOPHORE_FEATURES>
8
1 1 acceptor
1 1 donor
1 2 acceptor
1 2 donor
3 10 13 14 hydrophobe
3 3 5 7 hydrophobe
3 4 6 8 hydrophobe
3 9 11 12 hydrophobe

> <PUBCHEM_HEAVY_ATOM_COUNT>
14

> <PUBCHEM_ATOM_DEF_STEREO_COUNT>
0

> <PUBCHEM_ATOM_UDEF_STEREO_COUNT>
0

> <PUBCHEM_BOND_DEF_STEREO_COUNT>
0

> <PUBCHEM_BOND_UDEF_STEREO_COUNT>
0

> <PUBCHEM_ISOTOPIC_ATOM_COUNT>
0

> <PUBCHEM_COMPONENT_COUNT>
1

> <PUBCHEM_CACTVS_TAUTO_COUNT>
1

> <PUBCHEM_CONFORMER_ID>
0002264F00000001

> <PUBCHEM_MMFF94_ENERGY>
22.5658

> <PUBCHEM_FEATURE_SELFOVERLAP>
40.6

> <PUBCHEM_SHAPE_FINGERPRINT>
10680689 15 18411982464506250729
10912923 1 17775566442082377643
11287383 113 17775282798310524178
11858739 19 13768191780078722528
12091667 2 18408322181290770419
13533116 47 18334570197502381026
14123238 8 18333168375151269127
1420 363 17967537865082788331
14251718 22 17988639735250714895
17834072 33 18202279233984103246
17834076 25 17967814937897225499
17844677 252 18272936015780421840
19489759 90 13117996704290620975
20281389 69 18336263453819859009
20645477 70 18271808965576717958
220451 1 18341901791710776678
23081809 10 18333450941060183518
23402539 116 18410006637610435429
23557571 272 17677049023370242564
300161 21 18408877422046966247
42788 4 18410854356332116225
522135 26 14836406930720435436
5374978 207 18411694383991359880
542803 24 18410857659156711597
57483677 66 18409726244733803282

> <PUBCHEM_SHAPE_MULTIPOLES>
276.37
15.9
1.08
1
0.73
0.03
0.11
-0.3
0.73
0.16
0.01
-0.3
-0.02
-0.1

> <PUBCHEM_SHAPE_SELFOVERLAP>
508.587

> <PUBCHEM_SHAPE_VOLUME>
177.1

> <PUBCHEM_COORDINATE_TYPE>
2
5
10

$$$$
