140901
  -OEChem-11012400383D

 31 32  0     0  0  0  0  0  0999 V2000
   -1.4935   -2.7159   -0.5951 O   0  0  0  0  0  0  0  0  0  0  0  0
   -0.5010   -0.8701    0.4603 N   0  0  0  0  0  0  0  0  0  0  0  0
    0.6363   -0.4789    1.1448 N   0  0  0  0  0  0  0  0  0  0  0  0
   -1.5829    0.0454    0.2219 C   0  0  0  0  0  0  0  0  0  0  0  0
    1.7324    0.0841    0.4584 C   0  0  0  0  0  0  0  0  0  0  0  0
   -2.3469   -0.1230   -0.9080 C   0  0  0  0  0  0  0  0  0  0  0  0
   -1.8054    1.0490    1.1341 C   0  0  0  0  0  0  0  0  0  0  0  0
   -0.5542   -2.1951    0.0094 C   0  0  0  0  0  0  0  0  0  0  0  0
    2.8609    0.4976    1.1664 C   0  0  0  0  0  0  0  0  0  0  0  0
    1.6880    0.2275   -0.9284 C   0  0  0  0  0  0  0  0  0  0  0  0
   -3.3967    0.7658   -1.1396 C   0  0  0  0  0  0  0  0  0  0  0  0
   -2.8554    1.9376    0.9027 C   0  0  0  0  0  0  0  0  0  0  0  0
   -3.6512    1.7960   -0.2342 C   0  0  0  0  0  0  0  0  0  0  0  0
    3.9447    1.0547    0.4876 C   0  0  0  0  0  0  0  0  0  0  0  0
    2.7719    0.7843   -1.6073 C   0  0  0  0  0  0  0  0  0  0  0  0
    0.6527   -3.0568    0.3265 C   0  0  0  0  0  0  0  0  0  0  0  0
    3.9003    1.1978   -0.8993 C   0  0  0  0  0  0  0  0  0  0  0  0
    0.6480   -0.5861    2.1507 H   0  0  0  0  0  0  0  0  0  0  0  0
   -2.1474   -0.8581   -1.6781 H   0  0  0  0  0  0  0  0  0  0  0  0
   -1.2042    1.1711    2.0295 H   0  0  0  0  0  0  0  0  0  0  0  0
    2.9072    0.3910    2.2471 H   0  0  0  0  0  0  0  0  0  0  0  0
    0.8342   -0.0832   -1.5225 H   0  0  0  0  0  0  0  0  0  0  0  0
   -4.0062    0.6666   -2.0333 H   0  0  0  0  0  0  0  0  0  0  0  0
   -3.0544    2.7390    1.6082 H   0  0  0  0  0  0  0  0  0  0  0  0
   -4.4666    2.4900   -0.4163 H   0  0  0  0  0  0  0  0  0  0  0  0
    4.8234    1.3767    1.0387 H   0  0  0  0  0  0  0  0  0  0  0  0
    2.7382    0.8951   -2.6872 H   0  0  0  0  0  0  0  0  0  0  0  0
    0.4310   -4.0963    0.0639 H   0  0  0  0  0  0  0  0  0  0  0  0
    0.8854   -3.0268    1.3943 H   0  0  0  0  0  0  0  0  0  0  0  0
    1.5152   -2.7365   -0.2624 H   0  0  0  0  0  0  0  0  0  0  0  0
    4.7444    1.6311   -1.4278 H   0  0  0  0  0  0  0  0  0  0  0  0
  1  8  2  0  0  0  0
  2  3  1  0  0  0  0
  2  4  1  0  0  0  0
  2  8  1  0  0  0  0
  3  5  1  0  0  0  0
  3 18  1  0  0  0  0
  4  6  2  0  0  0  0
  4  7  1  0  0  0  0
  5  9  2  0  0  0  0
  5 10  1  0  0  0  0
  6 11  1  0  0  0  0
  6 19  1  0  0  0  0
  7 12  2  0  0  0  0
  7 20  1  0  0  0  0
  8 16  1  0  0  0  0
  9 14  1  0  0  0  0
  9 21  1  0  0  0  0
 10 15  2  0  0  0  0
 10 22  1  0  0  0  0
 11 13  2  0  0  0  0
 11 23  1  0  0  0  0
 12 13  1  0  0  0  0
 12 24  1  0  0  0  0
 13 25  1  0  0  0  0
 14 17  2  0  0  0  0
 14 26  1  0  0  0  0
 15 17  1  0  0  0  0
 15 27  1  0  0  0  0
 16 28  1  0  0  0  0
 16 29  1  0  0  0  0
 16 30  1  0  0  0  0
 17 31  1  0  0  0  0
M  END
> <PUBCHEM_COMPOUND_CID>
140901

> <PUBCHEM_CONFORMER_RMSD>
0.6

> <PUBCHEM_CONFORMER_DIVERSEORDER>
1
15
28
36
43
29
40
34
27
31
30
26
23
20
32
37
25
7
38
14
21
16
42
24
6
19
33
18
10
11
12
5
39
13
3
2
4
9
8
22
41
35
17

> <PUBCHEM_MMFF94_PARTIAL_CHARGES>
28
1 -0.57
10 -0.15
11 -0.15
12 -0.15
13 -0.15
14 -0.15
15 -0.15
16 0.06
17 -0.15
18 0.4
19 0.15
2 -0.16
20 0.15
21 0.15
22 0.15
23 0.15
24 0.15
25 0.15
26 0.15
27 0.15
3 -0.52
31 0.15
4 0.12
5 0.1
6 -0.15
7 -0.15
8 0.57
9 -0.15

> <PUBCHEM_EFFECTIVE_ROTOR_COUNT>
4

> <PUBCHEM_PHARMACOPHORE_FEATURES>
4
1 1 acceptor
1 3 donor
6 4 6 7 11 12 13 rings
6 5 9 10 14 15 17 rings

> <PUBCHEM_HEAVY_ATOM_COUNT>
17

> <PUBCHEM_ATOM_DEF_STEREO_COUNT>
0

> <PUBCHEM_ATOM_UDEF_STEREO_COUNT>
0

> <PUBCHEM_BOND_DEF_STEREO_COUNT>
0

> <PUBCHEM_BOND_UDEF_STEREO_COUNT>
0

> <PUBCHEM_ISOTOPIC_ATOM_COUNT>
0

> <PUBCHEM_COMPONENT_COUNT>
1

> <PUBCHEM_CACTVS_TAUTO_COUNT>
1

> <PUBCHEM_CONFORMER_ID>
0002266500000001

> <PUBCHEM_MMFF94_ENERGY>
70.4047

> <PUBCHEM_FEATURE_SELFOVERLAP>
20.297

> <PUBCHEM_SHAPE_FINGERPRINT>
10498660 4 18270957947544953057
11221954 11 17026260108472340893
11640471 11 18186794803287996232
11725454 13 16771506743498101042
12138202 97 18201440324018936742
12173636 292 18411135882874912413
12251169 10 13767933420167858912
12500047 106 18340207488017130078
12707595 3 10735865162762299105
12788726 201 17900824065418805226
13134695 92 17465376413500426479
13296908 3 9943519678816181105
13764800 53 18337965561821575201
14181834 199 18123462778846362158
15309172 13 18260553307333120453
15342168 16 18260835843636524717
15775835 57 18113896069806569428
15852999 172 18201725063366016782
15906896 17 17896610667930551626
16752209 62 18192700361660978610
16945 1 18272369823152585011
17134986 127 18336551516700836764
1741750 31 18410293635683025520
18186145 218 18201168662921216924
18222031 100 11025810798702310145
18534176 82 18059015110989674778
19765921 60 18129945576907780793
19868273 293 18336265734035477768
20510252 161 18196373842872811090
20645476 183 18261392281896921746
20645477 56 18268440190502468128
20671657 1 18266741272822358183
20671657 53 14117800202291302656
21499 59 18409164377196302697
21524375 3 18260827085744040219
2255824 54 17978790112921937811
22907989 373 18126013907688739924
23402539 116 18201142343261354996
23419403 2 15186076869644172987
23526113 38 17203608216012543578
23557571 272 17983012546794093992
23559900 14 18202567285605452256
25 1 17988096486412474688
298252 57 18335137600555731210
305870 269 18338516318104405994
4028521 119 18131630067181683725
474 4 18261956215687958785
5262128 65 16774078483488663520
6992083 37 17967809500727072492
7364860 26 18053660270219022243
74978 22 18337955709367421620
7615 1 17679014044524090100
81228 2 18052266390101841603
84936 182 18128250086711917008

> <PUBCHEM_SHAPE_MULTIPOLES>
334.02
6.74
2.59
1.33
1.73
2.61
0.14
-5.27
1.08
-0.93
-0.09
0.33
-0.37
-0.61

> <PUBCHEM_SHAPE_SELFOVERLAP>
712.003

> <PUBCHEM_SHAPE_VOLUME>
184.2

> <PUBCHEM_COORDINATE_TYPE>
2
5
10

$$$$
