144965
  -OEChem-11012401073D

 14 14  0     0  0  0  0  0  0999 V2000
   -0.0151   -0.1614    0.7849 N   0  0  0  0  0  0  0  0  0  0  0  0
    1.2427    1.5383   -0.3710 N   0  0  0  0  0  0  0  0  0  0  0  0
   -2.3451   -0.1430    0.7810 N   0  0  0  0  0  0  0  0  0  0  0  0
    2.3179   -0.1770    0.7878 N   0  0  0  0  0  0  0  0  0  0  0  0
   -2.7668   -0.9954   -0.0315 N   0  3  0  0  0  0  0  0  0  0  0  0
    2.7302   -1.0350   -0.0244 N   0  3  0  0  0  0  0  0  0  0  0  0
   -3.1563   -1.7741   -0.7694 N   0  5  0  0  0  0  0  0  0  0  0  0
    3.1024   -1.8168   -0.7681 N   0  5  0  0  0  0  0  0  0  0  0  0
   -1.1462    0.4488    0.3743 C   0  0  0  0  0  0  0  0  0  0  0  0
   -1.1634    1.5911   -0.3998 C   0  0  0  0  0  0  0  0  0  0  0  0
    1.1267    0.4280    0.3823 C   0  0  0  0  0  0  0  0  0  0  0  0
    0.0730    2.0964   -0.7461 C   0  0  0  0  0  0  0  0  0  0  0  0
   -2.0813    2.0680   -0.7191 H   0  0  0  0  0  0  0  0  0  0  0  0
    0.1600    2.9915   -1.3529 H   0  0  0  0  0  0  0  0  0  0  0  0
  1  9  2  0  0  0  0
  1 11  1  0  0  0  0
  2 11  2  0  0  0  0
  2 12  1  0  0  0  0
  3  5  2  0  0  0  0
  3  9  1  0  0  0  0
  4  6  2  0  0  0  0
  4 11  1  0  0  0  0
  5  7  2  0  0  0  0
  6  8  2  0  0  0  0
  9 10  1  0  0  0  0
 10 12  2  0  0  0  0
 10 13  1  0  0  0  0
 12 14  1  0  0  0  0
M  CHG  4   5   1   6   1   7  -1   8  -1
M  END
> <PUBCHEM_COMPOUND_CID>
144965

> <PUBCHEM_CONFORMER_RMSD>
0.6

> <PUBCHEM_CONFORMER_DIVERSEORDER>
1
10
7
9
11
5
2
6
8
4
3

> <PUBCHEM_MMFF94_PARTIAL_CHARGES>
14
1 -0.62
10 -0.15
11 0.8
12 0.16
13 0.15
14 0.15
2 -0.62
3 -0.5
4 -0.5
5 0.69
6 0.69
7 -0.37
8 -0.37
9 0.49

> <PUBCHEM_EFFECTIVE_ROTOR_COUNT>
2

> <PUBCHEM_PHARMACOPHORE_FEATURES>
2
4 1 2 4 11 cation
6 1 2 9 10 11 12 rings

> <PUBCHEM_HEAVY_ATOM_COUNT>
12

> <PUBCHEM_ATOM_DEF_STEREO_COUNT>
0

> <PUBCHEM_ATOM_UDEF_STEREO_COUNT>
0

> <PUBCHEM_BOND_DEF_STEREO_COUNT>
0

> <PUBCHEM_BOND_UDEF_STEREO_COUNT>
1

> <PUBCHEM_ISOTOPIC_ATOM_COUNT>
0

> <PUBCHEM_COMPONENT_COUNT>
1

> <PUBCHEM_CACTVS_TAUTO_COUNT>
1

> <PUBCHEM_CONFORMER_ID>
0002364500000001

> <PUBCHEM_MMFF94_ENERGY>
23.7994

> <PUBCHEM_FEATURE_SELFOVERLAP>
10.148

> <PUBCHEM_SHAPE_FINGERPRINT>
11206711 2 17676764279986742093
11769659 78 18201998832759960915
12138202 97 17828761737993997228
14128692 85 18409736165960317160
16945 1 17973174099252646745
20645477 70 18118675767834613743
20653085 51 12035724271754754913
20711985 344 17969777484437943169
20871998 22 18409448093950600786
23552423 10 17967538947636216256
2748010 2 18187358835410029101
449060 23 18410856542476004586
58734985 102 18261116334648616372

> <PUBCHEM_SHAPE_MULTIPOLES>
207.11
4.49
2.09
0.89
0.23
0.28
-0.01
-3.8
-0.63
-0.09
-0.82
0
-0.07
0.01

> <PUBCHEM_SHAPE_SELFOVERLAP>
431.696

> <PUBCHEM_SHAPE_VOLUME>
113.4

> <PUBCHEM_COORDINATE_TYPE>
2
5
10

$$$$
