9245
  -OEChem-11012401023D

 19 20  0     1  0  0  0  0  0999 V2000
   -0.9169   -0.8150   -0.3553 C   0  0  2  0  0  0  0  0  0  0  0  0
   -0.9790    0.6899   -0.4534 C   0  0  1  0  0  0  0  0  0  0  0  0
   -1.6735   -0.0132    0.6781 C   0  0  0  0  0  0  0  0  0  0  0  0
    0.3529   -1.5053    0.0441 C   0  0  0  0  0  0  0  0  0  0  0  0
    0.2535    1.5117   -0.2324 C   0  0  0  0  0  0  0  0  0  0  0  0
    1.5839   -0.6234   -0.1517 C   0  0  0  0  0  0  0  0  0  0  0  0
    1.3790    0.7552    0.4705 C   0  0  0  0  0  0  0  0  0  0  0  0
   -1.5004   -1.3939   -1.0608 H   0  0  0  0  0  0  0  0  0  0  0  0
   -1.6144    1.1225   -1.2181 H   0  0  0  0  0  0  0  0  0  0  0  0
   -2.7560   -0.0593    0.6524 H   0  0  0  0  0  0  0  0  0  0  0  0
   -1.2620    0.0763    1.6758 H   0  0  0  0  0  0  0  0  0  0  0  0
    0.4726   -2.4206   -0.5471 H   0  0  0  0  0  0  0  0  0  0  0  0
    0.2865   -1.8207    1.0926 H   0  0  0  0  0  0  0  0  0  0  0  0
    0.0002    2.4133    0.3366 H   0  0  0  0  0  0  0  0  0  0  0  0
    0.6168    1.8493   -1.2111 H   0  0  0  0  0  0  0  0  0  0  0  0
    1.7944   -0.5133   -1.2227 H   0  0  0  0  0  0  0  0  0  0  0  0
    2.4559   -1.1105    0.2991 H   0  0  0  0  0  0  0  0  0  0  0  0
    1.1508    0.6467    1.5377 H   0  0  0  0  0  0  0  0  0  0  0  0
    2.3052    1.3371    0.4016 H   0  0  0  0  0  0  0  0  0  0  0  0
  1  2  1  0  0  0  0
  1  3  1  0  0  0  0
  1  4  1  0  0  0  0
  1  8  1  0  0  0  0
  2  3  1  0  0  0  0
  2  5  1  0  0  0  0
  2  9  1  0  0  0  0
  3 10  1  0  0  0  0
  3 11  1  0  0  0  0
  4  6  1  0  0  0  0
  4 12  1  0  0  0  0
  4 13  1  0  0  0  0
  5  7  1  0  0  0  0
  5 14  1  0  0  0  0
  5 15  1  0  0  0  0
  6  7  1  0  0  0  0
  6 16  1  0  0  0  0
  6 17  1  0  0  0  0
  7 18  1  0  0  0  0
  7 19  1  0  0  0  0
M  END
> <PUBCHEM_COMPOUND_CID>
9245

> <PUBCHEM_CONFORMER_RMSD>
0.4

> <PUBCHEM_CONFORMER_DIVERSEORDER>
1
2
3

> <PUBCHEM_MMFF94_PARTIAL_CHARGES>
9
1 -0.19
10 0.1
11 0.1
2 -0.19
3 -0.2
4 0.09
5 0.09
8 0.1
9 0.1

> <PUBCHEM_EFFECTIVE_ROTOR_COUNT>
1

> <PUBCHEM_PHARMACOPHORE_FEATURES>
1
7 1 2 3 4 5 6 7 rings

> <PUBCHEM_HEAVY_ATOM_COUNT>
7

> <PUBCHEM_ATOM_DEF_STEREO_COUNT>
0

> <PUBCHEM_ATOM_UDEF_STEREO_COUNT>
2

> <PUBCHEM_BOND_DEF_STEREO_COUNT>
0

> <PUBCHEM_BOND_UDEF_STEREO_COUNT>
0

> <PUBCHEM_ISOTOPIC_ATOM_COUNT>
0

> <PUBCHEM_COMPONENT_COUNT>
1

> <PUBCHEM_CACTVS_TAUTO_COUNT>
1

> <PUBCHEM_CONFORMER_ID>
0000241D00000001

> <PUBCHEM_MMFF94_ENERGY>
10.5481

> <PUBCHEM_FEATURE_SELFOVERLAP>
5.074

> <PUBCHEM_SHAPE_FINGERPRINT>
16714656 1 18409740547111665894
18185500 45 16175937908937662196
20096714 4 18343022206975757962
21040471 1 18267588102896901805
29004967 10 18260840279799158033

> <PUBCHEM_SHAPE_MULTIPOLES>
144.06
1.93
1.57
0.77
0.04
0
0.04
-0.04
0.24
0.24
-0.1
-0.1
0.04
0.08

> <PUBCHEM_SHAPE_SELFOVERLAP>
288.236

> <PUBCHEM_SHAPE_VOLUME>
84.8

> <PUBCHEM_COORDINATE_TYPE>
2
5
10

$$$$
