439255
  -OEChem-11012401213D

 22 21  0     1  0  0  0  0  0999 V2000
   -0.0978    0.6595    1.5019 O   0  0  0  0  0  0  0  0  0  0  0  0
    1.4224   -0.9994   -1.3510 O   0  0  0  0  0  0  0  0  0  0  0  0
   -1.3994   -1.7307    0.5579 O   0  0  0  0  0  0  0  0  0  0  0  0
    2.7661    1.2381   -0.2969 O   0  0  0  0  0  0  0  0  0  0  0  0
   -2.5765    1.4518   -0.8062 O   0  0  0  0  0  0  0  0  0  0  0  0
   -0.0210    0.2172    0.1413 C   0  0  0  0  0  0  0  0  0  0  0  0
    1.2613   -0.6287    0.0245 C   0  0  2  0  0  0  0  0  0  0  0  0
   -1.3101   -0.5426   -0.2259 C   0  0  2  0  0  0  0  0  0  0  0  0
    2.5446    0.0650    0.4764 C   0  0  0  0  0  0  0  0  0  0  0  0
   -2.5895    0.2698   -0.0221 C   0  0  0  0  0  0  0  0  0  0  0  0
    0.0610    1.1066   -0.4938 H   0  0  0  0  0  0  0  0  0  0  0  0
    1.1769   -1.5465    0.6177 H   0  0  0  0  0  0  0  0  0  0  0  0
   -1.2648   -0.8355   -1.2816 H   0  0  0  0  0  0  0  0  0  0  0  0
    3.4093   -0.5908    0.3293 H   0  0  0  0  0  0  0  0  0  0  0  0
    2.5023    0.3482    1.5319 H   0  0  0  0  0  0  0  0  0  0  0  0
   -3.4614   -0.3306   -0.3053 H   0  0  0  0  0  0  0  0  0  0  0  0
   -2.7181    0.5415    1.0316 H   0  0  0  0  0  0  0  0  0  0  0  0
   -0.2239   -0.1269    2.0601 H   0  0  0  0  0  0  0  0  0  0  0  0
    0.7490   -1.6692   -1.5567 H   0  0  0  0  0  0  0  0  0  0  0  0
   -0.7781   -2.3791    0.1859 H   0  0  0  0  0  0  0  0  0  0  0  0
    2.7867    0.9712   -1.2318 H   0  0  0  0  0  0  0  0  0  0  0  0
   -3.4137    1.9165   -0.6372 H   0  0  0  0  0  0  0  0  0  0  0  0
  1  6  1  0  0  0  0
  1 18  1  0  0  0  0
  2  7  1  0  0  0  0
  2 19  1  0  0  0  0
  3  8  1  0  0  0  0
  3 20  1  0  0  0  0
  4  9  1  0  0  0  0
  4 21  1  0  0  0  0
  5 10  1  0  0  0  0
  5 22  1  0  0  0  0
  6  7  1  0  0  0  0
  6  8  1  0  0  0  0
  6 11  1  0  0  0  0
  7  9  1  0  0  0  0
  7 12  1  0  0  0  0
  8 10  1  0  0  0  0
  8 13  1  0  0  0  0
  9 14  1  0  0  0  0
  9 15  1  0  0  0  0
 10 16  1  0  0  0  0
 10 17  1  0  0  0  0
M  END
> <PUBCHEM_COMPOUND_CID>
439255

> <PUBCHEM_CONFORMER_RMSD>
0.6

> <PUBCHEM_CONFORMER_DIVERSEORDER>
1
7
8
12
14
4
3
15
2
9
6
13
11
10
5

> <PUBCHEM_MMFF94_PARTIAL_CHARGES>
15
1 -0.68
10 0.28
18 0.4
19 0.4
2 -0.68
20 0.4
21 0.4
22 0.4
3 -0.68
4 -0.68
5 -0.68
6 0.28
7 0.28
8 0.28
9 0.28

> <PUBCHEM_EFFECTIVE_ROTOR_COUNT>
4

> <PUBCHEM_PHARMACOPHORE_FEATURES>
10
1 1 acceptor
1 1 donor
1 2 acceptor
1 2 donor
1 3 acceptor
1 3 donor
1 4 acceptor
1 4 donor
1 5 acceptor
1 5 donor

> <PUBCHEM_HEAVY_ATOM_COUNT>
10

> <PUBCHEM_ATOM_DEF_STEREO_COUNT>
2

> <PUBCHEM_ATOM_UDEF_STEREO_COUNT>
0

> <PUBCHEM_BOND_DEF_STEREO_COUNT>
0

> <PUBCHEM_BOND_UDEF_STEREO_COUNT>
0

> <PUBCHEM_ISOTOPIC_ATOM_COUNT>
0

> <PUBCHEM_COMPONENT_COUNT>
1

> <PUBCHEM_CACTVS_TAUTO_COUNT>
1

> <PUBCHEM_CONFORMER_ID>
0006B3D700000001

> <PUBCHEM_MMFF94_ENERGY>
21.4821

> <PUBCHEM_FEATURE_SELFOVERLAP>
50.762

> <PUBCHEM_SHAPE_FINGERPRINT>
12138202 97 18341322362168216487
12716758 59 18333732398862566179
12897270 3 17632580456938250664
12932741 1 18342472425555759126
12932764 1 18113908160286947378
14390081 3 18333728013790601701
18342897 55 17131541838603074960
20201158 50 18059572451557675454
20653085 51 18114755836333411365
21040471 1 18115027403073771263
21293036 1 17131825525250488356
23552423 10 17702114555567982983
24536 1 18059870415130106738
29004967 10 17632582672904167674
3248919 1 18059857237932955370
369184 2 17894909658901295018

> <PUBCHEM_SHAPE_MULTIPOLES>
176.45
4.01
1.33
1.03
0.2
0.11
-0.05
-1.25
0.54
-0.31
0.09
0.1
-0.01
0.41

> <PUBCHEM_SHAPE_SELFOVERLAP>
326.88

> <PUBCHEM_SHAPE_VOLUME>
110.7

> <PUBCHEM_COORDINATE_TYPE>
2
5
10

$$$$
