7468
  -OEChem-11012401123D

 19 19  0     0  0  0  0  0  0999 V2000
   -2.7883    1.1398    0.0007 O   0  0  0  0  0  0  0  0  0  0  0  0
    3.5212   -0.0648    0.0003 N   0  0  0  0  0  0  0  0  0  0  0  0
   -0.6774    0.0472    0.0004 C   0  0  0  0  0  0  0  0  0  0  0  0
   -0.0124   -1.1790    0.0005 C   0  0  0  0  0  0  0  0  0  0  0  0
    0.0520    1.2362   -0.0002 C   0  0  0  0  0  0  0  0  0  0  0  0
    2.1114   -0.0271   -0.0004 C   0  0  0  0  0  0  0  0  0  0  0  0
    1.3820   -1.2161    0.0001 C   0  0  0  0  0  0  0  0  0  0  0  0
    1.4464    1.1990   -0.0006 C   0  0  0  0  0  0  0  0  0  0  0  0
   -2.1310    0.0863   -0.0002 C   0  0  0  0  0  0  0  0  0  0  0  0
   -2.9040   -1.2215   -0.0007 C   0  0  0  0  0  0  0  0  0  0  0  0
   -0.5366   -2.1292    0.0009 H   0  0  0  0  0  0  0  0  0  0  0  0
   -0.4453    2.2025   -0.0004 H   0  0  0  0  0  0  0  0  0  0  0  0
    1.8892   -2.1777    0.0004 H   0  0  0  0  0  0  0  0  0  0  0  0
    2.0037    2.1323   -0.0007 H   0  0  0  0  0  0  0  0  0  0  0  0
   -2.6806   -1.7966   -0.9032 H   0  0  0  0  0  0  0  0  0  0  0  0
   -3.9772   -1.0039   -0.0018 H   0  0  0  0  0  0  0  0  0  0  0  0
   -2.6822   -1.7963    0.9024 H   0  0  0  0  0  0  0  0  0  0  0  0
    4.0506    0.7969   -0.0015 H   0  0  0  0  0  0  0  0  0  0  0  0
    4.0038   -0.9535   -0.0011 H   0  0  0  0  0  0  0  0  0  0  0  0
  1  9  2  0  0  0  0
  2  6  1  0  0  0  0
  2 18  1  0  0  0  0
  2 19  1  0  0  0  0
  3  4  2  0  0  0  0
  3  5  1  0  0  0  0
  3  9  1  0  0  0  0
  4  7  1  0  0  0  0
  4 11  1  0  0  0  0
  5  8  2  0  0  0  0
  5 12  1  0  0  0  0
  6  7  2  0  0  0  0
  6  8  1  0  0  0  0
  7 13  1  0  0  0  0
  8 14  1  0  0  0  0
  9 10  1  0  0  0  0
 10 15  1  0  0  0  0
 10 16  1  0  0  0  0
 10 17  1  0  0  0  0
M  END
> <PUBCHEM_COMPOUND_CID>
7468

> <PUBCHEM_CONFORMER_RMSD>
0.4

> <PUBCHEM_CONFORMER_DIVERSEORDER>
1
2

> <PUBCHEM_MMFF94_PARTIAL_CHARGES>
16
1 -0.57
10 0.06
11 0.15
12 0.15
13 0.15
14 0.15
18 0.4
19 0.4
2 -0.9
3 0.09
4 -0.15
5 -0.15
6 0.1
7 -0.15
8 -0.15
9 0.42

> <PUBCHEM_EFFECTIVE_ROTOR_COUNT>
1

> <PUBCHEM_PHARMACOPHORE_FEATURES>
4
1 1 acceptor
1 2 cation
1 2 donor
6 3 4 5 6 7 8 rings

> <PUBCHEM_HEAVY_ATOM_COUNT>
10

> <PUBCHEM_ATOM_DEF_STEREO_COUNT>
0

> <PUBCHEM_ATOM_UDEF_STEREO_COUNT>
0

> <PUBCHEM_BOND_DEF_STEREO_COUNT>
0

> <PUBCHEM_BOND_UDEF_STEREO_COUNT>
0

> <PUBCHEM_ISOTOPIC_ATOM_COUNT>
0

> <PUBCHEM_COMPONENT_COUNT>
1

> <PUBCHEM_CACTVS_TAUTO_COUNT>
7

> <PUBCHEM_CONFORMER_ID>
00001D2C00000001

> <PUBCHEM_MMFF94_ENERGY>
36.3602

> <PUBCHEM_FEATURE_SELFOVERLAP>
20.297

> <PUBCHEM_SHAPE_FINGERPRINT>
10857977 72 18411408535972920867
12032990 46 18412270536247110798
12897270 3 18410007758438695935
12932764 1 17385716980830231085
14128692 85 18342739675558398823
14325111 11 18410574011063835616
16945 1 18410573950833962756
193761 8 17546165199562414438
20201158 50 18408884031701142835
21040471 1 18338516468618171808
23235685 24 18410288103817941096
23402655 69 18268695127298529717
23552423 10 18333453148778953119
2748010 2 18266739262756252860
29004967 10 18409452466137643850
5084963 1 18270965751230679673
528886 8 18411131407550553921

> <PUBCHEM_SHAPE_MULTIPOLES>
194.94
4.49
1.47
0.6
0.16
0.02
0
-0.33
0
0.26
0
0
-0.01
0

> <PUBCHEM_SHAPE_SELFOVERLAP>
405.217

> <PUBCHEM_SHAPE_VOLUME>
112.3

> <PUBCHEM_COORDINATE_TYPE>
2
5
10

$$$$
