123252
  -OEChem-11012400453D

 20 19  0     1  0  0  0  0  0999 V2000
   -2.5730    1.1984    0.3490 Cl  0  0  0  0  0  0  0  0  0  0  0  0
    1.1222   -0.0990    0.3653 O   0  0  0  0  0  0  0  0  0  0  0  0
    0.0417    1.5233   -0.8621 O   0  0  0  0  0  0  0  0  0  0  0  0
   -1.5076   -1.3289    0.4541 C   0  0  0  0  0  0  0  0  0  0  0  0
   -1.1862    0.1421    0.7320 C   0  0  1  0  0  0  0  0  0  0  0  0
   -1.7431   -1.6687   -1.0134 C   0  0  0  0  0  0  0  0  0  0  0  0
    0.0319    0.6265   -0.0294 C   0  0  0  0  0  0  0  0  0  0  0  0
    2.3575    0.2472   -0.2692 C   0  0  0  0  0  0  0  0  0  0  0  0
    3.4567   -0.6409    0.2737 C   0  0  0  0  0  0  0  0  0  0  0  0
   -2.3928   -1.6233    1.0315 H   0  0  0  0  0  0  0  0  0  0  0  0
   -0.6834   -1.9546    0.8187 H   0  0  0  0  0  0  0  0  0  0  0  0
   -0.9913    0.2864    1.8002 H   0  0  0  0  0  0  0  0  0  0  0  0
   -1.9550   -2.7379   -1.1177 H   0  0  0  0  0  0  0  0  0  0  0  0
   -2.5965   -1.1210   -1.4235 H   0  0  0  0  0  0  0  0  0  0  0  0
   -0.8625   -1.4446   -1.6230 H   0  0  0  0  0  0  0  0  0  0  0  0
    2.2650    0.1020   -1.3513 H   0  0  0  0  0  0  0  0  0  0  0  0
    2.5931    1.2970   -0.0615 H   0  0  0  0  0  0  0  0  0  0  0  0
    4.4173   -0.4031   -0.1915 H   0  0  0  0  0  0  0  0  0  0  0  0
    3.5492   -0.5202    1.3581 H   0  0  0  0  0  0  0  0  0  0  0  0
    3.2259   -1.6954    0.0899 H   0  0  0  0  0  0  0  0  0  0  0  0
  1  5  1  0  0  0  0
  2  7  1  0  0  0  0
  2  8  1  0  0  0  0
  3  7  2  0  0  0  0
  4  5  1  0  0  0  0
  4  6  1  0  0  0  0
  4 10  1  0  0  0  0
  4 11  1  0  0  0  0
  5  7  1  0  0  0  0
  5 12  1  0  0  0  0
  6 13  1  0  0  0  0
  6 14  1  0  0  0  0
  6 15  1  0  0  0  0
  8  9  1  0  0  0  0
  8 16  1  0  0  0  0
  8 17  1  0  0  0  0
  9 18  1  0  0  0  0
  9 19  1  0  0  0  0
  9 20  1  0  0  0  0
M  END
> <PUBCHEM_COMPOUND_CID>
123252

> <PUBCHEM_CONFORMER_RMSD>
0.6

> <PUBCHEM_CONFORMER_DIVERSEORDER>
1
52
57
31
82
70
8
44
59
27
47
87
4
78
14
21
50
12
88
77
42
9
38
56
74
84
43
67
19
39
62
41
73
18
75
3
40
80
81
23
29
45
32
5
15
72
68
11
61
10
37
69
46
58
51
34
48
53
17
79
49
16
6
13
30
66
7
20
33
60
55
26
28
65
86
71
63
85
24
36
22
64
83
76
2
54
35
25

> <PUBCHEM_MMFF94_PARTIAL_CHARGES>
6
1 -0.29
2 -0.43
3 -0.57
5 0.35
7 0.66
8 0.28

> <PUBCHEM_EFFECTIVE_ROTOR_COUNT>
4

> <PUBCHEM_PHARMACOPHORE_FEATURES>
2
1 3 acceptor
1 6 hydrophobe

> <PUBCHEM_HEAVY_ATOM_COUNT>
9

> <PUBCHEM_ATOM_DEF_STEREO_COUNT>
0

> <PUBCHEM_ATOM_UDEF_STEREO_COUNT>
1

> <PUBCHEM_BOND_DEF_STEREO_COUNT>
0

> <PUBCHEM_BOND_UDEF_STEREO_COUNT>
0

> <PUBCHEM_ISOTOPIC_ATOM_COUNT>
0

> <PUBCHEM_COMPONENT_COUNT>
1

> <PUBCHEM_CACTVS_TAUTO_COUNT>
1

> <PUBCHEM_CONFORMER_ID>
0001E17400000001

> <PUBCHEM_MMFF94_ENERGY>
5.1157

> <PUBCHEM_FEATURE_SELFOVERLAP>
10.148

> <PUBCHEM_SHAPE_FINGERPRINT>
12932741 1 17203895175562225112
12932764 1 18200324332680702304
14577589 140 18341056232940777586
18342897 137 18059867116458086550
20871998 184 18343311374444766999
23402539 116 17703219629827454969
23552423 10 18117284876322879284
3248919 1 16917077650477595816

> <PUBCHEM_SHAPE_MULTIPOLES>
175.35
4.39
1.62
0.91
3.79
0.34
0.09
0.43
-0.42
-1.19
0.35
-0.23
0.08
-0.42

> <PUBCHEM_SHAPE_SELFOVERLAP>
312.936

> <PUBCHEM_SHAPE_VOLUME>
114.6

> <PUBCHEM_COORDINATE_TYPE>
2
5
10

$$$$
