140400
  -OEChem-11012400543D

 15 15  0     0  0  0  0  0  0999 V2000
   -2.2660    1.1299    0.0005 O   0  0  0  0  0  0  0  0  0  0  0  0
    1.0747   -1.0803    0.0000 N   0  0  0  0  0  0  0  0  0  0  0  0
    1.1953    0.2936   -0.0001 C   0  0  0  0  0  0  0  0  0  0  0  0
    0.1078    1.0878   -0.0004 C   0  0  0  0  0  0  0  0  0  0  0  0
    2.5844    0.8562    0.0003 C   0  0  0  0  0  0  0  0  0  0  0  0
   -1.2449    0.4513   -0.0005 C   0  0  0  0  0  0  0  0  0  0  0  0
   -0.1439   -1.7000    0.0001 C   0  0  0  0  0  0  0  0  0  0  0  0
   -1.3074   -1.0385    0.0000 C   0  0  0  0  0  0  0  0  0  0  0  0
    0.1643    2.1696   -0.0004 H   0  0  0  0  0  0  0  0  0  0  0  0
    1.9128   -1.6483    0.0004 H   0  0  0  0  0  0  0  0  0  0  0  0
    3.1305    0.5221    0.8888 H   0  0  0  0  0  0  0  0  0  0  0  0
    2.5853    1.9513    0.0002 H   0  0  0  0  0  0  0  0  0  0  0  0
    3.1310    0.5219   -0.8879 H   0  0  0  0  0  0  0  0  0  0  0  0
   -0.0908   -2.7815    0.0003 H   0  0  0  0  0  0  0  0  0  0  0  0
   -2.2692   -1.5337    0.0001 H   0  0  0  0  0  0  0  0  0  0  0  0
  1  6  2  0  0  0  0
  2  3  1  0  0  0  0
  2  7  1  0  0  0  0
  2 10  1  0  0  0  0
  3  4  2  0  0  0  0
  3  5  1  0  0  0  0
  4  6  1  0  0  0  0
  4  9  1  0  0  0  0
  5 11  1  0  0  0  0
  5 12  1  0  0  0  0
  5 13  1  0  0  0  0
  6  8  1  0  0  0  0
  7  8  2  0  0  0  0
  7 14  1  0  0  0  0
  8 15  1  0  0  0  0
M  END
> <PUBCHEM_COMPOUND_CID>
140400

> <PUBCHEM_CONFORMER_RMSD>
0.4

> <PUBCHEM_CONFORMER_DIVERSEORDER>
1

> <PUBCHEM_MMFF94_PARTIAL_CHARGES>
12
1 -0.57
10 0.4
14 0.15
15 0.15
2 -0.6
3 -0.04
4 -0.14
5 0.14
6 0.54
7 -0.05
8 -0.14
9 0.15

> <PUBCHEM_EFFECTIVE_ROTOR_COUNT>
0

> <PUBCHEM_PHARMACOPHORE_FEATURES>
4
1 1 acceptor
1 2 cation
1 2 donor
6 2 3 4 6 7 8 rings

> <PUBCHEM_HEAVY_ATOM_COUNT>
8

> <PUBCHEM_ATOM_DEF_STEREO_COUNT>
0

> <PUBCHEM_ATOM_UDEF_STEREO_COUNT>
0

> <PUBCHEM_BOND_DEF_STEREO_COUNT>
0

> <PUBCHEM_BOND_UDEF_STEREO_COUNT>
0

> <PUBCHEM_ISOTOPIC_ATOM_COUNT>
0

> <PUBCHEM_COMPONENT_COUNT>
1

> <PUBCHEM_CACTVS_TAUTO_COUNT>
9

> <PUBCHEM_CONFORMER_ID>
0002247000000001

> <PUBCHEM_MMFF94_ENERGY>
16.1348

> <PUBCHEM_FEATURE_SELFOVERLAP>
20.297

> <PUBCHEM_SHAPE_FINGERPRINT>
16714656 1 18194406812439055254
18185500 45 17041764759789788174
20096714 4 18338798914146760555
21040471 1 18410575080452605092
23235685 24 18410852161656874313
23552423 10 18260550073707997758
241688 4 16682602083863926611
29004967 10 17968671410121173017

> <PUBCHEM_SHAPE_MULTIPOLES>
153.79
2.74
1.64
0.59
1.09
0.38
0
-0.91
0
-0.49
0
0.02
0
0

> <PUBCHEM_SHAPE_SELFOVERLAP>
313.242

> <PUBCHEM_SHAPE_VOLUME>
89.4

> <PUBCHEM_COORDINATE_TYPE>
2
5
10

$$$$
