685995
  -OEChem-11012400403D

 43 44  0     0  0  0  0  0  0999 V2000
   -1.3579    0.7397    0.6479 N   0  0  0  0  0  0  0  0  0  0  0  0
    1.2491    0.8529   -0.2990 N   0  0  0  0  0  0  0  0  0  0  0  0
   -3.4042   -0.0046    0.2107 C   0  0  0  0  0  0  0  0  0  0  0  0
   -2.4873   -1.0688    0.0264 C   0  0  0  0  0  0  0  0  0  0  0  0
   -1.2920   -0.5535    0.3036 C   0  0  0  0  0  0  0  0  0  0  0  0
   -2.6787    1.1015    0.5947 C   0  0  0  0  0  0  0  0  0  0  0  0
    3.4122   -0.0574   -0.3148 C   0  0  0  0  0  0  0  0  0  0  0  0
    2.5415   -1.0221    0.0114 C   0  0  0  0  0  0  0  0  0  0  0  0
    1.1935   -0.4829    0.0244 C   0  0  0  0  0  0  0  0  0  0  0  0
   -4.8687   -0.0656    0.0255 C   0  0  0  0  0  0  0  0  0  0  0  0
    0.0600   -1.1372    0.3007 C   0  0  0  0  0  0  0  0  0  0  0  0
    2.5137    1.0942   -0.4971 C   0  0  0  0  0  0  0  0  0  0  0  0
    4.8813   -0.0285   -0.4661 C   0  0  0  0  0  0  0  0  0  0  0  0
   -2.8197   -2.4488   -0.3867 C   0  0  0  0  0  0  0  0  0  0  0  0
   -3.1054    2.4764    0.9196 C   0  0  0  0  0  0  0  0  0  0  0  0
    2.8421   -2.4477    0.3262 C   0  0  0  0  0  0  0  0  0  0  0  0
   -5.3022    0.2787   -1.4028 C   0  0  0  0  0  0  0  0  0  0  0  0
    3.0285    2.4510   -0.8594 C   0  0  0  0  0  0  0  0  0  0  0  0
    5.5943    0.3226    0.8350 C   0  0  0  0  0  0  0  0  0  0  0  0
   -0.5960    1.3523    0.9104 H   0  0  0  0  0  0  0  0  0  0  0  0
   -5.2408   -1.0659    0.2778 H   0  0  0  0  0  0  0  0  0  0  0  0
   -5.3654    0.6228    0.7203 H   0  0  0  0  0  0  0  0  0  0  0  0
    0.0980   -2.2039    0.5098 H   0  0  0  0  0  0  0  0  0  0  0  0
    5.1718    0.6831   -1.2469 H   0  0  0  0  0  0  0  0  0  0  0  0
    5.2387   -1.0062   -0.8103 H   0  0  0  0  0  0  0  0  0  0  0  0
   -3.5534   -2.4505   -1.1992 H   0  0  0  0  0  0  0  0  0  0  0  0
   -1.9395   -2.9918   -0.7451 H   0  0  0  0  0  0  0  0  0  0  0  0
   -3.2408   -3.0064    0.4563 H   0  0  0  0  0  0  0  0  0  0  0  0
   -3.6804    2.4871    1.8509 H   0  0  0  0  0  0  0  0  0  0  0  0
   -2.2512    3.1503    1.0434 H   0  0  0  0  0  0  0  0  0  0  0  0
   -3.7364    2.8833    0.1229 H   0  0  0  0  0  0  0  0  0  0  0  0
    2.4989   -2.7019    1.3345 H   0  0  0  0  0  0  0  0  0  0  0  0
    2.3494   -3.1141   -0.3893 H   0  0  0  0  0  0  0  0  0  0  0  0
    3.9155   -2.6572    0.2856 H   0  0  0  0  0  0  0  0  0  0  0  0
   -4.9923    1.2932   -1.6751 H   0  0  0  0  0  0  0  0  0  0  0  0
   -6.3914    0.2190   -1.4911 H   0  0  0  0  0  0  0  0  0  0  0  0
   -4.8619   -0.4138   -2.1278 H   0  0  0  0  0  0  0  0  0  0  0  0
    3.5010    2.4149   -1.8445 H   0  0  0  0  0  0  0  0  0  0  0  0
    2.2043    3.1694   -0.8911 H   0  0  0  0  0  0  0  0  0  0  0  0
    3.7568    2.7857   -0.1165 H   0  0  0  0  0  0  0  0  0  0  0  0
    6.6780    0.3285    0.6806 H   0  0  0  0  0  0  0  0  0  0  0  0
    5.3692   -0.4085    1.6189 H   0  0  0  0  0  0  0  0  0  0  0  0
    5.2995    1.3125    1.1977 H   0  0  0  0  0  0  0  0  0  0  0  0
  1  5  1  0  0  0  0
  1  6  1  0  0  0  0
  1 20  1  0  0  0  0
  2  9  1  0  0  0  0
  2 12  2  0  0  0  0
  3  4  1  0  0  0  0
  3  6  2  0  0  0  0
  3 10  1  0  0  0  0
  4  5  2  0  0  0  0
  4 14  1  0  0  0  0
  5 11  1  0  0  0  0
  6 15  1  0  0  0  0
  7  8  2  0  0  0  0
  7 12  1  0  0  0  0
  7 13  1  0  0  0  0
  8  9  1  0  0  0  0
  8 16  1  0  0  0  0
  9 11  2  0  0  0  0
 10 17  1  0  0  0  0
 10 21  1  0  0  0  0
 10 22  1  0  0  0  0
 11 23  1  0  0  0  0
 12 18  1  0  0  0  0
 13 19  1  0  0  0  0
 13 24  1  0  0  0  0
 13 25  1  0  0  0  0
 14 26  1  0  0  0  0
 14 27  1  0  0  0  0
 14 28  1  0  0  0  0
 15 29  1  0  0  0  0
 15 30  1  0  0  0  0
 15 31  1  0  0  0  0
 16 32  1  0  0  0  0
 16 33  1  0  0  0  0
 16 34  1  0  0  0  0
 17 35  1  0  0  0  0
 17 36  1  0  0  0  0
 17 37  1  0  0  0  0
 18 38  1  0  0  0  0
 18 39  1  0  0  0  0
 18 40  1  0  0  0  0
 19 41  1  0  0  0  0
 19 42  1  0  0  0  0
 19 43  1  0  0  0  0
M  END
> <PUBCHEM_COMPOUND_CID>
685995

> <PUBCHEM_CONFORMER_RMSD>
0.6

> <PUBCHEM_CONFORMER_DIVERSEORDER>
1
12
6
10
3
5
7
2
11
4
9
8

> <PUBCHEM_MMFF94_PARTIAL_CHARGES>
19
1 0.03
10 0.18
11 -0.11
12 0.37
13 0.14
14 0.18
15 0.18
16 0.14
18 0.06
2 -0.62
20 0.27
23 0.15
3 -0.18
4 -0.18
5 -0.2
6 -0.33
7 -0.12
8 -0.14
9 0.17

> <PUBCHEM_EFFECTIVE_ROTOR_COUNT>
3

> <PUBCHEM_PHARMACOPHORE_FEATURES>
7
1 1 cation
1 1 donor
1 17 hydrophobe
1 19 hydrophobe
1 2 acceptor
5 1 3 4 5 6 rings
5 2 7 8 9 12 rings

> <PUBCHEM_HEAVY_ATOM_COUNT>
19

> <PUBCHEM_ATOM_DEF_STEREO_COUNT>
0

> <PUBCHEM_ATOM_UDEF_STEREO_COUNT>
0

> <PUBCHEM_BOND_DEF_STEREO_COUNT>
1

> <PUBCHEM_BOND_UDEF_STEREO_COUNT>
0

> <PUBCHEM_ISOTOPIC_ATOM_COUNT>
0

> <PUBCHEM_COMPONENT_COUNT>
1

> <PUBCHEM_CACTVS_TAUTO_COUNT>
1

> <PUBCHEM_CONFORMER_ID>
000A77AB00000001

> <PUBCHEM_MMFF94_ENERGY>
31.5168

> <PUBCHEM_FEATURE_SELFOVERLAP>
35.52

> <PUBCHEM_SHAPE_FINGERPRINT>
10366900 7 17560795533088893643
10616163 171 18342181102172072607
11401426 45 18410008857997880858
11471102 20 18333733503154353950
12107183 9 17762621685577587818
12236239 1 18201718440141259319
12507557 5 18333449871661033384
12670546 56 18271524208695827562
13583140 156 17530970181005729267
15196674 1 18339646611773309496
15442244 35 18265901250486606962
15536298 74 18341618062456516754
17492 89 18410860957850935403
17802600 8 18409448089598072316
19050596 39 18338241564867642578
200 152 18272085002812978181
20300324 65 17989487403387590065
20645477 70 18336547114259891438
21267235 1 18338812168342158435
21709351 56 18335136548600161990
23035841 295 8214147365409562448
23402539 116 18340762732129549911
23402655 69 18408042905099990670
23557571 272 17632300051313633448
23558518 356 17389111349556764218
23559900 14 18342731966007739224
2838139 119 17241308211040506677
300161 21 18410003338690891190
345986 75 17098026409881754936
34797466 226 17132121277431863256
34934 24 18409724058500504114
3545911 37 18409450292953030035
4028521 119 18187362121592383909
4072396 5 18187915180573778218
4214541 1 18411985736659563025
474 4 18114186362625081578
5104073 3 18263368155979310720
57005193 9 18409444791126219658
58051976 100 18409451409671063479
58051976 378 18343586243593133974
59755656 520 16950558917847437259
67856867 119 18265891539734654496
7495541 125 15267052688251848002
7832392 63 18338524032198004936
9709674 26 18272380728259640207
9971528 1 18410015408350352734
9981440 41 17398674987763635728

> <PUBCHEM_SHAPE_MULTIPOLES>
381.05
11.24
2.32
0.93
1.16
0.09
-0.1
1.52
-1.14
-0.05
0.05
-0.36
0.26
-0.99

> <PUBCHEM_SHAPE_SELFOVERLAP>
803.827

> <PUBCHEM_SHAPE_VOLUME>
222.5

> <PUBCHEM_COORDINATE_TYPE>
2
5
10

$$$$
