70402
  -OEChem-11012401173D

 50 50  0     0  0  0  0  0  0999 V2000
    2.6682    0.0012    0.0006 N   0  0  0  0  0  0  0  0  0  0  0  0
    1.2751   -2.5161    0.0016 C   0  0  0  0  0  0  0  0  0  0  0  0
    1.2777    2.5192   -0.0020 C   0  0  0  0  0  0  0  0  0  0  0  0
   -3.0270    0.0038   -0.0001 C   0  0  0  0  0  0  0  0  0  0  0  0
    0.5561   -1.2061    0.0015 C   0  0  0  0  0  0  0  0  0  0  0  0
    0.5575    1.2099   -0.0007 C   0  0  0  0  0  0  0  0  0  0  0  0
   -1.4893    0.0030    0.0012 C   0  0  0  0  0  0  0  0  0  0  0  0
    1.2543    0.0015    0.0001 C   0  0  0  0  0  0  0  0  0  0  0  0
   -0.8389   -1.2054    0.0019 C   0  0  0  0  0  0  0  0  0  0  0  0
   -0.8373    1.2107   -0.0001 C   0  0  0  0  0  0  0  0  0  0  0  0
    0.2712   -3.7089    0.0023 C   0  0  0  0  0  0  0  0  0  0  0  0
    2.1818   -2.6605    1.2618 C   0  0  0  0  0  0  0  0  0  0  0  0
    2.2169   -2.7619   -1.2221 C   0  0  0  0  0  0  0  0  0  0  0  0
    2.2206    2.7647    1.2209 C   0  0  0  0  0  0  0  0  0  0  0  0
    2.1836    2.6622   -1.2629 C   0  0  0  0  0  0  0  0  0  0  0  0
    0.2748    3.7130   -0.0025 C   0  0  0  0  0  0  0  0  0  0  0  0
   -3.5478   -0.7227    1.2588 C   0  0  0  0  0  0  0  0  0  0  0  0
   -3.5460   -0.7253   -1.2583 C   0  0  0  0  0  0  0  0  0  0  0  0
   -3.6514    1.4177   -0.0021 C   0  0  0  0  0  0  0  0  0  0  0  0
   -1.4332   -2.1069    0.0015 H   0  0  0  0  0  0  0  0  0  0  0  0
   -1.3997    2.1269    0.0008 H   0  0  0  0  0  0  0  0  0  0  0  0
   -0.3549   -3.7286   -0.8980 H   0  0  0  0  0  0  0  0  0  0  0  0
   -0.3622   -3.7193    0.8976 H   0  0  0  0  0  0  0  0  0  0  0  0
    0.8130   -4.6638    0.0128 H   0  0  0  0  0  0  0  0  0  0  0  0
    3.0830   -2.0504    1.2970 H   0  0  0  0  0  0  0  0  0  0  0  0
    2.5305   -3.6970    1.3576 H   0  0  0  0  0  0  0  0  0  0  0  0
    1.6068   -2.4379    2.1696 H   0  0  0  0  0  0  0  0  0  0  0  0
    3.0651   -2.0896   -1.3347 H   0  0  0  0  0  0  0  0  0  0  0  0
    1.6386   -2.6842   -2.1515 H   0  0  0  0  0  0  0  0  0  0  0  0
    2.6363   -3.7753   -1.1879 H   0  0  0  0  0  0  0  0  0  0  0  0
    2.6407    3.7779    1.1862 H   0  0  0  0  0  0  0  0  0  0  0  0
    1.6430    2.6876    2.1509 H   0  0  0  0  0  0  0  0  0  0  0  0
    3.0686    2.0921    1.3331 H   0  0  0  0  0  0  0  0  0  0  0  0
    1.6073    2.4408   -2.1701 H   0  0  0  0  0  0  0  0  0  0  0  0
    2.5341    3.6981   -1.3587 H   0  0  0  0  0  0  0  0  0  0  0  0
    3.0836    2.0504   -1.2992 H   0  0  0  0  0  0  0  0  0  0  0  0
    0.8191    4.6667   -0.0139 H   0  0  0  0  0  0  0  0  0  0  0  0
   -0.3580    3.7265   -0.8983 H   0  0  0  0  0  0  0  0  0  0  0  0
   -0.3494    3.7365    0.8990 H   0  0  0  0  0  0  0  0  0  0  0  0
   -3.1631   -0.2536    2.1722 H   0  0  0  0  0  0  0  0  0  0  0  0
   -3.2593   -1.7790    1.2851 H   0  0  0  0  0  0  0  0  0  0  0  0
   -4.6428   -0.6927    1.3060 H   0  0  0  0  0  0  0  0  0  0  0  0
   -3.1595   -0.2584   -2.1722 H   0  0  0  0  0  0  0  0  0  0  0  0
   -4.6409   -0.6950   -1.3075 H   0  0  0  0  0  0  0  0  0  0  0  0
   -3.2581   -1.7819   -1.2818 H   0  0  0  0  0  0  0  0  0  0  0  0
   -3.3747    1.9905   -0.8952 H   0  0  0  0  0  0  0  0  0  0  0  0
   -3.3767    1.9921    0.8905 H   0  0  0  0  0  0  0  0  0  0  0  0
   -4.7471    1.3555   -0.0032 H   0  0  0  0  0  0  0  0  0  0  0  0
    3.2174    0.8357    0.0537 H   0  0  0  0  0  0  0  0  0  0  0  0
    3.2168   -0.8337   -0.0549 H   0  0  0  0  0  0  0  0  0  0  0  0
  1  8  1  0  0  0  0
  1 49  1  0  0  0  0
  1 50  1  0  0  0  0
  2  5  1  0  0  0  0
  2 11  1  0  0  0  0
  2 12  1  0  0  0  0
  2 13  1  0  0  0  0
  3  6  1  0  0  0  0
  3 14  1  0  0  0  0
  3 15  1  0  0  0  0
  3 16  1  0  0  0  0
  4  7  1  0  0  0  0
  4 17  1  0  0  0  0
  4 18  1  0  0  0  0
  4 19  1  0  0  0  0
  5  8  2  0  0  0  0
  5  9  1  0  0  0  0
  6  8  1  0  0  0  0
  6 10  2  0  0  0  0
  7  9  2  0  0  0  0
  7 10  1  0  0  0  0
  9 20  1  0  0  0  0
 10 21  1  0  0  0  0
 11 22  1  0  0  0  0
 11 23  1  0  0  0  0
 11 24  1  0  0  0  0
 12 25  1  0  0  0  0
 12 26  1  0  0  0  0
 12 27  1  0  0  0  0
 13 28  1  0  0  0  0
 13 29  1  0  0  0  0
 13 30  1  0  0  0  0
 14 31  1  0  0  0  0
 14 32  1  0  0  0  0
 14 33  1  0  0  0  0
 15 34  1  0  0  0  0
 15 35  1  0  0  0  0
 15 36  1  0  0  0  0
 16 37  1  0  0  0  0
 16 38  1  0  0  0  0
 16 39  1  0  0  0  0
 17 40  1  0  0  0  0
 17 41  1  0  0  0  0
 17 42  1  0  0  0  0
 18 43  1  0  0  0  0
 18 44  1  0  0  0  0
 18 45  1  0  0  0  0
 19 46  1  0  0  0  0
 19 47  1  0  0  0  0
 19 48  1  0  0  0  0
M  END
> <PUBCHEM_COMPOUND_CID>
70402

> <PUBCHEM_CONFORMER_RMSD>
0.6

> <PUBCHEM_CONFORMER_DIVERSEORDER>
1

> <PUBCHEM_MMFF94_PARTIAL_CHARGES>
14
1 -0.9
10 -0.15
2 0.14
20 0.15
21 0.15
3 0.14
4 0.14
49 0.4
5 -0.14
50 0.4
6 -0.14
7 -0.14
8 0.1
9 -0.15

> <PUBCHEM_EFFECTIVE_ROTOR_COUNT>
3

> <PUBCHEM_PHARMACOPHORE_FEATURES>
6
1 1 cation
1 1 donor
4 2 11 12 13 hydrophobe
4 3 14 15 16 hydrophobe
4 4 17 18 19 hydrophobe
6 5 6 7 8 9 10 rings

> <PUBCHEM_HEAVY_ATOM_COUNT>
19

> <PUBCHEM_ATOM_DEF_STEREO_COUNT>
0

> <PUBCHEM_ATOM_UDEF_STEREO_COUNT>
0

> <PUBCHEM_BOND_DEF_STEREO_COUNT>
0

> <PUBCHEM_BOND_UDEF_STEREO_COUNT>
0

> <PUBCHEM_ISOTOPIC_ATOM_COUNT>
0

> <PUBCHEM_COMPONENT_COUNT>
1

> <PUBCHEM_CACTVS_TAUTO_COUNT>
1

> <PUBCHEM_CONFORMER_ID>
0001130200000001

> <PUBCHEM_MMFF94_ENERGY>
114.4835

> <PUBCHEM_FEATURE_SELFOVERLAP>
30.446

> <PUBCHEM_SHAPE_FINGERPRINT>
104564 63 17619355303330056351
10967382 1 18410574023811444549
1100329 8 18265612263981172442
11578080 2 17098045040906325444
116883 192 17764303942694473119
12160290 23 17113537013295900046
12553582 1 18050291366876664847
12730499 353 18263078972327626359
12788726 201 17543353752493621483
13140716 1 18194402418576839490
13583140 156 16592495388371401825
13681431 1 18337392630110949987
14022347 108 17688325490471944939
14181834 199 18337093627483597927
14790565 3 18338249227454139932
15042514 8 17400077972762519298
15309172 13 18048884292751397369
15420108 30 18057580188180551872
15490181 7 18120941869145258363
15490181 8 18195804291591702327
16752209 62 17329130881284570786
16945 1 18410856594247532227
18186145 218 17984715660082791005
19591789 44 18193289708593768182
20097449 115 18192429658467073011
20510252 161 16971945195953103408
20645476 183 17756150346794623260
20645477 70 18408879668584082495
20905425 154 18197221347737599620
21041028 32 18121229675272807785
21160774 45 17472417029351464615
21524375 3 18050285065779339798
21731228 192 18050849123834486312
2255824 54 18410856589910295605
22907989 373 17110164265889118597
23184049 29 17760924039787948306
2334 1 17906172111102373566
23419403 2 17537114170261389692
23557571 272 17621315737253513294
23558518 356 17109873995057106064
23598291 2 18131073693339501511
238 59 17974250422636478407
257057 1 18050271579687635835
2748010 2 18122896534578665214
3060560 45 18193268813546471997
3071541 236 17473247151475875096
3091708 16 9217117477887363105
31174 14 18263666051164762707
34934 24 17978221669589092371
350125 39 17905053899313656362
352729 6 17834393806066287425
458136 41 18121244183614298289
54173680 148 17257654413406591907
58807428 26 18122893485357769912
6438718 38 17122531057472385389
6992083 37 17841998780562127755
7364860 26 18341894082296902977
7832392 63 18197215850300636673
81228 2 17545039299402371011
84936 182 18201995577496874745

> <PUBCHEM_SHAPE_MULTIPOLES>
386.03
4.96
4.8
1.11
5.27
0.14
0
0.04
0
-4.22
0
-0.13
-0.12
0.02

> <PUBCHEM_SHAPE_SELFOVERLAP>
792.488

> <PUBCHEM_SHAPE_VOLUME>
227.5

> <PUBCHEM_COORDINATE_TYPE>
2
5
10

$$$$
