5460971
  -OEChem-11012401073D

 15 14  0     1  0  0  0  0  0999 V2000
    1.9806   -0.8753    0.9840 S   0  0  0  0  0  0  0  0  0  0  0  0
   -1.4525   -1.2467   -0.5533 O   0  0  0  0  0  0  0  0  0  0  0  0
   -1.5710    0.3885    1.0226 O   0  0  0  0  0  0  0  0  0  0  0  0
    0.5434    1.7960   -0.1107 N   0  3  0  0  0  0  0  0  0  0  0  0
    0.1597    0.4754   -0.6906 C   0  0  1  0  0  0  0  0  0  0  0  0
    1.3809   -0.4454   -0.6831 C   0  0  0  0  0  0  0  0  0  0  0  0
   -1.0412   -0.0925    0.0312 C   0  0  0  0  0  0  0  0  0  0  0  0
   -0.1403    0.6963   -1.7210 H   0  0  0  0  0  0  0  0  0  0  0  0
    2.2097    0.0133   -1.2334 H   0  0  0  0  0  0  0  0  0  0  0  0
    1.1396   -1.3863   -1.1889 H   0  0  0  0  0  0  0  0  0  0  0  0
    0.8084    1.7141    0.8799 H   0  0  0  0  0  0  0  0  0  0  0  0
   -0.2345    2.4673   -0.1652 H   0  0  0  0  0  0  0  0  0  0  0  0
    1.3396    2.2121   -0.6121 H   0  0  0  0  0  0  0  0  0  0  0  0
    2.4567    0.3371    1.3021 H   0  0  0  0  0  0  0  0  0  0  0  0
   -2.2237   -1.6370   -0.0894 H   0  0  0  0  0  0  0  0  0  0  0  0
  1  6  1  0  0  0  0
  1 14  1  0  0  0  0
  2  7  1  0  0  0  0
  2 15  1  0  0  0  0
  3  7  2  0  0  0  0
  4  5  1  0  0  0  0
  4 11  1  0  0  0  0
  4 12  1  0  0  0  0
  4 13  1  0  0  0  0
  5  6  1  0  0  0  0
  5  7  1  0  0  0  0
  5  8  1  0  0  0  0
  6  9  1  0  0  0  0
  6 10  1  0  0  0  0
M  CHG  1   4   1
M  END
> <PUBCHEM_COMPOUND_CID>
5460971

> <PUBCHEM_CONFORMER_RMSD>
0.4

> <PUBCHEM_CONFORMER_DIVERSEORDER>
2
4
6
3
1
8
9
5
7

> <PUBCHEM_MMFF94_PARTIAL_CHARGES>
12
1 -0.41
11 0.45
12 0.45
13 0.45
14 0.18
15 0.5
2 -0.65
3 -0.57
4 -0.85
5 0.56
6 0.23
7 0.66

> <PUBCHEM_EFFECTIVE_ROTOR_COUNT>
2

> <PUBCHEM_PHARMACOPHORE_FEATURES>
5
1 2 acceptor
1 3 acceptor
1 4 cation
1 4 donor
3 2 3 7 anion

> <PUBCHEM_HEAVY_ATOM_COUNT>
7

> <PUBCHEM_ATOM_DEF_STEREO_COUNT>
1

> <PUBCHEM_ATOM_UDEF_STEREO_COUNT>
0

> <PUBCHEM_BOND_DEF_STEREO_COUNT>
0

> <PUBCHEM_BOND_UDEF_STEREO_COUNT>
0

> <PUBCHEM_ISOTOPIC_ATOM_COUNT>
0

> <PUBCHEM_COMPONENT_COUNT>
1

> <PUBCHEM_CACTVS_TAUTO_COUNT>
1

> <PUBCHEM_CONFORMER_ID>
005353EB00000002

> <PUBCHEM_MMFF94_ENERGY>
7.6705

> <PUBCHEM_FEATURE_SELFOVERLAP>
25.429

> <PUBCHEM_SHAPE_FINGERPRINT>
139733 1 11599715182102008838
16714656 1 18053691099615462534
18185500 45 18334856121363505330
21040471 1 17772775795819247157
23552333 60 18052822730343089715
23552449 11 18264191681435036171
24536 1 17846224383587703623
29004967 10 16660660552153396852
5943 1 14229742275625935828

> <PUBCHEM_SHAPE_MULTIPOLES>
131.19
2.34
1.36
1.05
0.73
0.47
0.09
-0.9
0.56
-0.02
-0.02
0.03
-0.11
-0.3

> <PUBCHEM_SHAPE_SELFOVERLAP>
231.013

> <PUBCHEM_SHAPE_VOLUME>
87.4

> <PUBCHEM_COORDINATE_TYPE>
2
5
10

$$$$
