138187
  -OEChem-11012400453D

 32 32  0     0  0  0  0  0  0999 V2000
    1.1057    1.2983    0.4663 O   0  0  0  0  0  0  0  0  0  0  0  0
    1.4357   -0.9987   -0.1275 O   0  0  0  0  0  0  0  0  0  0  0  0
    0.6491   -0.0600    0.6284 C   0  0  0  0  0  0  0  0  0  0  0  0
   -0.8273   -0.1947    0.2280 C   0  0  0  0  0  0  0  0  0  0  0  0
    0.7327   -0.3721    2.1351 C   0  0  0  0  0  0  0  0  0  0  0  0
   -1.7481    0.6163    0.8450 C   0  0  0  0  0  0  0  0  0  0  0  0
   -1.1627   -1.1198   -0.7301 C   0  0  0  0  0  0  0  0  0  0  0  0
    1.0160    1.8094   -0.8595 C   0  0  0  0  0  0  0  0  0  0  0  0
    2.8326   -0.9955    0.1323 C   0  0  0  0  0  0  0  0  0  0  0  0
   -3.0891    0.4942    0.4812 C   0  0  0  0  0  0  0  0  0  0  0  0
   -2.5038   -1.2417   -1.0939 C   0  0  0  0  0  0  0  0  0  0  0  0
   -3.4670   -0.4346   -0.4882 C   0  0  0  0  0  0  0  0  0  0  0  0
    1.5271    3.2343   -0.8743 C   0  0  0  0  0  0  0  0  0  0  0  0
    3.4993   -2.0354   -0.7428 C   0  0  0  0  0  0  0  0  0  0  0  0
    0.1028    0.2815    2.7476 H   0  0  0  0  0  0  0  0  0  0  0  0
    1.7481   -0.2140    2.5144 H   0  0  0  0  0  0  0  0  0  0  0  0
    0.4651   -1.4146    2.3413 H   0  0  0  0  0  0  0  0  0  0  0  0
   -1.4712    1.3597    1.5851 H   0  0  0  0  0  0  0  0  0  0  0  0
   -0.4445   -1.7642   -1.2243 H   0  0  0  0  0  0  0  0  0  0  0  0
    1.6172    1.1977   -1.5400 H   0  0  0  0  0  0  0  0  0  0  0  0
   -0.0201    1.8104   -1.2111 H   0  0  0  0  0  0  0  0  0  0  0  0
    3.2579   -0.0093   -0.0784 H   0  0  0  0  0  0  0  0  0  0  0  0
    3.0314   -1.2534    1.1760 H   0  0  0  0  0  0  0  0  0  0  0  0
   -3.8385    1.1262    0.9488 H   0  0  0  0  0  0  0  0  0  0  0  0
   -2.7988   -1.9643   -1.8492 H   0  0  0  0  0  0  0  0  0  0  0  0
   -4.5110   -0.5286   -0.7726 H   0  0  0  0  0  0  0  0  0  0  0  0
    1.4750    3.6586   -1.8809 H   0  0  0  0  0  0  0  0  0  0  0  0
    0.9397    3.8615   -0.1956 H   0  0  0  0  0  0  0  0  0  0  0  0
    2.5648    3.2747   -0.5273 H   0  0  0  0  0  0  0  0  0  0  0  0
    4.5782   -2.0629   -0.5658 H   0  0  0  0  0  0  0  0  0  0  0  0
    3.0833   -3.0291   -0.5466 H   0  0  0  0  0  0  0  0  0  0  0  0
    3.3206   -1.8190   -1.8013 H   0  0  0  0  0  0  0  0  0  0  0  0
  1  3  1  0  0  0  0
  1  8  1  0  0  0  0
  2  3  1  0  0  0  0
  2  9  1  0  0  0  0
  3  4  1  0  0  0  0
  3  5  1  0  0  0  0
  4  6  2  0  0  0  0
  4  7  1  0  0  0  0
  5 15  1  0  0  0  0
  5 16  1  0  0  0  0
  5 17  1  0  0  0  0
  6 10  1  0  0  0  0
  6 18  1  0  0  0  0
  7 11  2  0  0  0  0
  7 19  1  0  0  0  0
  8 13  1  0  0  0  0
  8 20  1  0  0  0  0
  8 21  1  0  0  0  0
  9 14  1  0  0  0  0
  9 22  1  0  0  0  0
  9 23  1  0  0  0  0
 10 12  2  0  0  0  0
 10 24  1  0  0  0  0
 11 12  1  0  0  0  0
 11 25  1  0  0  0  0
 12 26  1  0  0  0  0
 13 27  1  0  0  0  0
 13 28  1  0  0  0  0
 13 29  1  0  0  0  0
 14 30  1  0  0  0  0
 14 31  1  0  0  0  0
 14 32  1  0  0  0  0
M  END
> <PUBCHEM_COMPOUND_CID>
138187

> <PUBCHEM_CONFORMER_RMSD>
0.6

> <PUBCHEM_CONFORMER_DIVERSEORDER>
1
2
5
3
4

> <PUBCHEM_MMFF94_PARTIAL_CHARGES>
16
1 -0.56
10 -0.15
11 -0.15
12 -0.15
18 0.15
19 0.15
2 -0.56
24 0.15
25 0.15
26 0.15
3 0.7
4 -0.14
6 -0.15
7 -0.15
8 0.28
9 0.28

> <PUBCHEM_EFFECTIVE_ROTOR_COUNT>
5

> <PUBCHEM_PHARMACOPHORE_FEATURES>
3
1 1 acceptor
1 2 acceptor
6 4 6 7 10 11 12 rings

> <PUBCHEM_HEAVY_ATOM_COUNT>
14

> <PUBCHEM_ATOM_DEF_STEREO_COUNT>
0

> <PUBCHEM_ATOM_UDEF_STEREO_COUNT>
0

> <PUBCHEM_BOND_DEF_STEREO_COUNT>
0

> <PUBCHEM_BOND_UDEF_STEREO_COUNT>
0

> <PUBCHEM_ISOTOPIC_ATOM_COUNT>
0

> <PUBCHEM_COMPONENT_COUNT>
1

> <PUBCHEM_CACTVS_TAUTO_COUNT>
1

> <PUBCHEM_CONFORMER_ID>
00021BCB00000001

> <PUBCHEM_MMFF94_ENERGY>
38.4029

> <PUBCHEM_FEATURE_SELFOVERLAP>
15.255

> <PUBCHEM_SHAPE_FINGERPRINT>
10353120 184 17895476925370786120
10465860 71 18129400257842712510
11769659 78 17846206739772815943
12326174 3 17895737612711072160
12932764 1 17240469322048898611
14115302 16 17846500331326671487
14128692 85 18131633382874902066
14648413 74 18263364840137963323
14817 1 15662042087101205040
14993402 34 18338516335490191935
15219459 52 18340768229724546943
15490181 8 17974286830921265008
16945 1 18333737939349064584
17041 50 18261662680448382045
17804303 29 17560799888127709227
18186145 218 16805901605987593966
187816 3 17604725360983906610
20339313 130 18409452474706479282
20361792 2 18263070050831382202
20645476 183 18200037381578615119
20711985 327 18116409540787314600
20711985 344 17901658268268107152
207724 885 18340489971699452907
21339142 126 18049439241201916558
21524375 3 17393594114049874604
228727 97 17387703708527240810
232386 152 17203608194168487167
23402539 116 18116151074362293538
23419403 2 16752889829617728833
23552423 10 18341042025526702527
23559900 14 17131546121181607842
23598291 2 18270694090132966477
3250762 1 17681015172592341786
4175511 71 18336836290133640709
5084963 1 18273207591363482035
68419 9 17057004807221312616
6992083 37 18127706932347074425
7364860 26 18199463432066300616
74978 22 18261385676643512843
81228 2 17974574598294219608

> <PUBCHEM_SHAPE_MULTIPOLES>
276.37
5.06
2.43
1.36
0.84
2.17
-0.55
-2.35
1.18
-2.46
1.17
-0.09
-0.08
-0.54

> <PUBCHEM_SHAPE_SELFOVERLAP>
554.448

> <PUBCHEM_SHAPE_VOLUME>
163.7

> <PUBCHEM_COORDINATE_TYPE>
2
5
10

$$$$
