98693
  -OEChem-11012400463D

 25 26  0     0  0  0  0  0  0999 V2000
    1.1862   -2.0595    0.0000 N   0  0  0  0  0  0  0  0  0  0  0  0
   -1.1718   -2.0574    0.0000 N   0  0  0  0  0  0  0  0  0  0  0  0
    1.7318   -0.7592    0.0000 C   0  0  0  0  0  0  0  0  0  0  0  0
   -1.7223   -0.7722    0.0000 C   0  0  0  0  0  0  0  0  0  0  0  0
    1.9970   -0.1270    1.2079 C   0  0  0  0  0  0  0  0  0  0  0  0
   -1.9969   -0.1309   -1.2079 C   0  0  0  0  0  0  0  0  0  0  0  0
    1.9970   -0.1272   -1.2079 C   0  0  0  0  0  0  0  0  0  0  0  0
   -1.9969   -0.1311    1.2079 C   0  0  0  0  0  0  0  0  0  0  0  0
    2.5366    1.1593    1.2080 C   0  0  0  0  0  0  0  0  0  0  0  0
   -2.5461    1.1512   -1.2080 C   0  0  0  0  0  0  0  0  0  0  0  0
    2.5366    1.1591   -1.2081 C   0  0  0  0  0  0  0  0  0  0  0  0
   -2.5462    1.1511    1.2080 C   0  0  0  0  0  0  0  0  0  0  0  0
    2.8064    1.8023    0.0000 C   0  0  0  0  0  0  0  0  0  0  0  0
   -2.8207    1.7923    0.0000 C   0  0  0  0  0  0  0  0  0  0  0  0
    0.0095   -2.0508    0.0000 C   0  0  0  0  0  0  0  0  0  0  0  0
    1.7914   -0.6204    2.1540 H   0  0  0  0  0  0  0  0  0  0  0  0
   -1.7882   -0.6211   -2.1555 H   0  0  0  0  0  0  0  0  0  0  0  0
    1.7914   -0.6207   -2.1539 H   0  0  0  0  0  0  0  0  0  0  0  0
   -1.7883   -0.6213    2.1554 H   0  0  0  0  0  0  0  0  0  0  0  0
    2.7466    1.6601    2.1485 H   0  0  0  0  0  0  0  0  0  0  0  0
   -2.7598    1.6505   -2.1485 H   0  0  0  0  0  0  0  0  0  0  0  0
    2.7466    1.6599   -2.1486 H   0  0  0  0  0  0  0  0  0  0  0  0
   -2.7600    1.6503    2.1485 H   0  0  0  0  0  0  0  0  0  0  0  0
    3.2264    2.8039   -0.0001 H   0  0  0  0  0  0  0  0  0  0  0  0
   -3.2482    2.7907    0.0000 H   0  0  0  0  0  0  0  0  0  0  0  0
  1  3  1  0  0  0  0
  1 15  2  0  0  0  0
  2  4  1  0  0  0  0
  2 15  2  0  0  0  0
  3  5  2  0  0  0  0
  3  7  1  0  0  0  0
  4  6  2  0  0  0  0
  4  8  1  0  0  0  0
  5  9  1  0  0  0  0
  5 16  1  0  0  0  0
  6 10  1  0  0  0  0
  6 17  1  0  0  0  0
  7 11  2  0  0  0  0
  7 18  1  0  0  0  0
  8 12  2  0  0  0  0
  8 19  1  0  0  0  0
  9 13  2  0  0  0  0
  9 20  1  0  0  0  0
 10 14  2  0  0  0  0
 10 21  1  0  0  0  0
 11 13  1  0  0  0  0
 11 22  1  0  0  0  0
 12 14  1  0  0  0  0
 12 23  1  0  0  0  0
 13 24  1  0  0  0  0
 14 25  1  0  0  0  0
M  END
> <PUBCHEM_COMPOUND_CID>
98693

> <PUBCHEM_CONFORMER_RMSD>
0.6

> <PUBCHEM_CONFORMER_DIVERSEORDER>
1
2
3

> <PUBCHEM_MMFF94_PARTIAL_CHARGES>
25
1 -0.48
10 -0.15
11 -0.15
12 -0.15
13 -0.15
14 -0.15
15 0.6
16 0.15
17 0.15
18 0.15
19 0.15
2 -0.48
20 0.15
21 0.15
22 0.15
23 0.15
24 0.15
25 0.15
3 0.18
4 0.18
5 -0.15
6 -0.15
7 -0.15
8 -0.15
9 -0.15

> <PUBCHEM_EFFECTIVE_ROTOR_COUNT>
2

> <PUBCHEM_PHARMACOPHORE_FEATURES>
5
1 1 acceptor
1 2 acceptor
3 1 2 15 cation
6 3 5 7 9 11 13 rings
6 4 6 8 10 12 14 rings

> <PUBCHEM_HEAVY_ATOM_COUNT>
15

> <PUBCHEM_ATOM_DEF_STEREO_COUNT>
0

> <PUBCHEM_ATOM_UDEF_STEREO_COUNT>
0

> <PUBCHEM_BOND_DEF_STEREO_COUNT>
0

> <PUBCHEM_BOND_UDEF_STEREO_COUNT>
0

> <PUBCHEM_ISOTOPIC_ATOM_COUNT>
0

> <PUBCHEM_COMPONENT_COUNT>
1

> <PUBCHEM_CACTVS_TAUTO_COUNT>
1

> <PUBCHEM_CONFORMER_ID>
0001818500000001

> <PUBCHEM_MMFF94_ENERGY>
41.1074

> <PUBCHEM_FEATURE_SELFOVERLAP>
25.411

> <PUBCHEM_SHAPE_FINGERPRINT>
11067466 332 11238555333398255010
11471102 22 14635970444732869028
128993 33 18338817661600159141
13132413 78 17982172219431593274
13299463 15 14405177417248585399
13618510 140 18409450262814574932
13693222 7 18410573989446431431
13764800 53 18337681922181444707
14386348 128 18266480791603351937
14713325 29 17030547409821214958
15276787 5 15648157595688164768
15775835 57 18410856563940245989
17492 54 15185369037047668261
18981168 100 18410582781244499338
20361792 2 9079113362627539883
20442098 301 11458433401110081297
20510252 161 17977947109367180122
21524375 3 18410579487005122474
22445834 79 11243123705838892543
22802520 49 17774183286793485542
230 275 18342451517644204642
23557571 272 17912642711415382814
305870 269 18335696148574076546
350125 39 18410020939403898075
3797600 57 16519666976167641428
5262128 65 16343984727648741976
549884 4 17703797972310376832
6442390 28 18126311807011339003
81228 2 17834686263180136658

> <PUBCHEM_SHAPE_MULTIPOLES>
298.73
5.13
2.23
1.41
0.04
0.61
0
-2.97
0
-0.01
0
0
-0.38
0

> <PUBCHEM_SHAPE_SELFOVERLAP>
649.037

> <PUBCHEM_SHAPE_VOLUME>
161.5

> <PUBCHEM_COORDINATE_TYPE>
2
5
10

$$$$
