137160
  -OEChem-11012401243D

 24 23  0     1  0  0  0  0  0999 V2000
   -0.8846   -1.9925   -0.8924 F   0  0  0  0  0  0  0  0  0  0  0  0
   -0.2868   -2.2217    1.2702 F   0  0  0  0  0  0  0  0  0  0  0  0
    2.3894    1.2533    0.9335 F   0  0  0  0  0  0  0  0  0  0  0  0
    3.5777    0.2039   -0.6706 F   0  0  0  0  0  0  0  0  0  0  0  0
   -0.8087   -1.3762    0.3279 N   0  0  0  0  0  0  0  0  0  0  0  0
    2.3261    0.5921   -0.2662 N   0  0  0  0  0  0  0  0  0  0  0  0
   -0.6158    0.8170   -0.7861 C   0  0  0  0  0  0  0  0  0  0  0  0
   -2.0364    1.3153   -0.4401 C   0  0  0  0  0  0  0  0  0  0  0  0
    0.0093   -0.1634    0.2298 C   0  0  2  0  0  0  0  0  0  0  0  0
    1.4438   -0.5665   -0.1612 C   0  0  0  0  0  0  0  0  0  0  0  0
   -2.0974    2.0000    0.9261 C   0  0  0  0  0  0  0  0  0  0  0  0
   -3.0165    0.1387   -0.4710 C   0  0  0  0  0  0  0  0  0  0  0  0
   -0.6269    0.3642   -1.7869 H   0  0  0  0  0  0  0  0  0  0  0  0
    0.0244    1.7048   -0.8683 H   0  0  0  0  0  0  0  0  0  0  0  0
   -2.3330    2.0378   -1.2106 H   0  0  0  0  0  0  0  0  0  0  0  0
    0.0408    0.3069    1.2189 H   0  0  0  0  0  0  0  0  0  0  0  0
    1.8625   -1.2580    0.5792 H   0  0  0  0  0  0  0  0  0  0  0  0
    1.4423   -1.0857   -1.1270 H   0  0  0  0  0  0  0  0  0  0  0  0
   -3.0855    2.4467    1.0814 H   0  0  0  0  0  0  0  0  0  0  0  0
   -1.9218    1.3030    1.7513 H   0  0  0  0  0  0  0  0  0  0  0  0
   -1.3555    2.8027    0.9910 H   0  0  0  0  0  0  0  0  0  0  0  0
   -2.8588   -0.5095   -1.3385 H   0  0  0  0  0  0  0  0  0  0  0  0
   -3.0257   -0.4506    0.4497 H   0  0  0  0  0  0  0  0  0  0  0  0
   -4.0355    0.5354   -0.5663 H   0  0  0  0  0  0  0  0  0  0  0  0
  1  5  1  0  0  0  0
  2  5  1  0  0  0  0
  3  6  1  0  0  0  0
  4  6  1  0  0  0  0
  5  9  1  0  0  0  0
  6 10  1  0  0  0  0
  7  8  1  0  0  0  0
  7  9  1  0  0  0  0
  7 13  1  0  0  0  0
  7 14  1  0  0  0  0
  8 11  1  0  0  0  0
  8 12  1  0  0  0  0
  8 15  1  0  0  0  0
  9 10  1  0  0  0  0
  9 16  1  0  0  0  0
 10 17  1  0  0  0  0
 10 18  1  0  0  0  0
 11 19  1  0  0  0  0
 11 20  1  0  0  0  0
 11 21  1  0  0  0  0
 12 22  1  0  0  0  0
 12 23  1  0  0  0  0
 12 24  1  0  0  0  0
M  END
> <PUBCHEM_COMPOUND_CID>
137160

> <PUBCHEM_CONFORMER_RMSD>
0.6

> <PUBCHEM_CONFORMER_DIVERSEORDER>
1
5
2
3
6
4

> <PUBCHEM_MMFF94_PARTIAL_CHARGES>
8
1 -0.06
10 0.27
2 -0.06
3 -0.06
4 -0.06
5 -0.14
6 -0.14
9 0.27

> <PUBCHEM_EFFECTIVE_ROTOR_COUNT>
5

> <PUBCHEM_PHARMACOPHORE_FEATURES>
1
3 8 11 12 hydrophobe

> <PUBCHEM_HEAVY_ATOM_COUNT>
12

> <PUBCHEM_ATOM_DEF_STEREO_COUNT>
0

> <PUBCHEM_ATOM_UDEF_STEREO_COUNT>
1

> <PUBCHEM_BOND_DEF_STEREO_COUNT>
0

> <PUBCHEM_BOND_UDEF_STEREO_COUNT>
0

> <PUBCHEM_ISOTOPIC_ATOM_COUNT>
0

> <PUBCHEM_COMPONENT_COUNT>
1

> <PUBCHEM_CACTVS_TAUTO_COUNT>
1

> <PUBCHEM_CONFORMER_ID>
000217C800000001

> <PUBCHEM_MMFF94_ENERGY>
5.768

> <PUBCHEM_FEATURE_SELFOVERLAP>
5.074

> <PUBCHEM_SHAPE_FINGERPRINT>
100427 49 17329718033251948621
14325111 11 18337110059917825900
14993402 34 17894914039820860237
15775835 57 18336830766853196725
16945 1 18273206512988996149
20653085 51 17418099784285593624
21028194 46 18410854321999005116
21040471 1 18334854996087069252
21524375 3 18337952272944873717
305870 269 18119526531434497400
5084963 1 18261671459108281765
528862 383 17605544453721991450
6333449 129 18341891943413739271
81228 2 18191305094295033547

> <PUBCHEM_SHAPE_MULTIPOLES>
207.9
4.23
2.03
1.01
1.85
0.84
-0.14
-2.06
0.52
-0.49
-0.54
-0.12
0.06
-0.22

> <PUBCHEM_SHAPE_SELFOVERLAP>
384.146

> <PUBCHEM_SHAPE_VOLUME>
132.5

> <PUBCHEM_COORDINATE_TYPE>
2
5
10

$$$$
