15669009
  -OEChem-11012401023D

 19 19  0     0  0  0  0  0  0999 V2000
    2.8459   -0.6640    0.0001 O   0  0  0  0  0  0  0  0  0  0  0  0
   -1.4879    0.3496   -0.0003 N   0  0  0  0  0  0  0  0  0  0  0  0
   -0.7465    1.4705   -0.0001 N   0  0  0  0  0  0  0  0  0  0  0  0
    1.7373   -1.2414   -0.0001 N   0  0  0  0  0  0  0  0  0  0  0  0
   -0.7512   -0.7984   -0.0001 C   0  0  0  0  0  0  0  0  0  0  0  0
    0.5635   -0.4008   -0.0001 C   0  0  0  0  0  0  0  0  0  0  0  0
    0.5059    1.0058    0.0001 C   0  0  0  0  0  0  0  0  0  0  0  0
   -1.3678   -2.1396    0.0002 C   0  0  0  0  0  0  0  0  0  0  0  0
   -2.9284    0.4575    0.0002 C   0  0  0  0  0  0  0  0  0  0  0  0
    1.6292    1.9608    0.0002 C   0  0  0  0  0  0  0  0  0  0  0  0
   -1.9910   -2.2815   -0.8887 H   0  0  0  0  0  0  0  0  0  0  0  0
   -0.6112   -2.9307    0.0017 H   0  0  0  0  0  0  0  0  0  0  0  0
   -1.9932   -2.2802    0.8879 H   0  0  0  0  0  0  0  0  0  0  0  0
   -3.2168    1.5120   -0.0027 H   0  0  0  0  0  0  0  0  0  0  0  0
   -3.3125   -0.0325   -0.8978 H   0  0  0  0  0  0  0  0  0  0  0  0
   -3.3113   -0.0274    0.9014 H   0  0  0  0  0  0  0  0  0  0  0  0
    1.2772    2.9984    0.0003 H   0  0  0  0  0  0  0  0  0  0  0  0
    2.2534    1.8278    0.8897 H   0  0  0  0  0  0  0  0  0  0  0  0
    2.2532    1.8280   -0.8895 H   0  0  0  0  0  0  0  0  0  0  0  0
  1  4  2  0  0  0  0
  2  3  1  0  0  0  0
  2  5  1  0  0  0  0
  2  9  1  0  0  0  0
  3  7  2  0  0  0  0
  4  6  1  0  0  0  0
  5  6  2  0  0  0  0
  5  8  1  0  0  0  0
  6  7  1  0  0  0  0
  7 10  1  0  0  0  0
  8 11  1  0  0  0  0
  8 12  1  0  0  0  0
  8 13  1  0  0  0  0
  9 14  1  0  0  0  0
  9 15  1  0  0  0  0
  9 16  1  0  0  0  0
 10 17  1  0  0  0  0
 10 18  1  0  0  0  0
 10 19  1  0  0  0  0
M  END
> <PUBCHEM_COMPOUND_CID>
15669009

> <PUBCHEM_CONFORMER_RMSD>
0.4

> <PUBCHEM_CONFORMER_DIVERSEORDER>
2
1

> <PUBCHEM_MMFF94_PARTIAL_CHARGES>
10
1 -0.16
10 0.18
2 0.31
3 -0.71
4 -0.09
5 -0.33
6 0.25
7 0.11
8 0.18
9 0.26

> <PUBCHEM_EFFECTIVE_ROTOR_COUNT>
1

> <PUBCHEM_PHARMACOPHORE_FEATURES>
2
1 3 acceptor
5 2 3 5 6 7 rings

> <PUBCHEM_HEAVY_ATOM_COUNT>
10

> <PUBCHEM_ATOM_DEF_STEREO_COUNT>
0

> <PUBCHEM_ATOM_UDEF_STEREO_COUNT>
0

> <PUBCHEM_BOND_DEF_STEREO_COUNT>
0

> <PUBCHEM_BOND_UDEF_STEREO_COUNT>
0

> <PUBCHEM_ISOTOPIC_ATOM_COUNT>
0

> <PUBCHEM_COMPONENT_COUNT>
1

> <PUBCHEM_CACTVS_TAUTO_COUNT>
1

> <PUBCHEM_CONFORMER_ID>
00EF171100000002

> <PUBCHEM_MMFF94_ENERGY>
11.7079

> <PUBCHEM_FEATURE_SELFOVERLAP>
10.148

> <PUBCHEM_SHAPE_FINGERPRINT>
12423570 1 11963929534153221593
13380535 21 18193571166395786961
16945 1 18410573959392196870
193761 8 18194683889305996711
21040471 1 18338799026053462469
21501502 16 18266740366647198431
23552423 10 18189335851947936526
241688 4 17548708382552400474
2748010 2 18266459995376823711
5084963 1 18130499739337106225
68250623 7 18266744768957145247

> <PUBCHEM_SHAPE_MULTIPOLES>
184.98
3.31
2.08
0.58
0.11
0.21
0
-0.01
0
-0.19
0
0.03
-0.01
0

> <PUBCHEM_SHAPE_SELFOVERLAP>
375.988

> <PUBCHEM_SHAPE_VOLUME>
110.5

> <PUBCHEM_COORDINATE_TYPE>
2
5
10

$$$$
