23620236
  -OEChem-11012401163D

 27 27  0     1  0  0  0  0  0999 V2000
    0.5457    0.5453    0.2781 C   0  0  2  0  0  0  0  0  0  0  0  0
    0.1421   -0.9494    0.2524 C   0  0  1  0  0  0  0  0  0  0  0  0
   -0.4586    1.4286   -0.4787 C   0  0  0  0  0  0  0  0  0  0  0  0
   -1.3013   -1.1153    0.7600 C   0  0  0  0  0  0  0  0  0  0  0  0
   -1.8835    1.2301    0.0314 C   0  0  0  0  0  0  0  0  0  0  0  0
   -2.3000   -0.2364    0.0104 C   0  0  0  0  0  0  0  0  0  0  0  0
    1.9655    0.7883   -0.2355 C   0  0  0  0  0  0  0  0  0  0  0  0
    0.3181   -1.6168   -1.1171 C   0  0  0  0  0  0  0  0  0  0  0  0
    2.9722   -0.0743    0.4990 C   0  0  0  0  0  0  0  0  0  0  0  0
    0.5214    0.8647    1.3307 H   0  0  0  0  0  0  0  0  0  0  0  0
    0.7744   -1.5007    0.9600 H   0  0  0  0  0  0  0  0  0  0  0  0
   -0.4226    1.2122   -1.5532 H   0  0  0  0  0  0  0  0  0  0  0  0
   -0.1845    2.4845   -0.3644 H   0  0  0  0  0  0  0  0  0  0  0  0
   -1.3336   -0.8542    1.8259 H   0  0  0  0  0  0  0  0  0  0  0  0
   -1.6114   -2.1647    0.6899 H   0  0  0  0  0  0  0  0  0  0  0  0
   -2.5782    1.8194   -0.5776 H   0  0  0  0  0  0  0  0  0  0  0  0
   -1.9574    1.6130    1.0568 H   0  0  0  0  0  0  0  0  0  0  0  0
   -3.2914   -0.3405    0.4659 H   0  0  0  0  0  0  0  0  0  0  0  0
   -2.3947   -0.5776   -1.0270 H   0  0  0  0  0  0  0  0  0  0  0  0
    2.2269    1.8427   -0.0814 H   0  0  0  0  0  0  0  0  0  0  0  0
    2.0374    0.6068   -1.3138 H   0  0  0  0  0  0  0  0  0  0  0  0
   -0.2486   -1.1065   -1.9013 H   0  0  0  0  0  0  0  0  0  0  0  0
    1.3660   -1.6425   -1.4276 H   0  0  0  0  0  0  0  0  0  0  0  0
   -0.0278   -2.6559   -1.0826 H   0  0  0  0  0  0  0  0  0  0  0  0
    2.8900   -1.1337    0.2426 H   0  0  0  0  0  0  0  0  0  0  0  0
    3.9876    0.2371    0.2303 H   0  0  0  0  0  0  0  0  0  0  0  0
    2.8722    0.0310    1.5842 H   0  0  0  0  0  0  0  0  0  0  0  0
  1  2  1  0  0  0  0
  1  3  1  0  0  0  0
  1  7  1  0  0  0  0
  1 10  1  0  0  0  0
  2  4  1  0  0  0  0
  2  8  1  0  0  0  0
  2 11  1  0  0  0  0
  3  5  1  0  0  0  0
  3 12  1  0  0  0  0
  3 13  1  0  0  0  0
  4  6  1  0  0  0  0
  4 14  1  0  0  0  0
  4 15  1  0  0  0  0
  5  6  1  0  0  0  0
  5 16  1  0  0  0  0
  5 17  1  0  0  0  0
  6 18  1  0  0  0  0
  6 19  1  0  0  0  0
  7  9  1  0  0  0  0
  7 20  1  0  0  0  0
  7 21  1  0  0  0  0
  8 22  1  0  0  0  0
  8 23  1  0  0  0  0
  8 24  1  0  0  0  0
  9 25  1  0  0  0  0
  9 26  1  0  0  0  0
  9 27  1  0  0  0  0
M  END
> <PUBCHEM_COMPOUND_CID>
23620236

> <PUBCHEM_CONFORMER_RMSD>
0.4

> <PUBCHEM_CONFORMER_DIVERSEORDER>
1
4
2
3

> <PUBCHEM_MMFF94_PARTIAL_CHARGES>
0

> <PUBCHEM_EFFECTIVE_ROTOR_COUNT>
2.2

> <PUBCHEM_PHARMACOPHORE_FEATURES>
2
1 9 hydrophobe
6 1 2 3 4 5 6 rings

> <PUBCHEM_HEAVY_ATOM_COUNT>
9

> <PUBCHEM_ATOM_DEF_STEREO_COUNT>
2

> <PUBCHEM_ATOM_UDEF_STEREO_COUNT>
0

> <PUBCHEM_BOND_DEF_STEREO_COUNT>
0

> <PUBCHEM_BOND_UDEF_STEREO_COUNT>
0

> <PUBCHEM_ISOTOPIC_ATOM_COUNT>
0

> <PUBCHEM_COMPONENT_COUNT>
1

> <PUBCHEM_CACTVS_TAUTO_COUNT>
1

> <PUBCHEM_CONFORMER_ID>
01686A8C00000001

> <PUBCHEM_MMFF94_ENERGY>
8.8808

> <PUBCHEM_FEATURE_SELFOVERLAP>
10.148

> <PUBCHEM_SHAPE_FINGERPRINT>
12423570 1 14576622749323304495
13024252 1 16298375877305775264
14325111 11 18410290294283131504
16714656 1 18410012182001881072
16945 1 18334577949063333241
18185500 45 16756912104801766374
20645464 45 17774998042342835480
20653085 51 12894530917241923146
20871998 184 18270122455845557814
21040471 1 18335705987901013841
23235685 24 18410006603034769761
23552423 10 17822857614267068536
2748010 2 18120663431042508061
29004967 10 16559038198488196824
369184 2 18335134327917303816
5084963 1 18408036316678284760

> <PUBCHEM_SHAPE_MULTIPOLES>
185.22
3.27
1.65
0.89
1.43
0.12
0.1
-0.43
-0.54
-0.35
0.3
0.05
0.26
0.17

> <PUBCHEM_SHAPE_SELFOVERLAP>
352.354

> <PUBCHEM_SHAPE_VOLUME>
113.9

> <PUBCHEM_COORDINATE_TYPE>
2
5
10

$$$$
