15134474
  -OEChem-11012400443D

 26 26  0     0  0  0  0  0  0999 V2000
    0.4272   -1.5306   -0.0048 O   0  0  0  0  0  0  0  0  0  0  0  0
    4.5035    1.4091    0.0490 O   0  0  0  0  0  0  0  0  0  0  0  0
   -0.5342    0.6118   -0.0214 N   0  0  0  0  0  0  0  0  0  0  0  0
    5.4516   -0.6847    0.0153 N   0  0  0  0  0  0  0  0  0  0  0  0
    1.8550    0.4132   -0.0388 C   0  0  0  0  0  0  0  0  0  0  0  0
    3.0504   -0.5346   -0.0370 C   0  0  0  0  0  0  0  0  0  0  0  0
    0.5117   -0.3071   -0.0187 C   0  0  0  0  0  0  0  0  0  0  0  0
   -1.9227    0.3387   -0.0065 C   0  0  0  0  0  0  0  0  0  0  0  0
    4.3843    0.1879    0.0144 C   0  0  0  0  0  0  0  0  0  0  0  0
   -2.8209    1.3929   -0.0120 C   0  0  0  0  0  0  0  0  0  0  0  0
   -2.3539   -0.9773    0.0123 C   0  0  0  0  0  0  0  0  0  0  0  0
   -4.1894    1.1235    0.0018 C   0  0  0  0  0  0  0  0  0  0  0  0
   -3.7224   -1.2468    0.0258 C   0  0  0  0  0  0  0  0  0  0  0  0
   -4.6401   -0.1962    0.0206 C   0  0  0  0  0  0  0  0  0  0  0  0
    1.8909    1.0531   -0.9292 H   0  0  0  0  0  0  0  0  0  0  0  0
    1.9010    1.0704    0.8387 H   0  0  0  0  0  0  0  0  0  0  0  0
    2.9940   -1.2054    0.8292 H   0  0  0  0  0  0  0  0  0  0  0  0
    3.0309   -1.1608   -0.9373 H   0  0  0  0  0  0  0  0  0  0  0  0
   -0.2887    1.5995   -0.0351 H   0  0  0  0  0  0  0  0  0  0  0  0
   -2.4804    2.4246   -0.0269 H   0  0  0  0  0  0  0  0  0  0  0  0
   -1.7087   -1.8431    0.0175 H   0  0  0  0  0  0  0  0  0  0  0  0
   -4.9041    1.9414   -0.0024 H   0  0  0  0  0  0  0  0  0  0  0  0
   -4.0749   -2.2741    0.0404 H   0  0  0  0  0  0  0  0  0  0  0  0
   -5.7057   -0.4061    0.0312 H   0  0  0  0  0  0  0  0  0  0  0  0
    6.4058   -0.3416    0.0465 H   0  0  0  0  0  0  0  0  0  0  0  0
    5.3292   -1.6918   -0.0145 H   0  0  0  0  0  0  0  0  0  0  0  0
  1  7  2  0  0  0  0
  2  9  2  0  0  0  0
  3  7  1  0  0  0  0
  3  8  1  0  0  0  0
  3 19  1  0  0  0  0
  4  9  1  0  0  0  0
  4 25  1  0  0  0  0
  4 26  1  0  0  0  0
  5  6  1  0  0  0  0
  5  7  1  0  0  0  0
  5 15  1  0  0  0  0
  5 16  1  0  0  0  0
  6  9  1  0  0  0  0
  6 17  1  0  0  0  0
  6 18  1  0  0  0  0
  8 10  2  0  0  0  0
  8 11  1  0  0  0  0
 10 12  1  0  0  0  0
 10 20  1  0  0  0  0
 11 13  2  0  0  0  0
 11 21  1  0  0  0  0
 12 14  2  0  0  0  0
 12 22  1  0  0  0  0
 13 14  1  0  0  0  0
 13 23  1  0  0  0  0
 14 24  1  0  0  0  0
M  END
> <PUBCHEM_COMPOUND_CID>
15134474

> <PUBCHEM_CONFORMER_RMSD>
0.6

> <PUBCHEM_CONFORMER_DIVERSEORDER>
1
42
36
37
39
6
38
35
7
54
22
47
23
31
16
45
14
55
24
52
49
9
51
56
27
10
33
44
41
34
5
32
19
53
13
40
48
28
17
58
26
20
43
57
29
46
25
15
11
12
18
50
21
2
3
30
4
8

> <PUBCHEM_MMFF94_PARTIAL_CHARGES>
22
1 -0.57
10 -0.15
11 -0.15
12 -0.15
13 -0.15
14 -0.15
19 0.37
2 -0.57
20 0.15
21 0.15
22 0.15
23 0.15
24 0.15
25 0.37
26 0.37
3 -0.55
4 -0.8
5 0.06
6 0.06
7 0.57
8 0.12
9 0.57

> <PUBCHEM_EFFECTIVE_ROTOR_COUNT>
5

> <PUBCHEM_PHARMACOPHORE_FEATURES>
5
1 1 acceptor
1 2 acceptor
1 3 donor
1 4 donor
6 8 10 11 12 13 14 rings

> <PUBCHEM_HEAVY_ATOM_COUNT>
14

> <PUBCHEM_ATOM_DEF_STEREO_COUNT>
0

> <PUBCHEM_ATOM_UDEF_STEREO_COUNT>
0

> <PUBCHEM_BOND_DEF_STEREO_COUNT>
0

> <PUBCHEM_BOND_UDEF_STEREO_COUNT>
0

> <PUBCHEM_ISOTOPIC_ATOM_COUNT>
0

> <PUBCHEM_COMPONENT_COUNT>
1

> <PUBCHEM_CACTVS_TAUTO_COUNT>
4

> <PUBCHEM_CONFORMER_ID>
00E6EF0A00000001

> <PUBCHEM_MMFF94_ENERGY>
34.1276

> <PUBCHEM_FEATURE_SELFOVERLAP>
25.371

> <PUBCHEM_SHAPE_FINGERPRINT>
10014705 185 18260544507393627957
10680689 15 17821449045271967077
11401426 45 18334293175799639613
12107183 9 17615119989014166192
13081056 2 18412262839728993836
13167823 11 18335698330280514226
13214271 11 18411980261093076183
14123238 8 17988925586920322068
15196674 1 18410574006943006596
17834072 33 18410575110786356180
200 152 17847059986755294683
20279233 1 17989213633049445719
20300324 65 18343018917574082643
20645477 56 18262237703956117141
20645477 70 17703515376838072662
21267235 1 18336554888714562963
22485316 2 18410009931417970922
23402539 116 18411412921503756303
23557571 272 18338803316631021524
23559900 14 18199186183590805214
3545911 37 18409450258719606429
42 15 18334576837067730182
4214541 1 18410575063204320036
42788 4 18410856563940038116
4990 188 18202007607900256446
5104073 3 18409448072438854850
542803 24 17131837568322923209
573450 72 18260819380493596603
77779 3 18411419509841137224

> <PUBCHEM_SHAPE_MULTIPOLES>
266.41
11.34
1.38
0.59
9.32
0.03
0
0.77
0.14
-0.59
0.01
-0.07
0
0.03

> <PUBCHEM_SHAPE_SELFOVERLAP>
544.562

> <PUBCHEM_SHAPE_VOLUME>
152.8

> <PUBCHEM_COORDINATE_TYPE>
2
5
10

$$$$
