69437
  -OEChem-11012401043D

 46 49  0     0  0  0  0  0  0999 V2000
    0.0210   -0.6793   -0.0003 C   0  0  0  0  0  0  0  0  0  0  0  0
   -0.0371    0.7012    0.0001 C   0  0  0  0  0  0  0  0  0  0  0  0
    1.3187   -1.4051    0.0022 C   0  0  0  0  0  0  0  0  0  0  0  0
   -1.2439   -1.4610   -0.0023 C   0  0  0  0  0  0  0  0  0  0  0  0
   -1.3066    1.4112    0.0023 C   0  0  0  0  0  0  0  0  0  0  0  0
    1.2561    1.4671   -0.0023 C   0  0  0  0  0  0  0  0  0  0  0  0
    1.9013   -1.7300   -1.2049 C   0  0  0  0  0  0  0  0  0  0  0  0
   -1.8116   -1.8104    1.2048 C   0  0  0  0  0  0  0  0  0  0  0  0
   -1.9174    1.7515   -1.2049 C   0  0  0  0  0  0  0  0  0  0  0  0
    1.8166    1.7980    1.2048 C   0  0  0  0  0  0  0  0  0  0  0  0
    1.8971   -1.7296    1.2112 C   0  0  0  0  0  0  0  0  0  0  0  0
   -1.8075   -1.8110   -1.2112 C   0  0  0  0  0  0  0  0  0  0  0  0
   -1.9133    1.7520    1.2112 C   0  0  0  0  0  0  0  0  0  0  0  0
    1.8126    1.7977   -1.2113 C   0  0  0  0  0  0  0  0  0  0  0  0
    3.1184   -2.4112   -1.2027 C   0  0  0  0  0  0  0  0  0  0  0  0
   -2.9980   -2.5440    1.2031 C   0  0  0  0  0  0  0  0  0  0  0  0
   -3.1346    2.4326   -1.2030 C   0  0  0  0  0  0  0  0  0  0  0  0
    3.0166    2.5090    1.2028 C   0  0  0  0  0  0  0  0  0  0  0  0
    3.1144   -2.4108    1.2133 C   0  0  0  0  0  0  0  0  0  0  0  0
   -2.9940   -2.5445   -1.2129 C   0  0  0  0  0  0  0  0  0  0  0  0
   -3.1306    2.4330    1.2129 C   0  0  0  0  0  0  0  0  0  0  0  0
    3.0128    2.5087   -1.2132 C   0  0  0  0  0  0  0  0  0  0  0  0
    3.7250   -2.7514    0.0063 C   0  0  0  0  0  0  0  0  0  0  0  0
   -3.5892   -2.9110   -0.0058 C   0  0  0  0  0  0  0  0  0  0  0  0
   -3.7413    2.7733    0.0058 C   0  0  0  0  0  0  0  0  0  0  0  0
    3.6148    2.8642   -0.0061 C   0  0  0  0  0  0  0  0  0  0  0  0
    1.4385   -1.4702   -2.1528 H   0  0  0  0  0  0  0  0  0  0  0  0
   -1.3608   -1.5299    2.1526 H   0  0  0  0  0  0  0  0  0  0  0  0
   -1.4588    1.4936   -2.1566 H   0  0  0  0  0  0  0  0  0  0  0  0
    1.3580    1.5258    2.1507 H   0  0  0  0  0  0  0  0  0  0  0  0
    1.4311   -1.4695    2.1574 H   0  0  0  0  0  0  0  0  0  0  0  0
   -1.3535   -1.5311   -2.1576 H   0  0  0  0  0  0  0  0  0  0  0  0
   -1.4516    1.4945    2.1614 H   0  0  0  0  0  0  0  0  0  0  0  0
    1.3509    1.5252   -2.1556 H   0  0  0  0  0  0  0  0  0  0  0  0
    3.5941   -2.6762   -2.1424 H   0  0  0  0  0  0  0  0  0  0  0  0
   -3.4617   -2.8289    2.1429 H   0  0  0  0  0  0  0  0  0  0  0  0
   -3.6104    2.6971   -2.1428 H   0  0  0  0  0  0  0  0  0  0  0  0
    3.4855    2.7855    2.1426 H   0  0  0  0  0  0  0  0  0  0  0  0
    3.5870   -2.6754    2.1547 H   0  0  0  0  0  0  0  0  0  0  0  0
   -3.4547   -2.8299   -2.1542 H   0  0  0  0  0  0  0  0  0  0  0  0
   -3.6033    2.6980    2.1541 H   0  0  0  0  0  0  0  0  0  0  0  0
    3.4787    2.7850   -2.1545 H   0  0  0  0  0  0  0  0  0  0  0  0
    4.6729   -3.2815    0.0080 H   0  0  0  0  0  0  0  0  0  0  0  0
   -4.5131   -3.4819   -0.0072 H   0  0  0  0  0  0  0  0  0  0  0  0
   -4.6893    3.3032    0.0073 H   0  0  0  0  0  0  0  0  0  0  0  0
    4.5493    3.4175   -0.0077 H   0  0  0  0  0  0  0  0  0  0  0  0
  1  2  2  0  0  0  0
  1  3  1  0  0  0  0
  1  4  1  0  0  0  0
  2  5  1  0  0  0  0
  2  6  1  0  0  0  0
  3  7  2  0  0  0  0
  3 11  1  0  0  0  0
  4  8  2  0  0  0  0
  4 12  1  0  0  0  0
  5  9  2  0  0  0  0
  5 13  1  0  0  0  0
  6 10  2  0  0  0  0
  6 14  1  0  0  0  0
  7 15  1  0  0  0  0
  7 27  1  0  0  0  0
  8 16  1  0  0  0  0
  8 28  1  0  0  0  0
  9 17  1  0  0  0  0
  9 29  1  0  0  0  0
 10 18  1  0  0  0  0
 10 30  1  0  0  0  0
 11 19  2  0  0  0  0
 11 31  1  0  0  0  0
 12 20  2  0  0  0  0
 12 32  1  0  0  0  0
 13 21  2  0  0  0  0
 13 33  1  0  0  0  0
 14 22  2  0  0  0  0
 14 34  1  0  0  0  0
 15 23  2  0  0  0  0
 15 35  1  0  0  0  0
 16 24  2  0  0  0  0
 16 36  1  0  0  0  0
 17 25  2  0  0  0  0
 17 37  1  0  0  0  0
 18 26  2  0  0  0  0
 18 38  1  0  0  0  0
 19 23  1  0  0  0  0
 19 39  1  0  0  0  0
 20 24  1  0  0  0  0
 20 40  1  0  0  0  0
 21 25  1  0  0  0  0
 21 41  1  0  0  0  0
 22 26  1  0  0  0  0
 22 42  1  0  0  0  0
 23 43  1  0  0  0  0
 24 44  1  0  0  0  0
 25 45  1  0  0  0  0
 26 46  1  0  0  0  0
M  END
> <PUBCHEM_COMPOUND_CID>
69437

> <PUBCHEM_CONFORMER_RMSD>
0.8

> <PUBCHEM_CONFORMER_DIVERSEORDER>
1

> <PUBCHEM_MMFF94_PARTIAL_CHARGES>
46
1 -0.06
10 -0.15
11 -0.15
12 -0.15
13 -0.15
14 -0.15
15 -0.15
16 -0.15
17 -0.15
18 -0.15
19 -0.15
2 -0.06
20 -0.15
21 -0.15
22 -0.15
23 -0.15
24 -0.15
25 -0.15
26 -0.15
27 0.15
28 0.15
29 0.15
3 0.03
30 0.15
31 0.15
32 0.15
33 0.15
34 0.15
35 0.15
36 0.15
37 0.15
38 0.15
39 0.15
4 0.03
40 0.15
41 0.15
42 0.15
43 0.15
44 0.15
45 0.15
46 0.15
5 0.03
6 0.03
7 -0.15
8 -0.15
9 -0.15

> <PUBCHEM_EFFECTIVE_ROTOR_COUNT>
4

> <PUBCHEM_PHARMACOPHORE_FEATURES>
4
6 3 7 11 15 19 23 rings
6 4 8 12 16 20 24 rings
6 5 9 13 17 21 25 rings
6 6 10 14 18 22 26 rings

> <PUBCHEM_HEAVY_ATOM_COUNT>
26

> <PUBCHEM_ATOM_DEF_STEREO_COUNT>
0

> <PUBCHEM_ATOM_UDEF_STEREO_COUNT>
0

> <PUBCHEM_BOND_DEF_STEREO_COUNT>
0

> <PUBCHEM_BOND_UDEF_STEREO_COUNT>
0

> <PUBCHEM_ISOTOPIC_ATOM_COUNT>
0

> <PUBCHEM_COMPONENT_COUNT>
1

> <PUBCHEM_CACTVS_TAUTO_COUNT>
1

> <PUBCHEM_CONFORMER_ID>
00010F3D00000001

> <PUBCHEM_MMFF94_ENERGY>
102.2648

> <PUBCHEM_FEATURE_SELFOVERLAP>
20.3

> <PUBCHEM_SHAPE_FINGERPRINT>
10006869 2 18343032103440179969
10190108 129 17901985080919789851
104564 63 18194402419020093625
10930396 42 17613399322579830770
1100329 8 18266740177568300394
11578080 2 18339657692778916264
11680986 33 18411131416135304656
12035758 1 18194682562060811192
12788726 201 17905619052649312228
12930653 34 18269545199662288600
13140716 1 18410575046013648306
13149001 5 18267022756388536102
133893 2 17967245425650435812
13583140 156 17751089019951637595
13911987 19 17758120302095111966
13965767 371 17553254026311094483
14022347 108 17836095472389044278
14178342 30 18338795723271597888
14223421 5 18338799017146789458
14955137 171 17909845236069699977
16752209 62 18048589610544776420
20028762 73 16758331566051488206
20600515 1 17983576308675649858
20642791 239 17974036997564846748
20691752 17 17458345238957312360
20739085 24 17469905723450754273
20905425 154 18341618182309257078
21033648 29 17695322812230116520
21421861 104 18336833090351395979
23558518 356 18408315592911256155
23566358 2 18411416224006526927
266924 87 18265893742588433076
283562 15 18051133888751182409
3027735 51 18266180728076710721
3178227 256 18048608014975466945
3380486 77 17685777917698198506
350125 39 18410583893662232008
460360 51 18260546705883737122
469060 322 17974017433767436233
59755656 215 18268717280196055542
70251023 43 18412548738259048407
81228 2 18261116335123382825
9981440 41 17340077438525303465

> <PUBCHEM_SHAPE_MULTIPOLES>
535.07
6.9
5.05
1.51
0.01
0.04
0
-0.07
0
-0.13
0
0
0
-0.02

> <PUBCHEM_SHAPE_SELFOVERLAP>
1194.024

> <PUBCHEM_SHAPE_VOLUME>
264.6

> <PUBCHEM_COORDINATE_TYPE>
2
5
10

$$$$
