68274
  -OEChem-11012401023D

 39 41  0     0  0  0  0  0  0999 V2000
    1.6171   -0.3027   -0.2366 N   0  0  0  0  0  0  0  0  0  0  0  0
    1.0697    0.9247   -0.1351 N   0  0  0  0  0  0  0  0  0  0  0  0
   -1.0026   -0.1321   -0.4998 N   0  0  0  0  0  0  0  0  0  0  0  0
   -1.3376   -0.6578    0.5859 N   0  0  0  0  0  0  0  0  0  0  0  0
   -0.9296    2.2896   -0.1354 C   0  0  0  0  0  0  0  0  0  0  0  0
   -0.2414    1.0152   -0.2645 C   0  0  0  0  0  0  0  0  0  0  0  0
    3.0009   -0.4888   -0.1117 C   0  0  0  0  0  0  0  0  0  0  0  0
   -0.2035    3.4506    0.1310 C   0  0  0  0  0  0  0  0  0  0  0  0
   -2.3158    2.3515   -0.2782 C   0  0  0  0  0  0  0  0  0  0  0  0
   -0.8635    4.6731    0.2546 C   0  0  0  0  0  0  0  0  0  0  0  0
   -2.9757    3.5742   -0.1547 C   0  0  0  0  0  0  0  0  0  0  0  0
    3.5550   -1.7683   -0.2300 C   0  0  0  0  0  0  0  0  0  0  0  0
    3.8409    0.6032    0.1328 C   0  0  0  0  0  0  0  0  0  0  0  0
   -2.2494    4.7350    0.1118 C   0  0  0  0  0  0  0  0  0  0  0  0
   -2.0794   -1.8245    0.3369 C   0  0  0  0  0  0  0  0  0  0  0  0
    4.9318   -1.9534   -0.1052 C   0  0  0  0  0  0  0  0  0  0  0  0
    5.2177    0.4180    0.2575 C   0  0  0  0  0  0  0  0  0  0  0  0
    5.7632   -0.8603    0.1385 C   0  0  0  0  0  0  0  0  0  0  0  0
   -1.4248   -3.0465    0.2149 C   0  0  0  0  0  0  0  0  0  0  0  0
   -3.4637   -1.7503    0.2132 C   0  0  0  0  0  0  0  0  0  0  0  0
   -2.1610   -4.2050   -0.0332 C   0  0  0  0  0  0  0  0  0  0  0  0
   -4.1999   -2.9089   -0.0348 C   0  0  0  0  0  0  0  0  0  0  0  0
   -3.5484   -4.1363   -0.1580 C   0  0  0  0  0  0  0  0  0  0  0  0
    0.8769    3.4346    0.2474 H   0  0  0  0  0  0  0  0  0  0  0  0
   -2.9164    1.4733   -0.4950 H   0  0  0  0  0  0  0  0  0  0  0  0
    1.0308   -1.1098   -0.4149 H   0  0  0  0  0  0  0  0  0  0  0  0
   -0.2984    5.5772    0.4619 H   0  0  0  0  0  0  0  0  0  0  0  0
   -4.0548    3.6234   -0.2679 H   0  0  0  0  0  0  0  0  0  0  0  0
    2.9185   -2.6293   -0.4195 H   0  0  0  0  0  0  0  0  0  0  0  0
    3.4510    1.6130    0.2316 H   0  0  0  0  0  0  0  0  0  0  0  0
   -2.7633    5.6870    0.2074 H   0  0  0  0  0  0  0  0  0  0  0  0
    5.3566   -2.9486   -0.1976 H   0  0  0  0  0  0  0  0  0  0  0  0
    5.8656    1.2688    0.4473 H   0  0  0  0  0  0  0  0  0  0  0  0
    6.8353   -1.0044    0.2356 H   0  0  0  0  0  0  0  0  0  0  0  0
   -0.3443   -3.1101    0.3121 H   0  0  0  0  0  0  0  0  0  0  0  0
   -3.9803   -0.7993    0.3097 H   0  0  0  0  0  0  0  0  0  0  0  0
   -1.6538   -5.1606   -0.1287 H   0  0  0  0  0  0  0  0  0  0  0  0
   -5.2803   -2.8556   -0.1315 H   0  0  0  0  0  0  0  0  0  0  0  0
   -4.1217   -5.0383   -0.3510 H   0  0  0  0  0  0  0  0  0  0  0  0
  1  2  1  0  0  0  0
  1  7  1  0  0  0  0
  1 26  1  0  0  0  0
  2  6  2  3  0  0  0
  3  4  2  0  0  0  0
  3  6  1  0  0  0  0
  4 15  1  0  0  0  0
  5  6  1  0  0  0  0
  5  8  2  0  0  0  0
  5  9  1  0  0  0  0
  7 12  2  0  0  0  0
  7 13  1  0  0  0  0
  8 10  1  0  0  0  0
  8 24  1  0  0  0  0
  9 11  2  0  0  0  0
  9 25  1  0  0  0  0
 10 14  2  0  0  0  0
 10 27  1  0  0  0  0
 11 14  1  0  0  0  0
 11 28  1  0  0  0  0
 12 16  1  0  0  0  0
 12 29  1  0  0  0  0
 13 17  2  0  0  0  0
 13 30  1  0  0  0  0
 14 31  1  0  0  0  0
 15 19  2  0  0  0  0
 15 20  1  0  0  0  0
 16 18  2  0  0  0  0
 16 32  1  0  0  0  0
 17 18  1  0  0  0  0
 17 33  1  0  0  0  0
 18 34  1  0  0  0  0
 19 21  1  0  0  0  0
 19 35  1  0  0  0  0
 20 22  2  0  0  0  0
 20 36  1  0  0  0  0
 21 23  2  0  0  0  0
 21 37  1  0  0  0  0
 22 23  1  0  0  0  0
 22 38  1  0  0  0  0
 23 39  1  0  0  0  0
M  END
> <PUBCHEM_COMPOUND_CID>
68274

> <PUBCHEM_CONFORMER_RMSD>
0.8

> <PUBCHEM_CONFORMER_DIVERSEORDER>
1
8
2
4
5
7
6
3

> <PUBCHEM_MMFF94_PARTIAL_CHARGES>
39
1 -0.46
10 -0.15
11 -0.15
12 -0.15
13 -0.15
14 -0.15
15 0.18
16 -0.15
17 -0.15
18 -0.15
19 -0.15
2 -0.49
20 -0.15
21 -0.15
22 -0.15
23 -0.15
24 0.15
25 0.15
26 0.4
27 0.15
28 0.15
29 0.15
3 -0.21
30 0.15
31 0.15
32 0.15
33 0.15
34 0.15
35 0.15
36 0.15
37 0.15
38 0.15
39 0.15
4 -0.18
5 0.09
6 0.57
7 0.1
8 -0.15
9 -0.15

> <PUBCHEM_EFFECTIVE_ROTOR_COUNT>
5

> <PUBCHEM_PHARMACOPHORE_FEATURES>
5
1 1 donor
3 2 3 6 cation
6 15 19 20 21 22 23 rings
6 5 8 9 10 11 14 rings
6 7 12 13 16 17 18 rings

> <PUBCHEM_HEAVY_ATOM_COUNT>
23

> <PUBCHEM_ATOM_DEF_STEREO_COUNT>
0

> <PUBCHEM_ATOM_UDEF_STEREO_COUNT>
0

> <PUBCHEM_BOND_DEF_STEREO_COUNT>
0

> <PUBCHEM_BOND_UDEF_STEREO_COUNT>
1

> <PUBCHEM_ISOTOPIC_ATOM_COUNT>
0

> <PUBCHEM_COMPONENT_COUNT>
1

> <PUBCHEM_CACTVS_TAUTO_COUNT>
1

> <PUBCHEM_CONFORMER_ID>
00010AB200000001

> <PUBCHEM_MMFF94_ENERGY>
75.1685

> <PUBCHEM_FEATURE_SELFOVERLAP>
25.373

> <PUBCHEM_SHAPE_FINGERPRINT>
10050765 1 18410575043043150174
10319926 262 18268411470784290594
10411042 1 18266459991129855223
1100329 8 18410013256472140521
11056379 131 18339092518696788414
11265709 11 18265338480689878835
12107183 9 18196951066021156243
12553582 1 18121240893427126606
12788726 201 18333445456656388202
13004483 165 18339636853703052162
138480 1 16104731714714466539
13955234 65 17330000603814942635
14178342 30 18335689504639360906
14790565 3 17762338015819691329
14844126 61 18335420140610601834
14866123 147 18266458715756605683
15042514 8 18410296891373945145
15230672 131 17832154819016928742
15352361 1 18266177416894951726
15705408 1 17545884188236451341
15927050 60 17907859505190946127
16087824 20 18410012114416722909
17539 30 18411974763271173631
17913733 40 17692832388729534817
20286276 3 18339366258711809238
20600515 1 18128555905953443187
21049683 271 17611475520058193141
21065198 57 18338517414196655738
21133410 171 17543291316834789946
21478907 32 18337673117472009945
21796203 349 17613755864494053362
22849339 104 18124618400301154478
23558518 356 18261398806548460314
23559900 14 17834951254562787347
255183 313 18198360480707823881
3091708 16 9204496162532302753
3421961 26 17979073017758494843
4073 2 18267300942613021778
4409770 3 18334570205949630637
463206 1 18046066222795950538
5104073 3 18340758253475523898
5309563 4 18123468542939958094
59755656 520 18048032974256278820
6004065 56 17906441478688362623
6443956 14 18048032170791192141
653340 110 18411128113896726778
7164475 11 18336271214777803100
7399639 24 18056181700254663216
77188 2 18194402423082984933
79837 15 18122911932052440729
9709674 26 18198905804004575342
9777508 108 18340199675155218192
9981440 41 17832710071544430329

> <PUBCHEM_SHAPE_MULTIPOLES>
453.41
9.7
7.37
0.66
16.13
4.19
0.01
-7.34
0.25
-11.7
0.19
-0.03
0
0.23

> <PUBCHEM_SHAPE_SELFOVERLAP>
983.064

> <PUBCHEM_SHAPE_VOLUME>
243.9

> <PUBCHEM_COORDINATE_TYPE>
2
5
10

$$$$
