142567
  -OEChem-11012400453D

 22 21  0     0  0  0  0  0  0999 V2000
    2.2110   -2.2588    0.5997 N   0  0  0  0  0  0  0  0  0  0  0  0
    2.5062    2.1161    0.6737 N   0  0  0  0  0  0  0  0  0  0  0  0
   -0.7543    0.0152    0.0594 C   0  0  0  0  0  0  0  0  0  0  0  0
   -2.1940    0.0739   -0.4604 C   0  0  0  0  0  0  0  0  0  0  0  0
    0.2530    0.0999   -1.0991 C   0  0  0  0  0  0  0  0  0  0  0  0
   -3.2430    0.0296    0.6528 C   0  0  0  0  0  0  0  0  0  0  0  0
    1.7321   -0.0068   -0.6808 C   0  0  0  0  0  0  0  0  0  0  0  0
   -4.6744    0.0164    0.1390 C   0  0  0  0  0  0  0  0  0  0  0  0
    1.9993   -1.2659    0.0373 C   0  0  0  0  0  0  0  0  0  0  0  0
    2.1642    1.1804    0.0785 C   0  0  0  0  0  0  0  0  0  0  0  0
   -0.6197   -0.9174    0.6184 H   0  0  0  0  0  0  0  0  0  0  0  0
   -0.5880    0.8417    0.7600 H   0  0  0  0  0  0  0  0  0  0  0  0
   -2.3334    0.9919   -1.0448 H   0  0  0  0  0  0  0  0  0  0  0  0
   -2.3630   -0.7662   -1.1456 H   0  0  0  0  0  0  0  0  0  0  0  0
    0.0952    1.0410   -1.6429 H   0  0  0  0  0  0  0  0  0  0  0  0
    0.0320   -0.7098   -1.8080 H   0  0  0  0  0  0  0  0  0  0  0  0
   -3.0827   -0.8646    1.2669 H   0  0  0  0  0  0  0  0  0  0  0  0
   -3.1091    0.8955    1.3120 H   0  0  0  0  0  0  0  0  0  0  0  0
    2.3230   -0.0272   -1.6067 H   0  0  0  0  0  0  0  0  0  0  0  0
   -4.8548   -0.8603   -0.4910 H   0  0  0  0  0  0  0  0  0  0  0  0
   -5.3790   -0.0139    0.9759 H   0  0  0  0  0  0  0  0  0  0  0  0
   -4.8846    0.9134   -0.4521 H   0  0  0  0  0  0  0  0  0  0  0  0
  1  9  3  0  0  0  0
  2 10  3  0  0  0  0
  3  4  1  0  0  0  0
  3  5  1  0  0  0  0
  3 11  1  0  0  0  0
  3 12  1  0  0  0  0
  4  6  1  0  0  0  0
  4 13  1  0  0  0  0
  4 14  1  0  0  0  0
  5  7  1  0  0  0  0
  5 15  1  0  0  0  0
  5 16  1  0  0  0  0
  6  8  1  0  0  0  0
  6 17  1  0  0  0  0
  6 18  1  0  0  0  0
  7  9  1  0  0  0  0
  7 10  1  0  0  0  0
  7 19  1  0  0  0  0
  8 20  1  0  0  0  0
  8 21  1  0  0  0  0
  8 22  1  0  0  0  0
M  END
> <PUBCHEM_COMPOUND_CID>
142567

> <PUBCHEM_CONFORMER_RMSD>
0.6

> <PUBCHEM_CONFORMER_DIVERSEORDER>
1
29
32
15
27
4
33
6
34
25
2
19
28
22
26
35
20
5
30
24
7
31
16
3
8
14
9
11
10
17
13
18
21
23
12

> <PUBCHEM_MMFF94_PARTIAL_CHARGES>
5
1 -0.56
10 0.36
2 -0.56
7 0.4
9 0.36

> <PUBCHEM_EFFECTIVE_ROTOR_COUNT>
4

> <PUBCHEM_PHARMACOPHORE_FEATURES>
4
1 1 acceptor
1 2 acceptor
1 8 hydrophobe
5 3 4 5 6 7 hydrophobe

> <PUBCHEM_HEAVY_ATOM_COUNT>
10

> <PUBCHEM_ATOM_DEF_STEREO_COUNT>
0

> <PUBCHEM_ATOM_UDEF_STEREO_COUNT>
0

> <PUBCHEM_BOND_DEF_STEREO_COUNT>
0

> <PUBCHEM_BOND_UDEF_STEREO_COUNT>
0

> <PUBCHEM_ISOTOPIC_ATOM_COUNT>
0

> <PUBCHEM_COMPONENT_COUNT>
1

> <PUBCHEM_CACTVS_TAUTO_COUNT>
1

> <PUBCHEM_CONFORMER_ID>
00022CE700000001

> <PUBCHEM_MMFF94_ENERGY>
1.1793

> <PUBCHEM_FEATURE_SELFOVERLAP>
20.297

> <PUBCHEM_SHAPE_FINGERPRINT>
12932764 1 18411139130191876829
170605 34 17988085611539651836
20539784 86 18411419526942054096
20645477 70 18410572856161043839
20653091 64 18340774724020956192
20871998 22 18054229826243945910
22169311 21 18186519925850583123
22485316 2 18409729586893313527
3248919 1 17313110778167212997
449060 62 18272094945430737865
581208 293 18040718099448061423

> <PUBCHEM_SHAPE_MULTIPOLES>
195.83
6.68
1.68
0.91
8.9
0.2
-0.11
-0.29
1.26
-2.53
0.56
-0.1
-0.03
0.07

> <PUBCHEM_SHAPE_SELFOVERLAP>
359.329

> <PUBCHEM_SHAPE_VOLUME>
120.5

> <PUBCHEM_COORDINATE_TYPE>
2
5
10

$$$$
