19844430
  -OEChem-11012401003D

 44 43  0     0  0  0  0  0  0999 V2000
   -0.6532    0.4966   -0.2024 C   0  0  0  0  0  0  0  0  0  0  0  0
    0.6648   -0.5442   -0.1468 C   0  0  0  0  0  0  0  0  0  0  0  0
   -2.1636   -0.1209    0.1425 C   0  0  0  0  0  0  0  0  0  0  0  0
    2.1714    0.1033    0.1567 C   0  0  0  0  0  0  0  0  0  0  0  0
   -0.4290    1.6780    0.7781 C   0  0  0  0  0  0  0  0  0  0  0  0
   -0.7466    1.1245   -1.6285 C   0  0  0  0  0  0  0  0  0  0  0  0
    0.4289   -1.6302    0.9360 C   0  0  0  0  0  0  0  0  0  0  0  0
    0.7738   -1.3011   -1.5078 C   0  0  0  0  0  0  0  0  0  0  0  0
   -3.2822    0.9600   -0.0520 C   0  0  0  0  0  0  0  0  0  0  0  0
   -2.6137   -1.2862   -0.7667 C   0  0  0  0  0  0  0  0  0  0  0  0
   -2.3345   -0.5852    1.6142 C   0  0  0  0  0  0  0  0  0  0  0  0
    3.3275   -0.9311    0.0912 C   0  0  0  0  0  0  0  0  0  0  0  0
    2.5585    1.1804   -0.9145 C   0  0  0  0  0  0  0  0  0  0  0  0
    2.2979    0.8561    1.5000 C   0  0  0  0  0  0  0  0  0  0  0  0
   -0.2108    1.3406    1.7926 H   0  0  0  0  0  0  0  0  0  0  0  0
    0.3472    2.3565    0.4265 H   0  0  0  0  0  0  0  0  0  0  0  0
   -1.2981    2.3341    0.8555 H   0  0  0  0  0  0  0  0  0  0  0  0
   -1.1338    0.4251   -2.3731 H   0  0  0  0  0  0  0  0  0  0  0  0
    0.2179    1.4708   -1.9990 H   0  0  0  0  0  0  0  0  0  0  0  0
   -1.3886    2.0115   -1.6407 H   0  0  0  0  0  0  0  0  0  0  0  0
    0.2499   -1.1929    1.9205 H   0  0  0  0  0  0  0  0  0  0  0  0
    1.2875   -2.2984    1.0421 H   0  0  0  0  0  0  0  0  0  0  0  0
   -0.3867   -2.3032    0.6729 H   0  0  0  0  0  0  0  0  0  0  0  0
    1.1123   -0.6693   -2.3310 H   0  0  0  0  0  0  0  0  0  0  0  0
   -0.1861   -1.7240   -1.8110 H   0  0  0  0  0  0  0  0  0  0  0  0
    1.4557   -2.1551   -1.4436 H   0  0  0  0  0  0  0  0  0  0  0  0
   -3.1988    1.7968    0.6450 H   0  0  0  0  0  0  0  0  0  0  0  0
   -3.3135    1.3506   -1.0725 H   0  0  0  0  0  0  0  0  0  0  0  0
   -4.2754    0.5267    0.1282 H   0  0  0  0  0  0  0  0  0  0  0  0
   -1.9792   -2.1675   -0.6659 H   0  0  0  0  0  0  0  0  0  0  0  0
   -2.6353   -1.0029   -1.8227 H   0  0  0  0  0  0  0  0  0  0  0  0
   -3.6284   -1.6163   -0.5101 H   0  0  0  0  0  0  0  0  0  0  0  0
   -1.9303   -1.5775    1.8126 H   0  0  0  0  0  0  0  0  0  0  0  0
   -1.9092    0.1197    2.3319 H   0  0  0  0  0  0  0  0  0  0  0  0
   -3.3991   -0.6718    1.8697 H   0  0  0  0  0  0  0  0  0  0  0  0
    3.2530   -1.6834    0.8807 H   0  0  0  0  0  0  0  0  0  0  0  0
    3.3789   -1.4409   -0.8745 H   0  0  0  0  0  0  0  0  0  0  0  0
    4.3018   -0.4445    0.2282 H   0  0  0  0  0  0  0  0  0  0  0  0
    1.9036    2.0513   -0.9083 H   0  0  0  0  0  0  0  0  0  0  0  0
    2.5839    0.7690   -1.9267 H   0  0  0  0  0  0  0  0  0  0  0  0
    3.5672    1.5683   -0.7184 H   0  0  0  0  0  0  0  0  0  0  0  0
    1.9742    1.8967    1.4806 H   0  0  0  0  0  0  0  0  0  0  0  0
    3.3516    0.9151    1.8051 H   0  0  0  0  0  0  0  0  0  0  0  0
    1.7885    0.3334    2.3134 H   0  0  0  0  0  0  0  0  0  0  0  0
  1  2  1  0  0  0  0
  1  3  1  0  0  0  0
  1  5  1  0  0  0  0
  1  6  1  0  0  0  0
  2  4  1  0  0  0  0
  2  7  1  0  0  0  0
  2  8  1  0  0  0  0
  3  9  1  0  0  0  0
  3 10  1  0  0  0  0
  3 11  1  0  0  0  0
  4 12  1  0  0  0  0
  4 13  1  0  0  0  0
  4 14  1  0  0  0  0
  5 15  1  0  0  0  0
  5 16  1  0  0  0  0
  5 17  1  0  0  0  0
  6 18  1  0  0  0  0
  6 19  1  0  0  0  0
  6 20  1  0  0  0  0
  7 21  1  0  0  0  0
  7 22  1  0  0  0  0
  7 23  1  0  0  0  0
  8 24  1  0  0  0  0
  8 25  1  0  0  0  0
  8 26  1  0  0  0  0
  9 27  1  0  0  0  0
  9 28  1  0  0  0  0
  9 29  1  0  0  0  0
 10 30  1  0  0  0  0
 10 31  1  0  0  0  0
 10 32  1  0  0  0  0
 11 33  1  0  0  0  0
 11 34  1  0  0  0  0
 11 35  1  0  0  0  0
 12 36  1  0  0  0  0
 12 37  1  0  0  0  0
 12 38  1  0  0  0  0
 13 39  1  0  0  0  0
 13 40  1  0  0  0  0
 13 41  1  0  0  0  0
 14 42  1  0  0  0  0
 14 43  1  0  0  0  0
 14 44  1  0  0  0  0
M  END
> <PUBCHEM_COMPOUND_CID>
19844430

> <PUBCHEM_CONFORMER_RMSD>
0.6

> <PUBCHEM_CONFORMER_DIVERSEORDER>
1
4
3
2

> <PUBCHEM_MMFF94_PARTIAL_CHARGES>
0

> <PUBCHEM_EFFECTIVE_ROTOR_COUNT>
3

> <PUBCHEM_PHARMACOPHORE_FEATURES>
5
3 1 5 6 hydrophobe
3 2 7 8 hydrophobe
4 1 2 3 4 hydrophobe
4 3 9 10 11 hydrophobe
4 4 12 13 14 hydrophobe

> <PUBCHEM_HEAVY_ATOM_COUNT>
14

> <PUBCHEM_ATOM_DEF_STEREO_COUNT>
0

> <PUBCHEM_ATOM_UDEF_STEREO_COUNT>
0

> <PUBCHEM_BOND_DEF_STEREO_COUNT>
0

> <PUBCHEM_BOND_UDEF_STEREO_COUNT>
0

> <PUBCHEM_ISOTOPIC_ATOM_COUNT>
0

> <PUBCHEM_COMPONENT_COUNT>
1

> <PUBCHEM_CACTVS_TAUTO_COUNT>
1

> <PUBCHEM_CONFORMER_ID>
012ECD4E00000001

> <PUBCHEM_MMFF94_ENERGY>
104.0876

> <PUBCHEM_FEATURE_SELFOVERLAP>
29.018

> <PUBCHEM_SHAPE_FINGERPRINT>
10857977 72 18187366562187537337
11132069 177 18341888610561309016
12382932 28 18202285788352123323
12423570 1 16015234277544105061
12491281 212 17702964607021206923
12524768 44 18200602371730970863
12897270 3 17775005678230152629
12932764 1 18202290233384746867
13024252 1 17894912889080659349
13296908 3 17168151173207827873
15309172 13 18131074856911875402
15775835 57 18273210915441263792
16945 1 18193276527196517161
18175812 5 18410011039498271981
18186145 218 16081085991357085037
20201158 50 18335138640032872355
21028194 46 18131348630896095306
22344851 262 17241610515869903029
23402539 116 18410851071352099996
23419403 2 15253482717167261566
2748010 2 17917140727437230960
3248919 1 17967808383629451841
3286 77 18059848493611759666
369184 2 18201431480522856161
5084963 1 18335979796740668956
528886 8 17632287965201640214

> <PUBCHEM_SHAPE_MULTIPOLES>
288.11
4.74
1.68
1.53
0
0.03
-0.01
0
0.41
-0.02
-0.06
0.03
-0.02
0.11

> <PUBCHEM_SHAPE_SELFOVERLAP>
537.06

> <PUBCHEM_SHAPE_VOLUME>
187.6

> <PUBCHEM_COORDINATE_TYPE>
2
5
10

$$$$
