20546
  -OEChem-11012400523D

 30 30  0     1  0  0  0  0  0999 V2000
    0.8582    0.9427    0.2051 C   0  0  1  0  0  0  0  0  0  0  0  0
    2.1020    0.1486   -0.2599 C   0  0  0  0  0  0  0  0  0  0  0  0
    0.7647    2.2729   -0.5772 C   0  0  0  0  0  0  0  0  0  0  0  0
   -0.4187    0.1243    0.0930 C   0  0  0  0  0  0  0  0  0  0  0  0
    2.3867   -1.0851    0.6038 C   0  0  0  0  0  0  0  0  0  0  0  0
   -0.3619    3.1785   -0.0938 C   0  0  0  0  0  0  0  0  0  0  0  0
   -1.4174    0.3131    1.0272 C   0  0  0  0  0  0  0  0  0  0  0  0
   -0.5424   -0.7831   -0.9400 C   0  0  0  0  0  0  0  0  0  0  0  0
    3.6683   -1.7806    0.1705 C   0  0  0  0  0  0  0  0  0  0  0  0
   -2.5887   -0.4373    0.9245 C   0  0  0  0  0  0  0  0  0  0  0  0
   -1.7139   -1.5334   -1.0428 C   0  0  0  0  0  0  0  0  0  0  0  0
   -2.7369   -1.3604   -0.1105 C   0  0  0  0  0  0  0  0  0  0  0  0
    1.0170    1.1871    1.2654 H   0  0  0  0  0  0  0  0  0  0  0  0
    2.0604   -0.1182   -1.3215 H   0  0  0  0  0  0  0  0  0  0  0  0
    2.9721    0.8150   -0.1730 H   0  0  0  0  0  0  0  0  0  0  0  0
    1.7112    2.8177   -0.4725 H   0  0  0  0  0  0  0  0  0  0  0  0
    0.6280    2.0767   -1.6480 H   0  0  0  0  0  0  0  0  0  0  0  0
    2.4819   -0.7865    1.6544 H   0  0  0  0  0  0  0  0  0  0  0  0
    1.5663   -1.8072    0.5481 H   0  0  0  0  0  0  0  0  0  0  0  0
   -0.3075    3.3381    0.9875 H   0  0  0  0  0  0  0  0  0  0  0  0
   -1.3465    2.7746   -0.3456 H   0  0  0  0  0  0  0  0  0  0  0  0
   -0.2829    4.1567   -0.5800 H   0  0  0  0  0  0  0  0  0  0  0  0
   -1.3106    1.0250    1.8400 H   0  0  0  0  0  0  0  0  0  0  0  0
    0.2110   -0.9296   -1.7041 H   0  0  0  0  0  0  0  0  0  0  0  0
    4.5282   -1.1085    0.2548 H   0  0  0  0  0  0  0  0  0  0  0  0
    3.8576   -2.6541    0.8022 H   0  0  0  0  0  0  0  0  0  0  0  0
    3.5975   -2.1208   -0.8676 H   0  0  0  0  0  0  0  0  0  0  0  0
   -3.3850   -0.3033    1.6508 H   0  0  0  0  0  0  0  0  0  0  0  0
   -1.8330   -2.2474   -1.8525 H   0  0  0  0  0  0  0  0  0  0  0  0
   -3.6496   -1.9435   -0.1914 H   0  0  0  0  0  0  0  0  0  0  0  0
  1  2  1  0  0  0  0
  1  3  1  0  0  0  0
  1  4  1  0  0  0  0
  1 13  1  0  0  0  0
  2  5  1  0  0  0  0
  2 14  1  0  0  0  0
  2 15  1  0  0  0  0
  3  6  1  0  0  0  0
  3 16  1  0  0  0  0
  3 17  1  0  0  0  0
  4  7  2  0  0  0  0
  4  8  1  0  0  0  0
  5  9  1  0  0  0  0
  5 18  1  0  0  0  0
  5 19  1  0  0  0  0
  6 20  1  0  0  0  0
  6 21  1  0  0  0  0
  6 22  1  0  0  0  0
  7 10  1  0  0  0  0
  7 23  1  0  0  0  0
  8 11  2  0  0  0  0
  8 24  1  0  0  0  0
  9 25  1  0  0  0  0
  9 26  1  0  0  0  0
  9 27  1  0  0  0  0
 10 12  2  0  0  0  0
 10 28  1  0  0  0  0
 11 12  1  0  0  0  0
 11 29  1  0  0  0  0
 12 30  1  0  0  0  0
M  END
> <PUBCHEM_COMPOUND_CID>
20546

> <PUBCHEM_CONFORMER_RMSD>
0.6

> <PUBCHEM_CONFORMER_DIVERSEORDER>
1
15
6
14
12
7
16
4
11
9
13
8
10
2
3
5

> <PUBCHEM_MMFF94_PARTIAL_CHARGES>
12
1 0.14
10 -0.15
11 -0.15
12 -0.15
23 0.15
24 0.15
28 0.15
29 0.15
30 0.15
4 -0.14
7 -0.15
8 -0.15

> <PUBCHEM_EFFECTIVE_ROTOR_COUNT>
4

> <PUBCHEM_PHARMACOPHORE_FEATURES>
4
1 6 hydrophobe
1 9 hydrophobe
4 1 2 3 5 hydrophobe
6 4 7 8 10 11 12 rings

> <PUBCHEM_HEAVY_ATOM_COUNT>
12

> <PUBCHEM_ATOM_DEF_STEREO_COUNT>
0

> <PUBCHEM_ATOM_UDEF_STEREO_COUNT>
1

> <PUBCHEM_BOND_DEF_STEREO_COUNT>
0

> <PUBCHEM_BOND_UDEF_STEREO_COUNT>
0

> <PUBCHEM_ISOTOPIC_ATOM_COUNT>
0

> <PUBCHEM_COMPONENT_COUNT>
1

> <PUBCHEM_CACTVS_TAUTO_COUNT>
1

> <PUBCHEM_CONFORMER_ID>
0000504200000001

> <PUBCHEM_MMFF94_ENERGY>
23.8404

> <PUBCHEM_FEATURE_SELFOVERLAP>
20.298

> <PUBCHEM_SHAPE_FINGERPRINT>
11357001 24 18046625607951883136
12202030 40 16951132918308183691
12326174 3 17680407138182630336
12423570 1 10273112054791607937
16945 1 18049159166099330989
17841504 4 18262808496034167059
19021347 4 17402046699988041912
20361792 2 18409442596551022758
20711985 344 18119508965149839842
207724 885 18413110584426148627
20871998 184 18124317108144684332
21296965 67 18408598154245589354
21524375 3 17111270933096172984
22445834 79 18270685405725158595
23211744 25 16256440826119058109
23402539 116 18198614437871324861
23419403 2 15835579347295134901
23552423 10 17909830173661597375
23598291 2 18127709324823102309
2748010 2 18338502093399743940
305870 269 17762612193626425785
528862 383 18122627416154332235
6992083 37 18272660030045812723
7364860 26 18124877021377009240
81228 2 18118387463411236824

> <PUBCHEM_SHAPE_MULTIPOLES>
246.95
4.34
2.75
1.01
2.28
2.59
-0.01
-3.69
0.71
0.46
-0.45
-0.39
-0.17
-0.54

> <PUBCHEM_SHAPE_SELFOVERLAP>
490.931

> <PUBCHEM_SHAPE_VOLUME>
143.6

> <PUBCHEM_COORDINATE_TYPE>
2
5
10

$$$$
