1480
  -OEChem-11012400583D

 19 19  0     0  0  0  0  0  0999 V2000
   -0.3734   -2.7656    0.0092 Cl  0  0  0  0  0  0  0  0  0  0  0  0
    3.0593    2.4459    0.1856 Cl  0  0  0  0  0  0  0  0  0  0  0  0
    4.3954   -0.3969   -0.5970 Cl  0  0  0  0  0  0  0  0  0  0  0  0
   -1.3280    0.0001    0.6975 O   0  0  0  0  0  0  0  0  0  0  0  0
   -4.2965    1.1817   -0.9321 O   0  0  0  0  0  0  0  0  0  0  0  0
   -3.9545   -0.6487    0.3795 O   0  0  0  0  0  0  0  0  0  0  0  0
   -0.0019   -0.0994    0.3966 C   0  0  0  0  0  0  0  0  0  0  0  0
    0.5735   -1.3245    0.0593 C   0  0  0  0  0  0  0  0  0  0  0  0
    0.7820    1.0538    0.4304 C   0  0  0  0  0  0  0  0  0  0  0  0
    2.1415    0.9818    0.1268 C   0  0  0  0  0  0  0  0  0  0  0  0
    1.9331   -1.3965   -0.2442 C   0  0  0  0  0  0  0  0  0  0  0  0
    2.7172   -0.2432   -0.2105 C   0  0  0  0  0  0  0  0  0  0  0  0
   -2.1157    0.8569   -0.1260 C   0  0  0  0  0  0  0  0  0  0  0  0
   -3.5321    0.3547   -0.1750 C   0  0  0  0  0  0  0  0  0  0  0  0
    0.3340    2.0068    0.7025 H   0  0  0  0  0  0  0  0  0  0  0  0
    2.3803   -2.3530   -0.5073 H   0  0  0  0  0  0  0  0  0  0  0  0
   -2.1148    1.8621    0.3080 H   0  0  0  0  0  0  0  0  0  0  0  0
   -1.7273    0.8779   -1.1515 H   0  0  0  0  0  0  0  0  0  0  0  0
   -5.2277    0.8770   -0.9806 H   0  0  0  0  0  0  0  0  0  0  0  0
  1  8  1  0  0  0  0
  2 10  1  0  0  0  0
  3 12  1  0  0  0  0
  4  7  1  0  0  0  0
  4 13  1  0  0  0  0
  5 14  1  0  0  0  0
  5 19  1  0  0  0  0
  6 14  2  0  0  0  0
  7  8  1  0  0  0  0
  7  9  2  0  0  0  0
  8 11  2  0  0  0  0
  9 10  1  0  0  0  0
  9 15  1  0  0  0  0
 10 12  2  0  0  0  0
 11 12  1  0  0  0  0
 11 16  1  0  0  0  0
 13 14  1  0  0  0  0
 13 17  1  0  0  0  0
 13 18  1  0  0  0  0
M  END
> <PUBCHEM_COMPOUND_CID>
1480

> <PUBCHEM_CONFORMER_RMSD>
0.6

> <PUBCHEM_CONFORMER_DIVERSEORDER>
1
12
22
24
8
2
11
21
19
20
15
17
18
23
9
14
10
5
13
6
3
7
4
16

> <PUBCHEM_MMFF94_PARTIAL_CHARGES>
17
1 -0.18
10 0.18
11 -0.15
12 0.18
13 0.34
14 0.66
15 0.15
16 0.15
19 0.5
2 -0.18
3 -0.18
4 -0.36
5 -0.65
6 -0.57
7 0.08
8 0.18
9 -0.15

> <PUBCHEM_EFFECTIVE_ROTOR_COUNT>
3

> <PUBCHEM_PHARMACOPHORE_FEATURES>
5
1 4 acceptor
1 5 acceptor
1 6 acceptor
3 5 6 14 anion
6 7 8 9 10 11 12 rings

> <PUBCHEM_HEAVY_ATOM_COUNT>
14

> <PUBCHEM_ATOM_DEF_STEREO_COUNT>
0

> <PUBCHEM_ATOM_UDEF_STEREO_COUNT>
0

> <PUBCHEM_BOND_DEF_STEREO_COUNT>
0

> <PUBCHEM_BOND_UDEF_STEREO_COUNT>
0

> <PUBCHEM_ISOTOPIC_ATOM_COUNT>
0

> <PUBCHEM_COMPONENT_COUNT>
1

> <PUBCHEM_CACTVS_TAUTO_COUNT>
1

> <PUBCHEM_CONFORMER_ID>
000005C800000001

> <PUBCHEM_MMFF94_ENERGY>
33.389

> <PUBCHEM_FEATURE_SELFOVERLAP>
25.434

> <PUBCHEM_SHAPE_FINGERPRINT>
10608611 8 18335136492749918177
11471102 20 18412261710078560172
12730499 353 18334296423396315081
13380535 76 18342176708694322002
13380536 305 18411699876806008322
13690532 89 18341335496600193962
14251717 144 18341330002735486399
14325111 11 18410574011206260521
14415576 193 18408323267902062021
14897335 6 18269554004387112000
14911166 2 18341059549320019214
14993402 34 18341056233468220390
15219456 202 18336550520199904289
15279308 100 18336834181742275380
16945 1 18270417022404637754
18186145 218 18342462534209094537
200 152 17917427601477983121
20606313 2 18410572847270110284
20645477 70 18270957926259455879
21501502 16 18196367246298857902
21524375 3 18334016081695157402
221490 88 18339368568470635266
22713019 99 18131078091296601678
23402539 116 18342167852392396286
23402655 69 18341328890682010637
23557571 272 17313107419734915925
23559900 14 18201161035982159940
25 1 18337391543653204567
2748010 2 18126297569426256834
2871803 45 18339910637147761951
3060560 45 18340200795830569670
58051976 378 18342454807583930727
633830 44 18272652333538446813
69090 78 18340767138776525362
81228 2 17760076715697051379

> <PUBCHEM_SHAPE_MULTIPOLES>
276.11
7.3
2.32
0.75
4.22
0.62
-0.04
-2.41
-1.65
-0.92
0.04
0.11
-0.06
0.66

> <PUBCHEM_SHAPE_SELFOVERLAP>
546.687

> <PUBCHEM_SHAPE_VOLUME>
166.9

> <PUBCHEM_COORDINATE_TYPE>
2
5
10

$$$$
