71355846
  -OEChem-11012401153D

 38 37  0     0  0  0  0  0  0999 V2000
   -0.0214    2.2609   -0.4220 Si  0  0  0  0  0  0  0  0  0  0  0  0
    1.3876    1.3678    0.4214 C   0  0  0  0  0  0  0  0  0  0  0  0
   -1.3125    1.0492   -0.9839 C   0  0  0  0  0  0  0  0  0  0  0  0
    2.1000    0.2640   -0.3705 C   0  0  0  0  0  0  0  0  0  0  0  0
   -2.0168    0.2158    0.0943 C   0  0  0  0  0  0  0  0  0  0  0  0
   -0.7557    3.5332    0.7150 C   0  0  0  0  0  0  0  0  0  0  0  0
    3.2331   -0.4119    0.4105 C   0  0  0  0  0  0  0  0  0  0  0  0
   -3.0570   -0.7584   -0.4711 C   0  0  0  0  0  0  0  0  0  0  0  0
    3.9726   -1.4302   -0.4586 C   0  0  0  0  0  0  0  0  0  0  0  0
   -3.7980   -1.4881    0.6503 C   0  0  0  0  0  0  0  0  0  0  0  0
    5.0796   -2.1254    0.3177 C   0  0  0  0  0  0  0  0  0  0  0  0
   -4.8114   -2.4770    0.0968 C   0  0  0  0  0  0  0  0  0  0  0  0
    0.5184    2.9557   -1.6181 H   0  0  0  0  0  0  0  0  0  0  0  0
    2.1298    2.1189    0.7183 H   0  0  0  0  0  0  0  0  0  0  0  0
    1.0031    0.9346    1.3530 H   0  0  0  0  0  0  0  0  0  0  0  0
   -2.0749    1.6048   -1.5437 H   0  0  0  0  0  0  0  0  0  0  0  0
   -0.8501    0.3648   -1.7055 H   0  0  0  0  0  0  0  0  0  0  0  0
    2.5069    0.6907   -1.2967 H   0  0  0  0  0  0  0  0  0  0  0  0
    1.3742   -0.5014   -0.6739 H   0  0  0  0  0  0  0  0  0  0  0  0
   -2.5099    0.8890    0.8077 H   0  0  0  0  0  0  0  0  0  0  0  0
   -1.2728   -0.3527    0.6674 H   0  0  0  0  0  0  0  0  0  0  0  0
   -1.1469    3.0698    1.6257 H   0  0  0  0  0  0  0  0  0  0  0  0
   -0.0054    4.2728    1.0104 H   0  0  0  0  0  0  0  0  0  0  0  0
   -1.5783    4.0653    0.2277 H   0  0  0  0  0  0  0  0  0  0  0  0
    3.9394    0.3489    0.7639 H   0  0  0  0  0  0  0  0  0  0  0  0
    2.8195   -0.9074    1.2970 H   0  0  0  0  0  0  0  0  0  0  0  0
   -3.7776   -0.2081   -1.0880 H   0  0  0  0  0  0  0  0  0  0  0  0
   -2.5587   -1.4848   -1.1243 H   0  0  0  0  0  0  0  0  0  0  0  0
    3.2681   -2.1830   -0.8309 H   0  0  0  0  0  0  0  0  0  0  0  0
    4.4052   -0.9299   -1.3328 H   0  0  0  0  0  0  0  0  0  0  0  0
   -3.0809   -2.0250    1.2822 H   0  0  0  0  0  0  0  0  0  0  0  0
   -4.3145   -0.7627    1.2895 H   0  0  0  0  0  0  0  0  0  0  0  0
    4.6750   -2.6638    1.1807 H   0  0  0  0  0  0  0  0  0  0  0  0
    5.8187   -1.4031    0.6786 H   0  0  0  0  0  0  0  0  0  0  0  0
    5.5951   -2.8482   -0.3224 H   0  0  0  0  0  0  0  0  0  0  0  0
   -4.3215   -3.2367   -0.5205 H   0  0  0  0  0  0  0  0  0  0  0  0
   -5.5621   -1.9676   -0.5159 H   0  0  0  0  0  0  0  0  0  0  0  0
   -5.3296   -2.9867    0.9151 H   0  0  0  0  0  0  0  0  0  0  0  0
  1  2  1  0  0  0  0
  1  3  1  0  0  0  0
  1  6  1  0  0  0  0
  1 13  1  0  0  0  0
  2  4  1  0  0  0  0
  2 14  1  0  0  0  0
  2 15  1  0  0  0  0
  3  5  1  0  0  0  0
  3 16  1  0  0  0  0
  3 17  1  0  0  0  0
  4  7  1  0  0  0  0
  4 18  1  0  0  0  0
  4 19  1  0  0  0  0
  5  8  1  0  0  0  0
  5 20  1  0  0  0  0
  5 21  1  0  0  0  0
  6 22  1  0  0  0  0
  6 23  1  0  0  0  0
  6 24  1  0  0  0  0
  7  9  1  0  0  0  0
  7 25  1  0  0  0  0
  7 26  1  0  0  0  0
  8 10  1  0  0  0  0
  8 27  1  0  0  0  0
  8 28  1  0  0  0  0
  9 11  1  0  0  0  0
  9 29  1  0  0  0  0
  9 30  1  0  0  0  0
 10 12  1  0  0  0  0
 10 31  1  0  0  0  0
 10 32  1  0  0  0  0
 11 33  1  0  0  0  0
 11 34  1  0  0  0  0
 11 35  1  0  0  0  0
 12 36  1  0  0  0  0
 12 37  1  0  0  0  0
 12 38  1  0  0  0  0
M  END
> <PUBCHEM_COMPOUND_CID>
71355846

> <PUBCHEM_CONFORMER_RMSD>
1

> <PUBCHEM_CONFORMER_DIVERSEORDER>
1
27
55
45
52
95
72
7
49
86
51
3
26
67
36
93
80
47
42
21
83
2
17
31
19
102
50
63
53
69
74
78
30
75
24
87
11
34
32
10
29
20
9
71
100
41
91
28
16
35
90
101
37
92
54
5
14
46
81
4
48
88
15
59
85
79
18
61
44
94
22
13
77
62
38
99
96
68
33
60
8
76
89
73
6
40
98
58
97
23
65
39
84
12
56
66
57
64
70
25
43
82

> <PUBCHEM_MMFF94_PARTIAL_CHARGES>
5
1 0.44
13 -0.2
2 -0.08
3 -0.08
6 -0.08

> <PUBCHEM_EFFECTIVE_ROTOR_COUNT>
8

> <PUBCHEM_PHARMACOPHORE_FEATURES>
2
1 11 hydrophobe
1 12 hydrophobe

> <PUBCHEM_HEAVY_ATOM_COUNT>
12

> <PUBCHEM_ATOM_DEF_STEREO_COUNT>
0

> <PUBCHEM_ATOM_UDEF_STEREO_COUNT>
0

> <PUBCHEM_BOND_DEF_STEREO_COUNT>
0

> <PUBCHEM_BOND_UDEF_STEREO_COUNT>
0

> <PUBCHEM_ISOTOPIC_ATOM_COUNT>
0

> <PUBCHEM_COMPONENT_COUNT>
1

> <PUBCHEM_CACTVS_TAUTO_COUNT>
1

> <PUBCHEM_CONFORMER_ID>
0440CDC600000001

> <PUBCHEM_MMFF94_ENERGY>
-3.5957

> <PUBCHEM_FEATURE_SELFOVERLAP>
10.149

> <PUBCHEM_SHAPE_FINGERPRINT>
12006461 19 18337392737754229259
13533116 47 18050292763384666595
13955234 65 17836371823643571753
14123255 352 10231755586938939758
14251710 61 18408603668994341830
14251731 5 18409449201962758575
14251764 75 8358270275610439143
14252887 29 18266454480707647536
15352361 1 18408885148197746770
17134986 127 8934735391188847144
17859628 70 17905051700591211155
19782 4 10375875164486975559
20281475 54 18408610270274751316
20388580 30 18187651357036986940
20621476 21 17915472597407279686
20621476 91 18263625347870462122
20645477 70 17972308788471268487
20671657 53 18337958999364851573
20871998 22 18338231677874435365
21354914 76 18338236093300905495
21665056 4 17545318579756632692
22620623 9 17096068222136633303
23403322 49 18333729091737878062
23500284 5 18410575050356490905
23526113 38 17896040021501081321
3421961 26 18268147732998917513
4416823 128 18408322202544080407
5207 123 18409162242982724335
57003041 14 18333725845212282973
7062679 13 18334572426089546106
77188 2 18411701027768397825
94968 8 18188208835228329531

> <PUBCHEM_SHAPE_MULTIPOLES>
265.17
9.33
3.81
0.92
2.69
1.74
-0.06
-13.61
0.78
-1.3
0.65
-0.12
0.28
0.16

> <PUBCHEM_SHAPE_SELFOVERLAP>
454.492

> <PUBCHEM_SHAPE_VOLUME>
177.4

> <PUBCHEM_COORDINATE_TYPE>
2
5
10

$$$$
