716685
  -OEChem-11012400443D

 27 28  0     0  0  0  0  0  0999 V2000
    2.1800   -2.6002   -0.0302 Cl  0  0  0  0  0  0  0  0  0  0  0  0
   -6.1420   -0.1726    0.5550 Cl  0  0  0  0  0  0  0  0  0  0  0  0
    0.6439    0.7664   -2.6457 N   0  0  0  0  0  0  0  0  0  0  0  0
   -1.6837    0.1081   -0.0693 C   0  0  0  0  0  0  0  0  0  0  0  0
    2.1293    0.0716    0.5572 C   0  0  0  0  0  0  0  0  0  0  0  0
   -0.2457    0.1987   -0.2695 C   0  0  0  0  0  0  0  0  0  0  0  0
    0.6697   -0.0030    0.7156 C   0  0  0  0  0  0  0  0  0  0  0  0
   -2.3366   -1.1126   -0.2408 C   0  0  0  0  0  0  0  0  0  0  0  0
   -2.4097    1.2419    0.2952 C   0  0  0  0  0  0  0  0  0  0  0  0
    2.8876   -1.0430    0.2241 C   0  0  0  0  0  0  0  0  0  0  0  0
    2.7304    1.3090    0.7536 C   0  0  0  0  0  0  0  0  0  0  0  0
   -3.7152   -1.1993   -0.0477 C   0  0  0  0  0  0  0  0  0  0  0  0
   -3.7884    1.1552    0.4882 C   0  0  0  0  0  0  0  0  0  0  0  0
    4.2700   -0.9192    0.0850 C   0  0  0  0  0  0  0  0  0  0  0  0
    4.1127    1.4328    0.6144 C   0  0  0  0  0  0  0  0  0  0  0  0
   -4.4411   -0.0654    0.3167 C   0  0  0  0  0  0  0  0  0  0  0  0
    4.8825    0.3188    0.2802 C   0  0  0  0  0  0  0  0  0  0  0  0
    0.2563    0.5127   -1.5816 C   0  0  0  0  0  0  0  0  0  0  0  0
    0.3353   -0.2454    1.7226 H   0  0  0  0  0  0  0  0  0  0  0  0
   -1.7850   -2.0060   -0.5244 H   0  0  0  0  0  0  0  0  0  0  0  0
   -1.9158    2.2009    0.4331 H   0  0  0  0  0  0  0  0  0  0  0  0
    2.1451    2.1871    1.0153 H   0  0  0  0  0  0  0  0  0  0  0  0
   -4.2107   -2.1571   -0.1847 H   0  0  0  0  0  0  0  0  0  0  0  0
   -4.3413    2.0470    0.7722 H   0  0  0  0  0  0  0  0  0  0  0  0
    4.8850   -1.7769   -0.1754 H   0  0  0  0  0  0  0  0  0  0  0  0
    4.5898    2.3966    0.7663 H   0  0  0  0  0  0  0  0  0  0  0  0
    5.9588    0.4154    0.1717 H   0  0  0  0  0  0  0  0  0  0  0  0
  1 10  1  0  0  0  0
  2 16  1  0  0  0  0
  3 18  3  0  0  0  0
  4  6  1  0  0  0  0
  4  8  2  0  0  0  0
  4  9  1  0  0  0  0
  5  7  1  0  0  0  0
  5 10  1  0  0  0  0
  5 11  2  0  0  0  0
  6  7  2  0  0  0  0
  6 18  1  0  0  0  0
  7 19  1  0  0  0  0
  8 12  1  0  0  0  0
  8 20  1  0  0  0  0
  9 13  2  0  0  0  0
  9 21  1  0  0  0  0
 10 14  2  0  0  0  0
 11 15  1  0  0  0  0
 11 22  1  0  0  0  0
 12 16  2  0  0  0  0
 12 23  1  0  0  0  0
 13 16  1  0  0  0  0
 13 24  1  0  0  0  0
 14 17  1  0  0  0  0
 14 25  1  0  0  0  0
 15 17  2  0  0  0  0
 15 26  1  0  0  0  0
 17 27  1  0  0  0  0
M  END
> <PUBCHEM_COMPOUND_CID>
716685

> <PUBCHEM_CONFORMER_RMSD>
0.6

> <PUBCHEM_CONFORMER_DIVERSEORDER>
1
7
8
2
6
5
4
3

> <PUBCHEM_MMFF94_PARTIAL_CHARGES>
27
1 -0.18
10 0.18
11 -0.15
12 -0.15
13 -0.15
14 -0.15
15 -0.15
16 0.18
17 -0.15
18 0.49
19 0.15
2 -0.18
20 0.15
21 0.15
22 0.15
23 0.15
24 0.15
25 0.15
26 0.15
27 0.15
3 -0.56
4 0.03
5 0.03
6 0.04
7 -0.18
8 -0.15
9 -0.15

> <PUBCHEM_EFFECTIVE_ROTOR_COUNT>
2

> <PUBCHEM_PHARMACOPHORE_FEATURES>
3
1 3 acceptor
6 4 8 9 12 13 16 rings
6 5 10 11 14 15 17 rings

> <PUBCHEM_HEAVY_ATOM_COUNT>
18

> <PUBCHEM_ATOM_DEF_STEREO_COUNT>
0

> <PUBCHEM_ATOM_UDEF_STEREO_COUNT>
0

> <PUBCHEM_BOND_DEF_STEREO_COUNT>
1

> <PUBCHEM_BOND_UDEF_STEREO_COUNT>
0

> <PUBCHEM_ISOTOPIC_ATOM_COUNT>
0

> <PUBCHEM_COMPONENT_COUNT>
1

> <PUBCHEM_CACTVS_TAUTO_COUNT>
1

> <PUBCHEM_CONFORMER_ID>
000AEF8D00000001

> <PUBCHEM_MMFF94_ENERGY>
52.3005

> <PUBCHEM_FEATURE_SELFOVERLAP>
15.223

> <PUBCHEM_SHAPE_FINGERPRINT>
10616163 171 18270960253625853967
12107183 9 17623014490986083011
12236239 1 18113338622233508577
12251169 10 18272368680891744129
12507560 40 18410290272887331837
12592029 89 16773803580059484774
12670546 56 18201431480596826193
12707595 3 15719399438066233229
13167823 11 18272929427500802723
13533116 47 18341894052749558027
13583140 156 18271794710147531493
13675066 3 18187368723109929673
13760787 19 18060416945233716303
14252887 29 17749111062762670322
14289901 80 18342735225840340267
14341114 176 18343588442621475913
14341114 328 18131632300490298770
15342168 16 18191021421034175692
17834072 33 18343861130205790555
1813 80 17312827043547127140
18222031 100 17022903453816801100
20344682 1 17967249798085619774
20645477 70 18130508539725427046
21033648 29 18262782022209760417
21267235 1 18342746195266149666
22854114 59 18409163320623753136
23402539 116 17846491539876925685
23557571 272 17385720240905640006
23559900 14 18412821417031005960
3286 77 18335978680360518826
3545911 37 18413670218538106657
4072396 5 16056881290759279015
42 15 18410014329907496371
4214541 1 18342175536036355705
4340502 62 18342736338632820538
449060 50 18410571794734051945
465052 167 17561367300478012463
5104073 3 18340485573542017107
621550 34 18187355520264449748
77779 3 18342455941381391904
81228 2 16372405857796934372
8272917 22 17988648458535242366
9709674 26 18412830187370658947
9999458 23 18341895220974946020

> <PUBCHEM_SHAPE_MULTIPOLES>
369.19
11.12
1.71
1.2
7.36
0.76
-1.01
-0.19
3.15
-1.12
0.16
-0.26
-0.32
0.06

> <PUBCHEM_SHAPE_SELFOVERLAP>
778.252

> <PUBCHEM_SHAPE_VOLUME>
206.2

> <PUBCHEM_COORDINATE_TYPE>
2
5
10

$$$$
