141045
  -OEChem-10312420552D

 29 30  0     1  0  0  0  0  0999 V2000
    7.1967   -0.0000    0.0000 O   0  0  0  0  0  0  0  0  0  0  0  0
    5.4641    2.0000    0.0000 O   0  0  0  0  0  0  0  0  0  0  0  0
    5.4641   -2.0000    0.0000 O   0  0  0  0  0  0  0  0  0  0  0  0
    3.7320    1.0000    0.0000 O   0  0  0  0  0  0  0  0  0  0  0  0
    3.7320   -1.0000    0.0000 O   0  0  0  0  0  0  0  0  0  0  0  0
    6.3301    3.5000    0.0000 O   0  5  0  0  0  0  0  0  0  0  0  0
    4.5981   -3.5000    0.0000 O   0  5  0  0  0  0  0  0  0  0  0  0
    7.1962    2.0000    0.0000 O   0  0  0  0  0  0  0  0  0  0  0  0
    3.7320   -2.0000    0.0000 O   0  0  0  0  0  0  0  0  0  0  0  0
    2.8660    2.5000    0.0000 O   0  5  0  0  0  0  0  0  0  0  0  0
    2.0000   -1.0000    0.0000 O   0  5  0  0  0  0  0  0  0  0  0  0
    4.5981    2.5000    0.0000 O   0  0  0  0  0  0  0  0  0  0  0  0
    2.8660    0.5000    0.0000 O   0  0  0  0  0  0  0  0  0  0  0  0
    6.3301    2.5000    0.0000 N   0  3  0  0  0  0  0  0  0  0  0  0
    4.5981   -2.5000    0.0000 N   0  3  0  0  0  0  0  0  0  0  0  0
    3.7320    2.0000    0.0000 N   0  3  0  0  0  0  0  0  0  0  0  0
    2.8660   -0.5000    0.0000 N   0  3  0  0  0  0  0  0  0  0  0  0
    6.3301    0.5000    0.0000 C   0  0  3  0  0  0  0  0  0  0  0  0
    6.3301   -0.5000    0.0000 C   0  0  3  0  0  0  0  0  0  0  0  0
    5.4641    1.0000    0.0000 C   0  0  3  0  0  0  0  0  0  0  0  0
    5.4641   -1.0000    0.0000 C   0  0  3  0  0  0  0  0  0  0  0  0
    4.5981    0.5000    0.0000 C   0  0  3  0  0  0  0  0  0  0  0  0
    4.5981   -0.5000    0.0000 C   0  0  3  0  0  0  0  0  0  0  0  0
    6.6401    1.0370    0.0000 H   0  0  0  0  0  0  0  0  0  0  0  0
    6.6401   -1.0370    0.0000 H   0  0  0  0  0  0  0  0  0  0  0  0
    6.0010    1.3100    0.0000 H   0  0  0  0  0  0  0  0  0  0  0  0
    6.0010   -1.3100    0.0000 H   0  0  0  0  0  0  0  0  0  0  0  0
    4.5981    1.1200    0.0000 H   0  0  0  0  0  0  0  0  0  0  0  0
    4.5981   -1.1200    0.0000 H   0  0  0  0  0  0  0  0  0  0  0  0
  1 18  1  0  0  0  0
  1 19  1  0  0  0  0
  2 14  1  0  0  0  0
  2 20  1  0  0  0  0
  3 15  1  0  0  0  0
  3 21  1  0  0  0  0
  4 16  1  0  0  0  0
  4 22  1  0  0  0  0
  5 17  1  0  0  0  0
  5 23  1  0  0  0  0
  6 14  1  0  0  0  0
  7 15  1  0  0  0  0
  8 14  2  0  0  0  0
  9 15  2  0  0  0  0
 10 16  1  0  0  0  0
 11 17  1  0  0  0  0
 12 16  2  0  0  0  0
 13 17  2  0  0  0  0
 18 19  1  0  0  0  0
 18 20  1  0  0  0  0
 18 24  1  0  0  0  0
 19 21  1  0  0  0  0
 19 25  1  0  0  0  0
 20 22  1  0  0  0  0
 20 26  1  0  0  0  0
 21 23  1  0  0  0  0
 21 27  1  0  0  0  0
 22 23  1  0  0  0  0
 22 28  1  0  0  0  0
 23 29  1  0  0  0  0
M  CHG  8   6  -1   7  -1  10  -1  11  -1  14   1  15   1  16   1  17   1
M  END
> <PUBCHEM_COMPOUND_CID>
141045

> <PUBCHEM_COMPOUND_CANONICALIZED>
1

> <PUBCHEM_CACTVS_COMPLEXITY>
471

> <PUBCHEM_CACTVS_HBOND_ACCEPTOR>
13

> <PUBCHEM_CACTVS_HBOND_DONOR>
0

> <PUBCHEM_CACTVS_ROTATABLE_BOND>
4

> <PUBCHEM_CACTVS_SUBSKEYS>
AAADcYBjvAAAAAAAAAAAAAAAEgAAAAAAAAAwAAAABIAAAAAAAAAAGgAEAAAACBSggAIAAAAARAABAAAAAQAAAAAAAAAAAAAAAAABAAIAAAACAAAFAAACAAHAYAwAAAAAAAAAAAACAAAQAACAAAAAAAAAAA==

> <PUBCHEM_IUPAC_OPENEYE_NAME>
(2,4,5-trinitrooxy-7-oxabicyclo[4.1.0]heptan-3-yl) nitrate

> <PUBCHEM_IUPAC_CAS_NAME>
nitric acid (2,4,5-trinitrooxy-7-oxabicyclo[4.1.0]heptan-3-yl) ester

> <PUBCHEM_IUPAC_NAME_MARKUP>
(2,4,5-trinitrooxy-7-oxabicyclo[4.1.0]heptan-3-yl) nitrate

> <PUBCHEM_IUPAC_NAME>
(2,4,5-trinitrooxy-7-oxabicyclo[4.1.0]heptan-3-yl) nitrate

> <PUBCHEM_IUPAC_SYSTEMATIC_NAME>
(2,4,5-trinitrooxy-7-oxabicyclo[4.1.0]heptan-3-yl) nitrate

> <PUBCHEM_IUPAC_TRADITIONAL_NAME>
nitric acid (2,4,5-trinitrooxy-7-oxabicyclo[4.1.0]heptan-3-yl) ester

> <PUBCHEM_IUPAC_INCHI>
InChI=1S/C6H6N4O13/c11-7(12)20-3-1-2(19-1)4(21-8(13)14)6(23-10(17)18)5(3)22-9(15)16/h1-6H

> <PUBCHEM_IUPAC_INCHIKEY>
LOVOHJNLPMZKIN-UHFFFAOYSA-N

> <PUBCHEM_XLOGP3_AA>
1.1

> <PUBCHEM_EXACT_MASS>
341.99313626

> <PUBCHEM_MOLECULAR_FORMULA>
C6H6N4O13

> <PUBCHEM_MOLECULAR_WEIGHT>
342.13

> <PUBCHEM_OPENEYE_CAN_SMILES>
C12C(O1)C(C(C(C2O[N+](=O)[O-])O[N+](=O)[O-])O[N+](=O)[O-])O[N+](=O)[O-]

> <PUBCHEM_OPENEYE_ISO_SMILES>
C12C(O1)C(C(C(C2O[N+](=O)[O-])O[N+](=O)[O-])O[N+](=O)[O-])O[N+](=O)[O-]

> <PUBCHEM_CACTVS_TPSA>
233

> <PUBCHEM_MONOISOTOPIC_WEIGHT>
341.99313626

> <PUBCHEM_TOTAL_CHARGE>
0

> <PUBCHEM_HEAVY_ATOM_COUNT>
23

> <PUBCHEM_ATOM_DEF_STEREO_COUNT>
0

> <PUBCHEM_ATOM_UDEF_STEREO_COUNT>
6

> <PUBCHEM_BOND_DEF_STEREO_COUNT>
0

> <PUBCHEM_BOND_UDEF_STEREO_COUNT>
0

> <PUBCHEM_ISOTOPIC_ATOM_COUNT>
0

> <PUBCHEM_COMPONENT_COUNT>
1

> <PUBCHEM_CACTVS_TAUTO_COUNT>
1

> <PUBCHEM_COORDINATE_TYPE>
1
5
255

> <PUBCHEM_BONDANNOTATIONS>
18  1  3
19  1  3
20  2  3
21  3  3
22  4  3
23  5  3

$$$$
