21832
  -OEChem-11012400533D

 39 39  0     0  0  0  0  0  0999 V2000
    2.1077   -0.3751   -0.2848 C   0  0  0  0  0  0  0  0  0  0  0  0
    2.3032    1.0391    0.2785 C   0  0  0  0  0  0  0  0  0  0  0  0
    3.2588   -1.2965    0.1404 C   0  0  0  0  0  0  0  0  0  0  0  0
    0.7640   -0.9511    0.1581 C   0  0  0  0  0  0  0  0  0  0  0  0
    3.6635    1.6162   -0.1068 C   0  0  0  0  0  0  0  0  0  0  0  0
    4.6176   -0.7155   -0.2444 C   0  0  0  0  0  0  0  0  0  0  0  0
    4.8047    0.6934    0.3097 C   0  0  0  0  0  0  0  0  0  0  0  0
   -0.3997   -0.0689   -0.2939 C   0  0  0  0  0  0  0  0  0  0  0  0
   -1.7459   -0.6666    0.1223 C   0  0  0  0  0  0  0  0  0  0  0  0
   -2.9066    0.2376   -0.2980 C   0  0  0  0  0  0  0  0  0  0  0  0
   -4.2754   -0.2772    0.1566 C   0  0  0  0  0  0  0  0  0  0  0  0
   -5.4277    0.6631   -0.1993 C   0  0  0  0  0  0  0  0  0  0  0  0
   -6.7641    0.1015    0.2616 C   0  0  0  0  0  0  0  0  0  0  0  0
    2.1130   -0.3112   -1.3818 H   0  0  0  0  0  0  0  0  0  0  0  0
    2.2088    1.0271    1.3717 H   0  0  0  0  0  0  0  0  0  0  0  0
    1.5475    1.7306   -0.1060 H   0  0  0  0  0  0  0  0  0  0  0  0
    3.1422   -2.2815   -0.3271 H   0  0  0  0  0  0  0  0  0  0  0  0
    3.2294   -1.4546    1.2261 H   0  0  0  0  0  0  0  0  0  0  0  0
    0.6416   -1.9568   -0.2630 H   0  0  0  0  0  0  0  0  0  0  0  0
    0.7403   -1.0592    1.2499 H   0  0  0  0  0  0  0  0  0  0  0  0
    3.7941    2.5978    0.3628 H   0  0  0  0  0  0  0  0  0  0  0  0
    3.6996    1.7738   -1.1918 H   0  0  0  0  0  0  0  0  0  0  0  0
    4.7082   -0.6930   -1.3374 H   0  0  0  0  0  0  0  0  0  0  0  0
    5.4158   -1.3671    0.1287 H   0  0  0  0  0  0  0  0  0  0  0  0
    5.7581    1.1042   -0.0409 H   0  0  0  0  0  0  0  0  0  0  0  0
    4.8579    0.6506    1.4046 H   0  0  0  0  0  0  0  0  0  0  0  0
   -0.3338    0.9254    0.1580 H   0  0  0  0  0  0  0  0  0  0  0  0
   -0.3724    0.0589   -1.3825 H   0  0  0  0  0  0  0  0  0  0  0  0
   -1.8696   -1.6570   -0.3320 H   0  0  0  0  0  0  0  0  0  0  0  0
   -1.7659   -0.8043    1.2102 H   0  0  0  0  0  0  0  0  0  0  0  0
   -2.9070    0.3459   -1.3897 H   0  0  0  0  0  0  0  0  0  0  0  0
   -2.7507    1.2405    0.1191 H   0  0  0  0  0  0  0  0  0  0  0  0
   -4.2583   -0.4276    1.2433 H   0  0  0  0  0  0  0  0  0  0  0  0
   -4.4543   -1.2607   -0.2955 H   0  0  0  0  0  0  0  0  0  0  0  0
   -5.4562    0.8204   -1.2836 H   0  0  0  0  0  0  0  0  0  0  0  0
   -5.2659    1.6416    0.2672 H   0  0  0  0  0  0  0  0  0  0  0  0
   -6.9689   -0.8636   -0.2128 H   0  0  0  0  0  0  0  0  0  0  0  0
   -6.7773   -0.0390    1.3472 H   0  0  0  0  0  0  0  0  0  0  0  0
   -7.5745    0.7883   -0.0019 H   0  0  0  0  0  0  0  0  0  0  0  0
  1  2  1  0  0  0  0
  1  3  1  0  0  0  0
  1  4  1  0  0  0  0
  1 14  1  0  0  0  0
  2  5  1  0  0  0  0
  2 15  1  0  0  0  0
  2 16  1  0  0  0  0
  3  6  1  0  0  0  0
  3 17  1  0  0  0  0
  3 18  1  0  0  0  0
  4  8  1  0  0  0  0
  4 19  1  0  0  0  0
  4 20  1  0  0  0  0
  5  7  1  0  0  0  0
  5 21  1  0  0  0  0
  5 22  1  0  0  0  0
  6  7  1  0  0  0  0
  6 23  1  0  0  0  0
  6 24  1  0  0  0  0
  7 25  1  0  0  0  0
  7 26  1  0  0  0  0
  8  9  1  0  0  0  0
  8 27  1  0  0  0  0
  8 28  1  0  0  0  0
  9 10  1  0  0  0  0
  9 29  1  0  0  0  0
  9 30  1  0  0  0  0
 10 11  1  0  0  0  0
 10 31  1  0  0  0  0
 10 32  1  0  0  0  0
 11 12  1  0  0  0  0
 11 33  1  0  0  0  0
 11 34  1  0  0  0  0
 12 13  1  0  0  0  0
 12 35  1  0  0  0  0
 12 36  1  0  0  0  0
 13 37  1  0  0  0  0
 13 38  1  0  0  0  0
 13 39  1  0  0  0  0
M  END
> <PUBCHEM_COMPOUND_CID>
21832

> <PUBCHEM_CONFORMER_RMSD>
0.8

> <PUBCHEM_CONFORMER_DIVERSEORDER>
1
21
9
57
58
3
66
49
6
34
10
33
36
46
41
13
11
38
14
22
28
70
16
65
47
35
69
24
72
5
23
40
25
8
20
50
18
7
26
53
2
51
52
37
30
61
71
64
63
15
4
31
43
12
62
55
54
27
59
29
42
39
19
56
68
48
44
45
17
73
67
32
60

> <PUBCHEM_MMFF94_PARTIAL_CHARGES>
0

> <PUBCHEM_EFFECTIVE_ROTOR_COUNT>
7.2

> <PUBCHEM_PHARMACOPHORE_FEATURES>
4
1 13 hydrophobe
3 10 11 12 hydrophobe
3 4 8 9 hydrophobe
6 1 2 3 5 6 7 rings

> <PUBCHEM_HEAVY_ATOM_COUNT>
13

> <PUBCHEM_ATOM_DEF_STEREO_COUNT>
0

> <PUBCHEM_ATOM_UDEF_STEREO_COUNT>
0

> <PUBCHEM_BOND_DEF_STEREO_COUNT>
0

> <PUBCHEM_BOND_UDEF_STEREO_COUNT>
0

> <PUBCHEM_ISOTOPIC_ATOM_COUNT>
0

> <PUBCHEM_COMPONENT_COUNT>
1

> <PUBCHEM_CACTVS_TAUTO_COUNT>
1

> <PUBCHEM_CONFORMER_ID>
0000554800000001

> <PUBCHEM_MMFF94_ENERGY>
1.7586

> <PUBCHEM_FEATURE_SELFOVERLAP>
20.309

> <PUBCHEM_SHAPE_FINGERPRINT>
10354089 29 18410012139162984408
11287383 113 18408887356316949491
11471102 20 18412544319285183606
12714333 28 16988842791312215225
13081056 2 18334574629275387029
13167372 99 18201162040466931201
13533116 47 18202000980386345666
14123238 8 17275103925259384679
1420 363 17968101919607591723
14251732 16 18337392751214293571
14252887 29 12179836174492021696
17834072 33 18201716280215814639
17834072 8 18272658943756547710
17834076 25 18259704497689499247
20281389 69 18335139753184100753
20645477 56 18186518817585425583
20645477 70 18342177717906486062
212847 35 18273494585046198472
23402539 116 17988918977371770733
23402655 69 18272367611645315270
23557571 272 16950564316531267815
29717793 49 17131840850073563372
300161 21 17917422146632133879
3545911 37 18410012143299598711
4047638 21 18409448094341101210
42788 4 18411138026585747839
522135 26 18412545401453580814
5374978 207 18260261941167936072
542803 24 17775567533388893635
8272917 22 18272935981679165974

> <PUBCHEM_SHAPE_MULTIPOLES>
267.53
14.76
1.27
0.67
20.18
0.17
0
2.39
-0.7
-1.5
-0.03
-0.01
0.01
0.19

> <PUBCHEM_SHAPE_SELFOVERLAP>
499.573

> <PUBCHEM_SHAPE_VOLUME>
166.4

> <PUBCHEM_COORDINATE_TYPE>
2
5
10

$$$$
