5881938
  -OEChem-11012400503D

 49 50  0     0  0  0  0  0  0999 V2000
    5.4961    0.4579   -0.2020 O   0  0  0  0  0  0  0  0  0  0  0  0
   -5.4493   -0.3432   -0.5021 O   0  0  0  0  0  0  0  0  0  0  0  0
    5.2301   -1.7900   -0.5663 O   0  0  0  0  0  0  0  0  0  0  0  0
   -5.3890    1.5662    0.8056 O   0  0  0  0  0  0  0  0  0  0  0  0
    1.2697   -0.8832    0.7212 N   0  0  0  0  0  0  0  0  0  0  0  0
   -1.3731   -0.7518    0.1382 N   0  0  0  0  0  0  0  0  0  0  0  0
    1.3098    0.3878    0.2460 C   0  0  0  0  0  0  0  0  0  0  0  0
    2.5627    0.6743   -0.1921 C   0  0  0  0  0  0  0  0  0  0  0  0
    3.3417   -0.4891    0.0256 C   0  0  0  0  0  0  0  0  0  0  0  0
    2.5169   -1.4364    0.5908 C   0  0  0  0  0  0  0  0  0  0  0  0
   -1.1336    0.5993    0.2464 C   0  0  0  0  0  0  0  0  0  0  0  0
    0.0901    1.1371    0.2971 C   0  0  0  0  0  0  0  0  0  0  0  0
   -2.4071    1.2991    0.2931 C   0  0  0  0  0  0  0  0  0  0  0  0
   -3.4054    0.4107    0.2162 C   0  0  0  0  0  0  0  0  0  0  0  0
   -2.6711   -0.8590    0.1202 C   0  0  0  0  0  0  0  0  0  0  0  0
    3.0339    1.9454   -0.7819 C   0  0  0  0  0  0  0  0  0  0  0  0
    2.7816   -2.8217    1.0265 C   0  0  0  0  0  0  0  0  0  0  0  0
    4.7322   -0.6900   -0.2710 C   0  0  0  0  0  0  0  0  0  0  0  0
   -2.5015    2.7829    0.4103 C   0  0  0  0  0  0  0  0  0  0  0  0
   -3.3767   -2.1721    0.0129 C   0  0  0  0  0  0  0  0  0  0  0  0
   -4.8394    0.6333    0.2248 C   0  0  0  0  0  0  0  0  0  0  0  0
    6.8936    0.3288   -0.4862 C   0  0  0  0  0  0  0  0  0  0  0  0
   -6.8756   -0.2601   -0.5886 C   0  0  0  0  0  0  0  0  0  0  0  0
    7.5503    1.6868   -0.3586 C   0  0  0  0  0  0  0  0  0  0  0  0
   -7.3868   -1.4131   -1.4259 C   0  0  0  0  0  0  0  0  0  0  0  0
    0.4687   -1.3566    1.1187 H   0  0  0  0  0  0  0  0  0  0  0  0
    0.1965    2.2178    0.3467 H   0  0  0  0  0  0  0  0  0  0  0  0
    3.6414    1.7635   -1.6746 H   0  0  0  0  0  0  0  0  0  0  0  0
    2.2009    2.5863   -1.0886 H   0  0  0  0  0  0  0  0  0  0  0  0
    3.6355    2.5049   -0.0582 H   0  0  0  0  0  0  0  0  0  0  0  0
    3.6703   -2.8640    1.6646 H   0  0  0  0  0  0  0  0  0  0  0  0
    1.9445   -3.2355    1.5986 H   0  0  0  0  0  0  0  0  0  0  0  0
    2.9485   -3.4697    0.1602 H   0  0  0  0  0  0  0  0  0  0  0  0
   -1.9561    3.2686   -0.4061 H   0  0  0  0  0  0  0  0  0  0  0  0
   -3.5308    3.1468    0.3621 H   0  0  0  0  0  0  0  0  0  0  0  0
   -2.0758    3.1208    1.3610 H   0  0  0  0  0  0  0  0  0  0  0  0
   -2.6720   -2.9853    0.2123 H   0  0  0  0  0  0  0  0  0  0  0  0
   -3.7718   -2.2986   -0.9984 H   0  0  0  0  0  0  0  0  0  0  0  0
   -4.1858   -2.2366    0.7449 H   0  0  0  0  0  0  0  0  0  0  0  0
    7.3460   -0.3710    0.2249 H   0  0  0  0  0  0  0  0  0  0  0  0
    7.0233   -0.0520   -1.5052 H   0  0  0  0  0  0  0  0  0  0  0  0
   -7.3051   -0.3135    0.4180 H   0  0  0  0  0  0  0  0  0  0  0  0
   -7.1577    0.6906   -1.0544 H   0  0  0  0  0  0  0  0  0  0  0  0
    7.4118    2.0882    0.6508 H   0  0  0  0  0  0  0  0  0  0  0  0
    7.0929    2.4021   -1.0502 H   0  0  0  0  0  0  0  0  0  0  0  0
    8.6212    1.6251   -0.5706 H   0  0  0  0  0  0  0  0  0  0  0  0
   -8.4764   -1.3812   -1.5123 H   0  0  0  0  0  0  0  0  0  0  0  0
   -6.9510   -1.3828   -2.4300 H   0  0  0  0  0  0  0  0  0  0  0  0
   -7.0946   -2.3705   -0.9819 H   0  0  0  0  0  0  0  0  0  0  0  0
  1 18  1  0  0  0  0
  1 22  1  0  0  0  0
  2 21  1  0  0  0  0
  2 23  1  0  0  0  0
  3 18  2  0  0  0  0
  4 21  2  0  0  0  0
  5  7  1  0  0  0  0
  5 10  1  0  0  0  0
  5 26  1  0  0  0  0
  6 11  1  0  0  0  0
  6 15  2  0  0  0  0
  7  8  2  0  0  0  0
  7 12  1  0  0  0  0
  8  9  1  0  0  0  0
  8 16  1  0  0  0  0
  9 10  2  0  0  0  0
  9 18  1  0  0  0  0
 10 17  1  0  0  0  0
 11 12  2  0  0  0  0
 11 13  1  0  0  0  0
 12 27  1  0  0  0  0
 13 14  2  0  0  0  0
 13 19  1  0  0  0  0
 14 15  1  0  0  0  0
 14 21  1  0  0  0  0
 15 20  1  0  0  0  0
 16 28  1  0  0  0  0
 16 29  1  0  0  0  0
 16 30  1  0  0  0  0
 17 31  1  0  0  0  0
 17 32  1  0  0  0  0
 17 33  1  0  0  0  0
 19 34  1  0  0  0  0
 19 35  1  0  0  0  0
 19 36  1  0  0  0  0
 20 37  1  0  0  0  0
 20 38  1  0  0  0  0
 20 39  1  0  0  0  0
 22 24  1  0  0  0  0
 22 40  1  0  0  0  0
 22 41  1  0  0  0  0
 23 25  1  0  0  0  0
 23 42  1  0  0  0  0
 23 43  1  0  0  0  0
 24 44  1  0  0  0  0
 24 45  1  0  0  0  0
 24 46  1  0  0  0  0
 25 47  1  0  0  0  0
 25 48  1  0  0  0  0
 25 49  1  0  0  0  0
M  END
> <PUBCHEM_COMPOUND_CID>
5881938

> <PUBCHEM_CONFORMER_RMSD>
0.8

> <PUBCHEM_CONFORMER_DIVERSEORDER>
5
20
1
9
58
33
53
54
37
49
28
10
55
34
6
42
50
29
17
24
57
27
3
35
41
21
22
45
44
4
15
13
46
23
40
43
16
18
30
56
12
59
32
2
39
14
7
26
25
31
11
38
52
47
48
51
19
36
8

> <PUBCHEM_MMFF94_PARTIAL_CHARGES>
25
1 -0.43
10 -0.33
11 0.17
12 -0.11
13 -0.14
14 0.03
15 0.37
16 0.18
17 0.18
18 0.81
19 0.14
2 -0.43
20 0.06
21 0.71
22 0.28
23 0.28
26 0.27
27 0.15
3 -0.57
4 -0.57
5 0.03
6 -0.62
7 -0.2
8 -0.18
9 -0.09

> <PUBCHEM_EFFECTIVE_ROTOR_COUNT>
7

> <PUBCHEM_PHARMACOPHORE_FEATURES>
7
1 3 acceptor
1 4 acceptor
1 5 cation
1 5 donor
1 6 acceptor
5 5 7 8 9 10 rings
5 6 11 13 14 15 rings

> <PUBCHEM_HEAVY_ATOM_COUNT>
25

> <PUBCHEM_ATOM_DEF_STEREO_COUNT>
0

> <PUBCHEM_ATOM_UDEF_STEREO_COUNT>
0

> <PUBCHEM_BOND_DEF_STEREO_COUNT>
1

> <PUBCHEM_BOND_UDEF_STEREO_COUNT>
0

> <PUBCHEM_ISOTOPIC_ATOM_COUNT>
0

> <PUBCHEM_COMPONENT_COUNT>
1

> <PUBCHEM_CACTVS_TAUTO_COUNT>
2

> <PUBCHEM_CONFORMER_ID>
0059C05200000005

> <PUBCHEM_MMFF94_ENERGY>
49.2847

> <PUBCHEM_FEATURE_SELFOVERLAP>
35.522

> <PUBCHEM_SHAPE_FINGERPRINT>
10595046 47 18411419466786105832
10616163 171 18411421717418073299
10693767 8 18268434521621203374
10968037 39 18410576193149815125
11135609 187 18114174208358452187
11315181 36 18336550499279053121
11524674 6 15195562412344137925
12107183 9 17544757824388841529
12236239 1 18342740680464740536
12516196 113 17917990572821975072
12788726 201 17916871197075937673
12838862 33 18262501685129682116
13288520 33 18131631184690332029
13862211 1 18272085011914732599
14251764 18 18341895198956725453
15183329 4 18335136484080673939
16993438 75 17751933651025506442
18335252 98 17967820470548813531
18681886 176 18130502011306214680
2026 5 17273711853846280574
21150785 3 18343581867047469327
21267235 1 18342177795885348915
22224240 67 18261390075117123104
23522609 53 18128283149518465513
23559900 14 18338512040401797729
300161 21 17749106690549428914
3004659 81 18334852831623947115
34797466 226 17418098733005147116
350125 39 18410013221484635344
3545911 37 18335139795210289401
3633792 109 18187358810378385685
4073 2 18186810218390079594
4325135 7 18411139147841309236
4340502 62 15502094159935852120
465052 167 17988924509421685767
59755656 215 18334295362233411828
67856867 119 18263931097765426604

> <PUBCHEM_SHAPE_MULTIPOLES>
481.05
18.74
2.41
0.88
0.2
0.25
0.08
-0.01
6.24
0.43
-0.35
-0.5
0.15
-1.76

> <PUBCHEM_SHAPE_SELFOVERLAP>
1017.319

> <PUBCHEM_SHAPE_VOLUME>
274

> <PUBCHEM_COORDINATE_TYPE>
2
5
10

$$$$
