68535
  -OEChem-11012401243D

 10  9  0     0  0  0  0  0  0999 V2000
    1.7098    1.1873   -0.0001 O   0  0  0  0  0  0  0  0  0  0  0  0
    1.7959   -1.0991   -0.0002 O   0  0  0  0  0  0  0  0  0  0  0  0
   -2.9324    0.0077   -0.0003 C   0  0  0  0  0  0  0  0  0  0  0  0
   -1.4706   -0.0132    0.0003 C   0  0  0  0  0  0  0  0  0  0  0  0
    1.1672   -0.0524    0.0001 C   0  0  0  0  0  0  0  0  0  0  0  0
   -0.2699   -0.0302    0.0002 C   0  0  0  0  0  0  0  0  0  0  0  0
   -3.3315   -0.6884   -0.7442 H   0  0  0  0  0  0  0  0  0  0  0  0
   -3.3262   -0.2800    0.9792 H   0  0  0  0  0  0  0  0  0  0  0  0
   -3.3074    1.0082   -0.2362 H   0  0  0  0  0  0  0  0  0  0  0  0
    2.6905    1.1592   -0.0004 H   0  0  0  0  0  0  0  0  0  0  0  0
  1  5  1  0  0  0  0
  1 10  1  0  0  0  0
  2  5  2  0  0  0  0
  3  4  1  0  0  0  0
  3  7  1  0  0  0  0
  3  8  1  0  0  0  0
  3  9  1  0  0  0  0
  4  6  3  0  0  0  0
  5  6  1  0  0  0  0
M  END
> <PUBCHEM_COMPOUND_CID>
68535

> <PUBCHEM_CONFORMER_RMSD>
0.4

> <PUBCHEM_CONFORMER_DIVERSEORDER>
1

> <PUBCHEM_MMFF94_PARTIAL_CHARGES>
7
1 -0.65
10 0.5
2 -0.57
3 0.2
4 -0.2
5 0.83
6 -0.1

> <PUBCHEM_EFFECTIVE_ROTOR_COUNT>
0

> <PUBCHEM_PHARMACOPHORE_FEATURES>
4
1 1 acceptor
1 2 acceptor
1 3 hydrophobe
3 1 2 5 anion

> <PUBCHEM_HEAVY_ATOM_COUNT>
6

> <PUBCHEM_ATOM_DEF_STEREO_COUNT>
0

> <PUBCHEM_ATOM_UDEF_STEREO_COUNT>
0

> <PUBCHEM_BOND_DEF_STEREO_COUNT>
0

> <PUBCHEM_BOND_UDEF_STEREO_COUNT>
0

> <PUBCHEM_ISOTOPIC_ATOM_COUNT>
0

> <PUBCHEM_COMPONENT_COUNT>
1

> <PUBCHEM_CACTVS_TAUTO_COUNT>
1

> <PUBCHEM_CONFORMER_ID>
00010BB700000001

> <PUBCHEM_MMFF94_ENERGY>
1.6318

> <PUBCHEM_FEATURE_SELFOVERLAP>
20.351

> <PUBCHEM_SHAPE_FINGERPRINT>
14390081 3 18272087253212720241
20096714 4 18341613779920247072
21040471 1 18266459995566643174
23552449 11 18261097548445819938
29004967 10 18260832604755929497
5460574 1 9223234048514742051

> <PUBCHEM_SHAPE_MULTIPOLES>
111.74
3.61
0.93
0.58
2.03
0.05
0
-0.01
0
-0.6
0
0.06
0
0

> <PUBCHEM_SHAPE_SELFOVERLAP>
205.975

> <PUBCHEM_SHAPE_VOLUME>
70

> <PUBCHEM_COORDINATE_TYPE>
2
5
10

$$$$
