71353292
  -OEChem-11012400463D

 17 16  0     0  0  0  0  0  0999 V2000
   -2.3613   -0.0081   -0.1067 Si  0  0  0  0  0  0  0  0  0  0  0  0
    0.5534    0.0132   -0.3363 C   0  0  0  0  0  0  0  0  0  0  0  0
   -0.6755    0.7135    0.2799 C   0  0  0  0  0  0  0  0  0  0  0  0
    0.6182   -1.4401    0.1452 C   0  0  0  0  0  0  0  0  0  0  0  0
    1.8652    0.7215    0.0179 C   0  0  0  0  0  0  0  0  0  0  0  0
    0.4585    0.0088   -1.4301 H   0  0  0  0  0  0  0  0  0  0  0  0
   -0.6825    1.7567   -0.0597 H   0  0  0  0  0  0  0  0  0  0  0  0
   -0.5642    0.7498    1.3709 H   0  0  0  0  0  0  0  0  0  0  0  0
    0.5953   -1.5026    1.2388 H   0  0  0  0  0  0  0  0  0  0  0  0
    1.5477   -1.9131   -0.1924 H   0  0  0  0  0  0  0  0  0  0  0  0
   -0.1984   -2.0476   -0.2550 H   0  0  0  0  0  0  0  0  0  0  0  0
    2.0304    0.7317    1.1006 H   0  0  0  0  0  0  0  0  0  0  0  0
    1.8481    1.7589   -0.3320 H   0  0  0  0  0  0  0  0  0  0  0  0
    2.7189    0.2229   -0.4529 H   0  0  0  0  0  0  0  0  0  0  0  0
   -2.5020   -1.3607    0.4899 H   0  0  0  0  0  0  0  0  0  0  0  0
   -2.5493   -0.1024   -1.5767 H   0  0  0  0  0  0  0  0  0  0  0  0
   -3.4219    0.8654    0.4563 H   0  0  0  0  0  0  0  0  0  0  0  0
  1  3  1  0  0  0  0
  1 15  1  0  0  0  0
  1 16  1  0  0  0  0
  1 17  1  0  0  0  0
  2  3  1  0  0  0  0
  2  4  1  0  0  0  0
  2  5  1  0  0  0  0
  2  6  1  0  0  0  0
  3  7  1  0  0  0  0
  3  8  1  0  0  0  0
  4  9  1  0  0  0  0
  4 10  1  0  0  0  0
  4 11  1  0  0  0  0
  5 12  1  0  0  0  0
  5 13  1  0  0  0  0
  5 14  1  0  0  0  0
M  END
> <PUBCHEM_COMPOUND_CID>
71353292

> <PUBCHEM_CONFORMER_RMSD>
0.4

> <PUBCHEM_CONFORMER_DIVERSEORDER>
1
2

> <PUBCHEM_MMFF94_PARTIAL_CHARGES>
5
1 0.68
15 -0.2
16 -0.2
17 -0.2
3 -0.08

> <PUBCHEM_EFFECTIVE_ROTOR_COUNT>
1

> <PUBCHEM_PHARMACOPHORE_FEATURES>
1
3 2 4 5 hydrophobe

> <PUBCHEM_HEAVY_ATOM_COUNT>
5

> <PUBCHEM_ATOM_DEF_STEREO_COUNT>
0

> <PUBCHEM_ATOM_UDEF_STEREO_COUNT>
0

> <PUBCHEM_BOND_DEF_STEREO_COUNT>
0

> <PUBCHEM_BOND_UDEF_STEREO_COUNT>
0

> <PUBCHEM_ISOTOPIC_ATOM_COUNT>
0

> <PUBCHEM_COMPONENT_COUNT>
1

> <PUBCHEM_CACTVS_TAUTO_COUNT>
1

> <PUBCHEM_CONFORMER_ID>
0440C3CC00000001

> <PUBCHEM_MMFF94_ENERGY>
5.3599

> <PUBCHEM_FEATURE_SELFOVERLAP>
5.074

> <PUBCHEM_SHAPE_FINGERPRINT>
139733 1 8790583919566273999
14390081 3 18272649056504845017
16714656 1 18339364191998797693
20096714 4 18342460352207420013
21040471 1 18337675333485237110
23552333 60 18271526390729111747
23552449 11 17970052362408061011
24536 1 18265605503407307705
29004967 10 18259991470087315785
5460574 1 8718834184547321261
5943 1 14391968215454818598

> <PUBCHEM_SHAPE_MULTIPOLES>
121.11
3.17
1.25
0.76
1.08
0.38
-0.02
-0.38
-0.1
-0.3
0.07
0.2
-0.01
-0.05

> <PUBCHEM_SHAPE_SELFOVERLAP>
191.728

> <PUBCHEM_SHAPE_VOLUME>
89

> <PUBCHEM_COORDINATE_TYPE>
2
5
10

$$$$
