100119
  -OEChem-11012401143D

 24 23  0     1  0  0  0  0  0999 V2000
    2.5152   -0.3421   -0.8393 O   0  0  0  0  0  0  0  0  0  0  0  0
    1.9804   -1.9580    0.6489 O   0  0  0  0  0  0  0  0  0  0  0  0
    1.1037    2.3740    0.9545 O   0  0  0  0  0  0  0  0  0  0  0  0
    0.1901    0.9171   -0.6310 N   0  0  0  0  0  0  0  0  0  0  0  0
   -2.3064   -0.7295   -0.1078 C   0  0  0  0  0  0  0  0  0  0  0  0
   -0.8646   -1.2778   -0.2078 C   0  0  0  0  0  0  0  0  0  0  0  0
    0.2889   -0.3141    0.1090 C   0  0  1  0  0  0  0  0  0  0  0  0
   -2.5559   -0.2223    1.3175 C   0  0  0  0  0  0  0  0  0  0  0  0
   -2.6131    0.3860   -1.1044 C   0  0  0  0  0  0  0  0  0  0  0  0
    1.6562   -0.9701   -0.0013 C   0  0  0  0  0  0  0  0  0  0  0  0
    0.6055    2.1370   -0.1384 C   0  0  0  0  0  0  0  0  0  0  0  0
   -2.9896   -1.5648   -0.3074 H   0  0  0  0  0  0  0  0  0  0  0  0
   -0.7221   -1.6647   -1.2266 H   0  0  0  0  0  0  0  0  0  0  0  0
   -0.7792   -2.1548    0.4482 H   0  0  0  0  0  0  0  0  0  0  0  0
    0.2213   -0.0359    1.1692 H   0  0  0  0  0  0  0  0  0  0  0  0
   -2.3209   -0.9965    2.0555 H   0  0  0  0  0  0  0  0  0  0  0  0
   -1.9633    0.6676    1.5522 H   0  0  0  0  0  0  0  0  0  0  0  0
   -3.6109    0.0448    1.4440 H   0  0  0  0  0  0  0  0  0  0  0  0
   -2.2320    1.3622   -0.7944 H   0  0  0  0  0  0  0  0  0  0  0  0
   -2.2349    0.1456   -2.1029 H   0  0  0  0  0  0  0  0  0  0  0  0
   -3.6999    0.5035   -1.1933 H   0  0  0  0  0  0  0  0  0  0  0  0
   -0.0834    0.8705   -1.6081 H   0  0  0  0  0  0  0  0  0  0  0  0
    0.4505    2.9295   -0.8890 H   0  0  0  0  0  0  0  0  0  0  0  0
    3.3920   -0.7813   -0.8626 H   0  0  0  0  0  0  0  0  0  0  0  0
  1 10  1  0  0  0  0
  1 24  1  0  0  0  0
  2 10  2  0  0  0  0
  3 11  2  0  0  0  0
  4  7  1  0  0  0  0
  4 11  1  0  0  0  0
  4 22  1  0  0  0  0
  5  6  1  0  0  0  0
  5  8  1  0  0  0  0
  5  9  1  0  0  0  0
  5 12  1  0  0  0  0
  6  7  1  0  0  0  0
  6 13  1  0  0  0  0
  6 14  1  0  0  0  0
  7 10  1  0  0  0  0
  7 15  1  0  0  0  0
  8 16  1  0  0  0  0
  8 17  1  0  0  0  0
  8 18  1  0  0  0  0
  9 19  1  0  0  0  0
  9 20  1  0  0  0  0
  9 21  1  0  0  0  0
 11 23  1  0  0  0  0
M  END
> <PUBCHEM_COMPOUND_CID>
100119

> <PUBCHEM_CONFORMER_RMSD>
0.6

> <PUBCHEM_CONFORMER_DIVERSEORDER>
2
6
13
10
3
1
12
11
18
9
8
14
16
15
5
17
4
7

> <PUBCHEM_MMFF94_PARTIAL_CHARGES>
10
1 -0.65
10 0.66
11 0.57
2 -0.57
22 0.37
23 0.06
24 0.5
3 -0.57
4 -0.73
7 0.36

> <PUBCHEM_EFFECTIVE_ROTOR_COUNT>
5

> <PUBCHEM_PHARMACOPHORE_FEATURES>
6
1 1 acceptor
1 2 acceptor
1 3 acceptor
1 4 donor
3 1 2 10 anion
3 5 8 9 hydrophobe

> <PUBCHEM_HEAVY_ATOM_COUNT>
11

> <PUBCHEM_ATOM_DEF_STEREO_COUNT>
0

> <PUBCHEM_ATOM_UDEF_STEREO_COUNT>
1

> <PUBCHEM_BOND_DEF_STEREO_COUNT>
0

> <PUBCHEM_BOND_UDEF_STEREO_COUNT>
0

> <PUBCHEM_ISOTOPIC_ATOM_COUNT>
0

> <PUBCHEM_COMPONENT_COUNT>
1

> <PUBCHEM_CACTVS_TAUTO_COUNT>
2

> <PUBCHEM_CONFORMER_ID>
0001871700000002

> <PUBCHEM_MMFF94_ENERGY>
17.7275

> <PUBCHEM_FEATURE_SELFOVERLAP>
30.507

> <PUBCHEM_SHAPE_FINGERPRINT>
10130415 120 18043241345357952419
16945 1 18410011056683474303
20653091 64 18271529817796652067
20711985 344 17767139609015848670
21040471 1 17472420327538071380
23552423 10 18267019655712564775
29004967 10 18186527591723764738
5084963 1 17977674434778244709
63268167 104 18410576197202078947
81228 2 17906733596672478688

> <PUBCHEM_SHAPE_MULTIPOLES>
203.79
3.67
2.14
1.07
1.23
1.04
-0.12
-0.84
0.08
-1.45
-0.42
0.47
0.15
0.22

> <PUBCHEM_SHAPE_SELFOVERLAP>
383.333

> <PUBCHEM_SHAPE_VOLUME>
125.9

> <PUBCHEM_COORDINATE_TYPE>
2
5
10

$$$$
