142134
  -OEChem-11012400423D

 12 11  0     0  0  0  0  0  0999 V2000
   -2.1076    1.2238   -1.4333 Cl  0  0  0  0  0  0  0  0  0  0  0  0
   -2.1099    1.1638    1.4801 Cl  0  0  0  0  0  0  0  0  0  0  0  0
    3.0446    1.4770    0.0057 Cl  0  0  0  0  0  0  0  0  0  0  0  0
   -0.2691   -1.1930    1.0693 F   0  0  0  0  0  0  0  0  0  0  0  0
   -0.2678   -1.1520   -1.1142 F   0  0  0  0  0  0  0  0  0  0  0  0
   -2.7211   -0.8180   -0.0187 F   0  0  0  0  0  0  0  0  0  0  0  0
    2.1104   -0.6501    1.0939 F   0  0  0  0  0  0  0  0  0  0  0  0
    2.0965   -0.6364   -1.0969 F   0  0  0  0  0  0  0  0  0  0  0  0
    0.5742    0.6275    0.0139 O   0  0  0  0  0  0  0  0  0  0  0  0
   -0.4282   -0.3830   -0.0078 C   0  0  0  0  0  0  0  0  0  0  0  0
   -1.8278    0.2100    0.0033 C   0  0  0  0  0  0  0  0  0  0  0  0
    1.9058    0.1303    0.0047 C   0  0  0  0  0  0  0  0  0  0  0  0
  1 11  1  0  0  0  0
  2 11  1  0  0  0  0
  3 12  1  0  0  0  0
  4 10  1  0  0  0  0
  5 10  1  0  0  0  0
  6 11  1  0  0  0  0
  7 12  1  0  0  0  0
  8 12  1  0  0  0  0
  9 10  1  0  0  0  0
  9 12  1  0  0  0  0
 10 11  1  0  0  0  0
M  END
> <PUBCHEM_COMPOUND_CID>
142134

> <PUBCHEM_CONFORMER_RMSD>
0.6

> <PUBCHEM_CONFORMER_DIVERSEORDER>
1
10
11
12
2
4
5
3
7
9
6
8

> <PUBCHEM_MMFF94_PARTIAL_CHARGES>
12
1 -0.29
10 0.96
11 0.92
12 1.25
2 -0.29
3 -0.29
4 -0.34
5 -0.34
6 -0.34
7 -0.34
8 -0.34
9 -0.56

> <PUBCHEM_EFFECTIVE_ROTOR_COUNT>
3

> <PUBCHEM_PHARMACOPHORE_FEATURES>
1
1 9 acceptor

> <PUBCHEM_HEAVY_ATOM_COUNT>
12

> <PUBCHEM_ATOM_DEF_STEREO_COUNT>
0

> <PUBCHEM_ATOM_UDEF_STEREO_COUNT>
0

> <PUBCHEM_BOND_DEF_STEREO_COUNT>
0

> <PUBCHEM_BOND_UDEF_STEREO_COUNT>
0

> <PUBCHEM_ISOTOPIC_ATOM_COUNT>
0

> <PUBCHEM_COMPONENT_COUNT>
1

> <PUBCHEM_CACTVS_TAUTO_COUNT>
1

> <PUBCHEM_CONFORMER_ID>
00022B3600000001

> <PUBCHEM_MMFF94_ENERGY>
6.0302

> <PUBCHEM_FEATURE_SELFOVERLAP>
5.074

> <PUBCHEM_SHAPE_FINGERPRINT>
10857977 72 15357988887953070969
12897270 3 16200136712366347653
12932764 1 18113625546980301388
13024252 1 16081641279305102021
14390081 3 18040990743697795956
15310529 11 18260536857539564620
15775835 57 18260828189535103141
16945 1 18194682562081922503
19973954 147 17988371394263058944
20645464 45 18333453166201480392
20653085 51 17630911346499831049
21028194 46 18333730230072652756
21040471 1 17675924291836960986
23211744 41 18261111854923795455
23235685 24 17846219994099614812
23552423 10 17917159286022669670
3248919 1 18060132111608261452
369184 2 18113892775587460017
5084963 1 18407760343649515213
8030462 33 17203323394850205020

> <PUBCHEM_SHAPE_MULTIPOLES>
210.33
4.27
1.4
1.33
1.57
0.21
0.03
1.4
0.05
0.06
-0.01
-0.65
0.2
0.02

> <PUBCHEM_SHAPE_SELFOVERLAP>
392.494

> <PUBCHEM_SHAPE_VOLUME>
134.2

> <PUBCHEM_COORDINATE_TYPE>
2
5
10

$$$$
