7491
  -OEChem-11012401103D

 22 22  0     0  0  0  0  0  0999 V2000
    3.4410    1.0883   -0.1501 O   0  5  0  0  0  0  0  0  0  0  0  0
    3.4421   -1.0868    0.1476 O   0  0  0  0  0  0  0  0  0  0  0  0
   -2.7866   -0.0013    0.0029 N   0  0  0  0  0  0  0  0  0  0  0  0
    2.8334    0.0005   -0.0009 N   0  3  0  0  0  0  0  0  0  0  0  0
   -1.3763   -0.0008    0.0022 C   0  0  0  0  0  0  0  0  0  0  0  0
   -0.6794    1.1963   -0.1618 C   0  0  0  0  0  0  0  0  0  0  0  0
   -0.6784   -1.1976    0.1651 C   0  0  0  0  0  0  0  0  0  0  0  0
    1.4135    0.0000    0.0002 C   0  0  0  0  0  0  0  0  0  0  0  0
    0.7154    1.1966   -0.1628 C   0  0  0  0  0  0  0  0  0  0  0  0
    0.7165   -1.1972    0.1641 C   0  0  0  0  0  0  0  0  0  0  0  0
   -3.5208    1.1554    0.4759 C   0  0  0  0  0  0  0  0  0  0  0  0
   -3.5204   -1.1533   -0.4825 C   0  0  0  0  0  0  0  0  0  0  0  0
   -1.1926    2.1433   -0.3030 H   0  0  0  0  0  0  0  0  0  0  0  0
   -1.1912   -2.1447    0.3069 H   0  0  0  0  0  0  0  0  0  0  0  0
    1.2253    2.1475   -0.2957 H   0  0  0  0  0  0  0  0  0  0  0  0
    1.2272   -2.1478    0.2962 H   0  0  0  0  0  0  0  0  0  0  0  0
   -3.0697    1.5741    1.3827 H   0  0  0  0  0  0  0  0  0  0  0  0
   -4.5528    0.8902    0.7320 H   0  0  0  0  0  0  0  0  0  0  0  0
   -3.5619    1.9312   -0.2958 H   0  0  0  0  0  0  0  0  0  0  0  0
   -3.0705   -1.5599   -1.3953 H   0  0  0  0  0  0  0  0  0  0  0  0
   -4.5536   -0.8874   -0.7322 H   0  0  0  0  0  0  0  0  0  0  0  0
   -3.5579   -1.9387    0.2797 H   0  0  0  0  0  0  0  0  0  0  0  0
  1  4  1  0  0  0  0
  2  4  2  0  0  0  0
  3  5  1  0  0  0  0
  3 11  1  0  0  0  0
  3 12  1  0  0  0  0
  4  8  1  0  0  0  0
  5  6  2  0  0  0  0
  5  7  1  0  0  0  0
  6  9  1  0  0  0  0
  6 13  1  0  0  0  0
  7 10  2  0  0  0  0
  7 14  1  0  0  0  0
  8  9  2  0  0  0  0
  8 10  1  0  0  0  0
  9 15  1  0  0  0  0
 10 16  1  0  0  0  0
 11 17  1  0  0  0  0
 11 18  1  0  0  0  0
 11 19  1  0  0  0  0
 12 20  1  0  0  0  0
 12 21  1  0  0  0  0
 12 22  1  0  0  0  0
M  CHG  2   1  -1   4   1
M  END
> <PUBCHEM_COMPOUND_CID>
7491

> <PUBCHEM_CONFORMER_RMSD>
0.6

> <PUBCHEM_CONFORMER_DIVERSEORDER>
1
2

> <PUBCHEM_MMFF94_PARTIAL_CHARGES>
16
1 -0.52
10 -0.15
11 0.37
12 0.37
13 0.15
14 0.15
15 0.15
16 0.15
2 -0.52
3 -0.84
4 0.91
5 0.1
6 -0.15
7 -0.15
8 0.13
9 -0.15

> <PUBCHEM_EFFECTIVE_ROTOR_COUNT>
2

> <PUBCHEM_PHARMACOPHORE_FEATURES>
5
1 1 acceptor
1 1 anion
1 2 acceptor
1 3 cation
6 5 6 7 8 9 10 rings

> <PUBCHEM_HEAVY_ATOM_COUNT>
12

> <PUBCHEM_ATOM_DEF_STEREO_COUNT>
0

> <PUBCHEM_ATOM_UDEF_STEREO_COUNT>
0

> <PUBCHEM_BOND_DEF_STEREO_COUNT>
0

> <PUBCHEM_BOND_UDEF_STEREO_COUNT>
0

> <PUBCHEM_ISOTOPIC_ATOM_COUNT>
0

> <PUBCHEM_COMPONENT_COUNT>
1

> <PUBCHEM_CACTVS_TAUTO_COUNT>
1

> <PUBCHEM_CONFORMER_ID>
00001D4300000001

> <PUBCHEM_MMFF94_ENERGY>
49.2177

> <PUBCHEM_FEATURE_SELFOVERLAP>
25.453

> <PUBCHEM_SHAPE_FINGERPRINT>
10130415 120 18333445431007487632
10219947 1 18259987067376539733
11062470 55 18273216399903608065
11132069 177 18412256207877300961
11806522 49 18267297815132739527
12032990 46 18408891740988149547
12932764 1 17240756268259880979
14144814 61 18409166623268870427
14325111 11 18410856568235018409
14993402 34 18409448123941583935
15775835 57 18411985745529091993
16945 1 17385442124340055811
18186145 218 18335139769567001916
19026448 4 16487256573146881280
193761 8 17544191580200635249
19422 9 18413390933994671303
23235685 24 18408600361811332705
23402539 116 18342166752880748982
23402655 69 18267287752583768517
23463225 33 18335981974125759066
2748010 2 17975699711689017535
528886 8 18410851045228835819

> <PUBCHEM_SHAPE_MULTIPOLES>
225.25
5.99
1.51
0.64
0.2
0
0
0
-0.01
-0.22
0
-0.18
0
-0.43

> <PUBCHEM_SHAPE_SELFOVERLAP>
463.94

> <PUBCHEM_SHAPE_VOLUME>
131.6

> <PUBCHEM_COORDINATE_TYPE>
2
5
10

$$$$
