20252
  -OEChem-11012401043D

 22 21  0     0  0  0  0  0  0999 V2000
    0.0046   -0.5830    0.4824 S   0  0  0  0  0  0  0  0  0  0  0  0
    0.0010   -1.7821   -0.4138 O   0  0  0  0  0  0  0  0  0  0  0  0
   -1.3430    0.5055   -0.0726 C   0  0  0  0  0  0  0  0  0  0  0  0
    1.3408    0.5062   -0.0631 C   0  0  0  0  0  0  0  0  0  0  0  0
   -2.6973   -0.1162    0.2367 C   0  0  0  0  0  0  0  0  0  0  0  0
    2.6970   -0.1082    0.2523 C   0  0  0  0  0  0  0  0  0  0  0  0
   -3.8351    0.7908   -0.2035 C   0  0  0  0  0  0  0  0  0  0  0  0
    3.8320    0.7869   -0.2184 C   0  0  0  0  0  0  0  0  0  0  0  0
   -1.2372    1.4643    0.4454 H   0  0  0  0  0  0  0  0  0  0  0  0
   -1.2320    0.6737   -1.1489 H   0  0  0  0  0  0  0  0  0  0  0  0
    1.2362    0.6740   -1.1402 H   0  0  0  0  0  0  0  0  0  0  0  0
    1.2317    1.4665    0.4513 H   0  0  0  0  0  0  0  0  0  0  0  0
   -2.7951   -1.0845   -0.2688 H   0  0  0  0  0  0  0  0  0  0  0  0
   -2.7880   -0.3099    1.3124 H   0  0  0  0  0  0  0  0  0  0  0  0
    2.7944   -0.2761    1.3317 H   0  0  0  0  0  0  0  0  0  0  0  0
    2.7929   -1.0882   -0.2307 H   0  0  0  0  0  0  0  0  0  0  0  0
   -4.7997    0.3276    0.0265 H   0  0  0  0  0  0  0  0  0  0  0  0
   -3.7901    1.7553    0.3123 H   0  0  0  0  0  0  0  0  0  0  0  0
   -3.7953    0.9750   -1.2818 H   0  0  0  0  0  0  0  0  0  0  0  0
    4.7980    0.3300    0.0178 H   0  0  0  0  0  0  0  0  0  0  0  0
    3.7857    0.9429   -1.3009 H   0  0  0  0  0  0  0  0  0  0  0  0
    3.7899    1.7646    0.2723 H   0  0  0  0  0  0  0  0  0  0  0  0
  1  2  2  0  0  0  0
  1  3  1  0  0  0  0
  1  4  1  0  0  0  0
  3  5  1  0  0  0  0
  3  9  1  0  0  0  0
  3 10  1  0  0  0  0
  4  6  1  0  0  0  0
  4 11  1  0  0  0  0
  4 12  1  0  0  0  0
  5  7  1  0  0  0  0
  5 13  1  0  0  0  0
  5 14  1  0  0  0  0
  6  8  1  0  0  0  0
  6 15  1  0  0  0  0
  6 16  1  0  0  0  0
  7 17  1  0  0  0  0
  7 18  1  0  0  0  0
  7 19  1  0  0  0  0
  8 20  1  0  0  0  0
  8 21  1  0  0  0  0
  8 22  1  0  0  0  0
M  END
> <PUBCHEM_COMPOUND_CID>
20252

> <PUBCHEM_CONFORMER_RMSD>
0.6

> <PUBCHEM_CONFORMER_DIVERSEORDER>
1
23
7
34
32
36
9
20
2
17
31
33
3
30
6
18
11
35
10
5
14
16
24
15
26
28
29
27
25
8
19
13
21
12
22
4

> <PUBCHEM_MMFF94_PARTIAL_CHARGES>
4
1 0.11
2 -0.5
3 0.19
4 0.19

> <PUBCHEM_EFFECTIVE_ROTOR_COUNT>
4

> <PUBCHEM_PHARMACOPHORE_FEATURES>
3
1 2 acceptor
1 7 hydrophobe
1 8 hydrophobe

> <PUBCHEM_HEAVY_ATOM_COUNT>
8

> <PUBCHEM_ATOM_DEF_STEREO_COUNT>
0

> <PUBCHEM_ATOM_UDEF_STEREO_COUNT>
0

> <PUBCHEM_BOND_DEF_STEREO_COUNT>
0

> <PUBCHEM_BOND_UDEF_STEREO_COUNT>
0

> <PUBCHEM_ISOTOPIC_ATOM_COUNT>
0

> <PUBCHEM_COMPONENT_COUNT>
1

> <PUBCHEM_CACTVS_TAUTO_COUNT>
1

> <PUBCHEM_CONFORMER_ID>
00004F1C00000001

> <PUBCHEM_MMFF94_ENERGY>
-3.4063

> <PUBCHEM_FEATURE_SELFOVERLAP>
15.223

> <PUBCHEM_SHAPE_FINGERPRINT>
10219947 1 18260550000160686821
11062470 55 18409167709785060296
14325111 11 18409729564521574274
14390081 3 18411980226622769177
15775835 57 18335420175028290336
170605 34 18334294236477408643
177051 138 10015592700872800640
18342897 55 18341600513014047045
20211469 26 10303823076871323732
21119208 17 15770058323877440505
21293036 1 18130787875512719776
23235685 24 18411132537090100833
366044 4 18411981373115332034

> <PUBCHEM_SHAPE_MULTIPOLES>
162.62
6.63
1.18
0.69
0.02
0.4
0.03
-2.7
-0.32
0
-0.16
0
0.05
-0.01

> <PUBCHEM_SHAPE_SELFOVERLAP>
271.08

> <PUBCHEM_SHAPE_VOLUME>
111.5

> <PUBCHEM_COORDINATE_TYPE>
2
5
10

$$$$
