16224
  -OEChem-11012400593D

 34 33  0     0  0  0  0  0  0999 V2000
    3.9789   -0.1172   -0.3070 N   0  0  0  0  0  0  0  0  0  0  0  0
   -0.9958   -0.2337   -0.2046 C   0  0  0  0  0  0  0  0  0  0  0  0
    0.2604    0.5562    0.1693 C   0  0  0  0  0  0  0  0  0  0  0  0
   -2.2972    0.4628    0.2062 C   0  0  0  0  0  0  0  0  0  0  0  0
    1.5299   -0.1943   -0.2419 C   0  0  0  0  0  0  0  0  0  0  0  0
   -3.5530   -0.3169   -0.1922 C   0  0  0  0  0  0  0  0  0  0  0  0
    2.7827    0.6104    0.1002 C   0  0  0  0  0  0  0  0  0  0  0  0
   -4.8498    0.3507    0.2731 C   0  0  0  0  0  0  0  0  0  0  0  0
   -6.1030   -0.4045   -0.1420 C   0  0  0  0  0  0  0  0  0  0  0  0
    4.0682   -1.3973    0.3976 C   0  0  0  0  0  0  0  0  0  0  0  0
    5.1788    0.6837   -0.0587 C   0  0  0  0  0  0  0  0  0  0  0  0
   -0.9570   -1.2228    0.2685 H   0  0  0  0  0  0  0  0  0  0  0  0
   -1.0070   -0.4017   -1.2887 H   0  0  0  0  0  0  0  0  0  0  0  0
    0.2336    1.5361   -0.3225 H   0  0  0  0  0  0  0  0  0  0  0  0
    0.2719    0.7366    1.2510 H   0  0  0  0  0  0  0  0  0  0  0  0
   -2.3333    1.4596   -0.2501 H   0  0  0  0  0  0  0  0  0  0  0  0
   -2.2945    0.6118    1.2931 H   0  0  0  0  0  0  0  0  0  0  0  0
    1.5113   -1.1560    0.2811 H   0  0  0  0  0  0  0  0  0  0  0  0
    1.5019   -0.4036   -1.3187 H   0  0  0  0  0  0  0  0  0  0  0  0
   -3.4999   -1.3279    0.2302 H   0  0  0  0  0  0  0  0  0  0  0  0
   -3.5750   -0.4300   -1.2830 H   0  0  0  0  0  0  0  0  0  0  0  0
    2.8009    0.8398    1.1739 H   0  0  0  0  0  0  0  0  0  0  0  0
    2.7356    1.5680   -0.4339 H   0  0  0  0  0  0  0  0  0  0  0  0
   -4.9001    1.3680   -0.1333 H   0  0  0  0  0  0  0  0  0  0  0  0
   -4.8382    0.4450    1.3655 H   0  0  0  0  0  0  0  0  0  0  0  0
   -6.1054   -1.4158    0.2768 H   0  0  0  0  0  0  0  0  0  0  0  0
   -6.1676   -0.4838   -1.2318 H   0  0  0  0  0  0  0  0  0  0  0  0
   -6.9969    0.1154    0.2161 H   0  0  0  0  0  0  0  0  0  0  0  0
    5.0419   -1.8672    0.2109 H   0  0  0  0  0  0  0  0  0  0  0  0
    3.3349   -2.1203    0.0284 H   0  0  0  0  0  0  0  0  0  0  0  0
    3.9568   -1.2884    1.4826 H   0  0  0  0  0  0  0  0  0  0  0  0
    5.1306    1.6305   -0.6084 H   0  0  0  0  0  0  0  0  0  0  0  0
    6.0727    0.1609   -0.4169 H   0  0  0  0  0  0  0  0  0  0  0  0
    5.3127    0.9087    1.0056 H   0  0  0  0  0  0  0  0  0  0  0  0
  1  7  1  0  0  0  0
  1 10  1  0  0  0  0
  1 11  1  0  0  0  0
  2  3  1  0  0  0  0
  2  4  1  0  0  0  0
  2 12  1  0  0  0  0
  2 13  1  0  0  0  0
  3  5  1  0  0  0  0
  3 14  1  0  0  0  0
  3 15  1  0  0  0  0
  4  6  1  0  0  0  0
  4 16  1  0  0  0  0
  4 17  1  0  0  0  0
  5  7  1  0  0  0  0
  5 18  1  0  0  0  0
  5 19  1  0  0  0  0
  6  8  1  0  0  0  0
  6 20  1  0  0  0  0
  6 21  1  0  0  0  0
  7 22  1  0  0  0  0
  7 23  1  0  0  0  0
  8  9  1  0  0  0  0
  8 24  1  0  0  0  0
  8 25  1  0  0  0  0
  9 26  1  0  0  0  0
  9 27  1  0  0  0  0
  9 28  1  0  0  0  0
 10 29  1  0  0  0  0
 10 30  1  0  0  0  0
 10 31  1  0  0  0  0
 11 32  1  0  0  0  0
 11 33  1  0  0  0  0
 11 34  1  0  0  0  0
M  END
> <PUBCHEM_COMPOUND_CID>
16224

> <PUBCHEM_CONFORMER_RMSD>
0.6

> <PUBCHEM_CONFORMER_DIVERSEORDER>
1
83
136
99
137
176
151
160
125
28
135
108
2
67
19
52
170
55
103
171
144
181
10
81
29
25
200
89
58
48
116
69
6
149
115
70
14
3
155
35
93
195
87
164
12
105
159
31
205
119
147
201
27
33
173
60
130
188
163
211
208
82
77
11
206
179
22
152
96
134
17
203
46
90
113
26
73
140
49
122
23
146
62
138
182
75
66
156
177
167
20
40
157
142
141
184
128
4
51
158
39
210
72
95
106
64
76
54
168
5
109
68
44
74
175
202
9
94
165
209
102
41
123
59
16
30
212
127
187
154
84
50
148
21
117
78
104
110
145
91
207
18
79
112
174
162
53
198
189
121
204
8
131
63
132
169
61
161
190
13
129
80
15
213
56
86
197
65
192
36
194
133
193
186
37
126
101
38
124
92
71
42
98
111
47
139
32
43
143
199
24
114
166
97
153
107
118
7
172
180
85
185
34
178
88
183
150
45
196
191
100
120
57

> <PUBCHEM_MMFF94_PARTIAL_CHARGES>
4
1 -0.81
10 0.27
11 0.27
7 0.27

> <PUBCHEM_EFFECTIVE_ROTOR_COUNT>
7

> <PUBCHEM_PHARMACOPHORE_FEATURES>
4
1 1 cation
1 9 hydrophobe
3 2 3 5 hydrophobe
3 4 6 8 hydrophobe

> <PUBCHEM_HEAVY_ATOM_COUNT>
11

> <PUBCHEM_ATOM_DEF_STEREO_COUNT>
0

> <PUBCHEM_ATOM_UDEF_STEREO_COUNT>
0

> <PUBCHEM_BOND_DEF_STEREO_COUNT>
0

> <PUBCHEM_BOND_UDEF_STEREO_COUNT>
0

> <PUBCHEM_ISOTOPIC_ATOM_COUNT>
0

> <PUBCHEM_COMPONENT_COUNT>
1

> <PUBCHEM_CACTVS_TAUTO_COUNT>
1

> <PUBCHEM_CONFORMER_ID>
00003F6000000001

> <PUBCHEM_MMFF94_ENERGY>
5.5914

> <PUBCHEM_FEATURE_SELFOVERLAP>
20.308

> <PUBCHEM_SHAPE_FINGERPRINT>
11287383 113 17240489138516214937
114248 4 17457782292924428905
12815109 37 18411982468352922573
13533116 47 18341892948747823258
14123238 8 18202002131468696709
1420 363 17385449821565002819
14251718 22 18040998466402142595
15242433 33 18410856572741261702
17834072 33 18342454867792496519
17834076 25 18410856572529979212
20645477 70 18261672567727243978
20719005 15 18342739615581791917
20767249 13 17917711301442749983
22485316 2 18408321098800905722
23402539 116 18131064927448660165
366044 4 18410012147969547691
42788 4 18413952788873876333
522135 26 18334858312223762882
5374978 207 18060132133510333832
57483677 66 18408882949670194523
8209 1 18413388744183758101

> <PUBCHEM_SHAPE_MULTIPOLES>
221.39
14.1
0.96
0.66
7.65
0.19
0.01
1
0.03
-0.85
0.08
0
0.02
-0.31

> <PUBCHEM_SHAPE_SELFOVERLAP>
390.143

> <PUBCHEM_SHAPE_VOLUME>
146.1

> <PUBCHEM_COORDINATE_TYPE>
2
5
10

$$$$
