101834212
  -OEChem-11012400463D

 40 41  0     1  0  0  0  0  0999 V2000
   -0.3714    0.5000   -0.3579 C   0  0  1  0  0  0  0  0  0  0  0  0
    1.0158    0.0974    0.1445 C   0  0  0  0  0  0  0  0  0  0  0  0
   -1.3531   -0.6945   -0.4419 C   0  0  2  0  0  0  0  0  0  0  0  0
   -0.9351    1.6538    0.4862 C   0  0  0  0  0  0  0  0  0  0  0  0
   -2.7302   -0.2125   -0.9318 C   0  0  0  0  0  0  0  0  0  0  0  0
    1.9377    1.3213    0.2297 C   0  0  0  0  0  0  0  0  0  0  0  0
    1.6258   -0.9845   -0.7570 C   0  0  0  0  0  0  0  0  0  0  0  0
   -2.3087    2.0988   -0.0092 C   0  0  0  0  0  0  0  0  0  0  0  0
   -3.2906    0.9357   -0.0955 C   0  0  0  0  0  0  0  0  0  0  0  0
   -1.4857   -1.4829    0.8668 C   0  0  0  0  0  0  0  0  0  0  0  0
    3.3457    0.9364    0.6784 C   0  0  0  0  0  0  0  0  0  0  0  0
    3.0342   -1.3655   -0.3065 C   0  0  0  0  0  0  0  0  0  0  0  0
    3.9452   -0.1453   -0.2146 C   0  0  0  0  0  0  0  0  0  0  0  0
   -2.4295   -2.6582    0.7087 C   0  0  0  0  0  0  0  0  0  0  0  0
   -0.2568    0.8871   -1.3821 H   0  0  0  0  0  0  0  0  0  0  0  0
    0.9381   -0.3031    1.1634 H   0  0  0  0  0  0  0  0  0  0  0  0
   -0.9932   -1.3864   -1.2140 H   0  0  0  0  0  0  0  0  0  0  0  0
   -0.3012    2.5433    0.4303 H   0  0  0  0  0  0  0  0  0  0  0  0
   -0.9978    1.3657    1.5423 H   0  0  0  0  0  0  0  0  0  0  0  0
   -3.4622   -1.0222   -0.9984 H   0  0  0  0  0  0  0  0  0  0  0  0
   -2.6142    0.1481   -1.9636 H   0  0  0  0  0  0  0  0  0  0  0  0
    1.5777    2.0479    0.9639 H   0  0  0  0  0  0  0  0  0  0  0  0
    1.9897    1.8284   -0.7419 H   0  0  0  0  0  0  0  0  0  0  0  0
    1.6621   -0.6321   -1.7957 H   0  0  0  0  0  0  0  0  0  0  0  0
    1.0258   -1.8994   -0.7488 H   0  0  0  0  0  0  0  0  0  0  0  0
   -2.2056    2.5595   -0.9997 H   0  0  0  0  0  0  0  0  0  0  0  0
   -2.7098    2.8701    0.6583 H   0  0  0  0  0  0  0  0  0  0  0  0
   -3.5351    0.5820    0.9126 H   0  0  0  0  0  0  0  0  0  0  0  0
   -4.2291    1.2861   -0.5406 H   0  0  0  0  0  0  0  0  0  0  0  0
   -0.5140   -1.8915    1.1618 H   0  0  0  0  0  0  0  0  0  0  0  0
   -1.8251   -0.8503    1.6934 H   0  0  0  0  0  0  0  0  0  0  0  0
    3.3142    0.5772    1.7146 H   0  0  0  0  0  0  0  0  0  0  0  0
    3.9914    1.8219    0.6675 H   0  0  0  0  0  0  0  0  0  0  0  0
    3.4616   -2.0916   -1.0071 H   0  0  0  0  0  0  0  0  0  0  0  0
    2.9835   -1.8578    0.6726 H   0  0  0  0  0  0  0  0  0  0  0  0
    4.9247   -0.4446    0.1749 H   0  0  0  0  0  0  0  0  0  0  0  0
    4.1113    0.2621   -1.2195 H   0  0  0  0  0  0  0  0  0  0  0  0
   -3.4771   -2.3452    0.6813 H   0  0  0  0  0  0  0  0  0  0  0  0
   -2.3288   -3.3290    1.5693 H   0  0  0  0  0  0  0  0  0  0  0  0
   -2.2073   -3.2409   -0.1909 H   0  0  0  0  0  0  0  0  0  0  0  0
  1  2  1  0  0  0  0
  1  3  1  0  0  0  0
  1  4  1  0  0  0  0
  1 15  1  0  0  0  0
  2  6  1  0  0  0  0
  2  7  1  0  0  0  0
  2 16  1  0  0  0  0
  3  5  1  0  0  0  0
  3 10  1  0  0  0  0
  3 17  1  0  0  0  0
  4  8  1  0  0  0  0
  4 18  1  0  0  0  0
  4 19  1  0  0  0  0
  5  9  1  0  0  0  0
  5 20  1  0  0  0  0
  5 21  1  0  0  0  0
  6 11  1  0  0  0  0
  6 22  1  0  0  0  0
  6 23  1  0  0  0  0
  7 12  1  0  0  0  0
  7 24  1  0  0  0  0
  7 25  1  0  0  0  0
  8  9  1  0  0  0  0
  8 26  1  0  0  0  0
  8 27  1  0  0  0  0
  9 28  1  0  0  0  0
  9 29  1  0  0  0  0
 10 14  1  0  0  0  0
 10 30  1  0  0  0  0
 10 31  1  0  0  0  0
 11 13  1  0  0  0  0
 11 32  1  0  0  0  0
 11 33  1  0  0  0  0
 12 13  1  0  0  0  0
 12 34  1  0  0  0  0
 12 35  1  0  0  0  0
 13 36  1  0  0  0  0
 13 37  1  0  0  0  0
 14 38  1  0  0  0  0
 14 39  1  0  0  0  0
 14 40  1  0  0  0  0
M  END
> <PUBCHEM_COMPOUND_CID>
101834212

> <PUBCHEM_CONFORMER_RMSD>
0.6

> <PUBCHEM_CONFORMER_DIVERSEORDER>
1
9
11
10
6
7
5
2
3
8
4

> <PUBCHEM_MMFF94_PARTIAL_CHARGES>
0

> <PUBCHEM_EFFECTIVE_ROTOR_COUNT>
4.4

> <PUBCHEM_PHARMACOPHORE_FEATURES>
3
1 14 hydrophobe
6 1 3 4 5 8 9 rings
6 2 6 7 11 12 13 rings

> <PUBCHEM_HEAVY_ATOM_COUNT>
14

> <PUBCHEM_ATOM_DEF_STEREO_COUNT>
2

> <PUBCHEM_ATOM_UDEF_STEREO_COUNT>
0

> <PUBCHEM_BOND_DEF_STEREO_COUNT>
0

> <PUBCHEM_BOND_UDEF_STEREO_COUNT>
0

> <PUBCHEM_ISOTOPIC_ATOM_COUNT>
0

> <PUBCHEM_COMPONENT_COUNT>
1

> <PUBCHEM_CACTVS_TAUTO_COUNT>
1

> <PUBCHEM_CONFORMER_ID>
0611DDE400000001

> <PUBCHEM_MMFF94_ENERGY>
19.5001

> <PUBCHEM_FEATURE_SELFOVERLAP>
15.223

> <PUBCHEM_SHAPE_FINGERPRINT>
10608611 8 18342451534966920808
12491281 212 17774445966877511449
12500047 106 18262234426362794100
12716758 59 18408321073183926947
12932764 1 17560520719817124140
13024252 1 12973606625517949093
13296908 3 18411420656655719870
13380535 21 18340217322996495580
13380535 76 18341328890370637766
14115302 16 18187092749295352439
14144814 61 18339921519966726464
14325111 11 18271522001051352620
15219456 202 18341613754298032530
15279308 132 18265053539642587033
15442244 35 17983295928767705008
15775835 57 18043814190799992001
15885798 251 18044107975812713851
16945 1 18335422356940397893
17844478 74 18268999845978557490
18186145 218 18264765463391053741
19049666 15 18340774736626516922
200 152 17203320100615453380
20201158 50 18343300344952829230
20279233 1 18412543223783848906
20510252 161 18337674238279301931
20528008 55 18411695465552939468
20645477 70 17704072855124140326
20871998 184 18271811271525483639
20871998 22 17975705201148248211
21061003 4 18056205914620492001
21501502 16 18343017757627081100
21524375 3 17910677566588697765
22802520 49 18341897406564680033
23402539 116 18411970369836121645
23557571 272 18338247075368933030
23559900 14 18411416173232024298
2748010 2 18342458191949503718
305870 269 17899693462495801745
3248919 1 18334570269999515652
3312278 4 18410013260212732762
5104073 3 18342453742727363138
6049 1 18200612361819704678
6333449 129 18409730664228471779
69090 78 18201149967197401669
74978 22 18333170561527077532
75552 356 18334857237896408941
81228 2 18115597070561603291
8809292 202 18410577262406839234
9709674 26 18342739598365324606

> <PUBCHEM_SHAPE_MULTIPOLES>
288.11
6.18
2.3
0.9
3.58
0.58
0
0.06
0.14
-1.66
-0.53
-0.16
0.18
0.75

> <PUBCHEM_SHAPE_SELFOVERLAP>
571.68

> <PUBCHEM_SHAPE_VOLUME>
168.6

> <PUBCHEM_COORDINATE_TYPE>
2
5
10

$$$$
