95116
  -OEChem-11012401043D

 22 21  0     0  0  0  0  0  0999 V2000
   -0.3076    1.4453    0.9746 S   0  0  0  0  0  0  0  0  0  0  0  0
    0.3121    1.4282   -0.9843 S   0  0  0  0  0  0  0  0  0  0  0  0
   -4.8445   -0.1858   -0.8844 O   0  0  0  0  0  0  0  0  0  0  0  0
    4.8474   -0.1757    0.8796 O   0  0  0  0  0  0  0  0  0  0  0  0
   -3.8339   -1.4954    0.6714 O   0  0  0  0  0  0  0  0  0  0  0  0
    3.8299   -1.5049   -0.6550 O   0  0  0  0  0  0  0  0  0  0  0  0
   -1.6195    0.1861    0.9499 C   0  0  0  0  0  0  0  0  0  0  0  0
    1.6161    0.1749   -0.9478 C   0  0  0  0  0  0  0  0  0  0  0  0
   -2.7412    0.5475   -0.0138 C   0  0  0  0  0  0  0  0  0  0  0  0
    2.7416    0.5480    0.0070 C   0  0  0  0  0  0  0  0  0  0  0  0
   -3.8447   -0.4838   -0.0186 C   0  0  0  0  0  0  0  0  0  0  0  0
    3.8442   -0.4843    0.0215 C   0  0  0  0  0  0  0  0  0  0  0  0
   -1.1803   -0.7865    0.7009 H   0  0  0  0  0  0  0  0  0  0  0  0
   -2.0138    0.1002    1.9686 H   0  0  0  0  0  0  0  0  0  0  0  0
    1.1791   -0.7949   -0.6842 H   0  0  0  0  0  0  0  0  0  0  0  0
    2.0084    0.0734   -1.9659 H   0  0  0  0  0  0  0  0  0  0  0  0
   -3.1889    1.5074    0.2690 H   0  0  0  0  0  0  0  0  0  0  0  0
   -2.3813    0.6103   -1.0452 H   0  0  0  0  0  0  0  0  0  0  0  0
    3.1896    1.5034   -0.2901 H   0  0  0  0  0  0  0  0  0  0  0  0
    2.3858    0.6247    1.0388 H   0  0  0  0  0  0  0  0  0  0  0  0
   -5.5475   -0.8701   -0.8817 H   0  0  0  0  0  0  0  0  0  0  0  0
    5.5497   -0.8607    0.8836 H   0  0  0  0  0  0  0  0  0  0  0  0
  1  2  1  0  0  0  0
  1  7  1  0  0  0  0
  2  8  1  0  0  0  0
  3 11  1  0  0  0  0
  3 21  1  0  0  0  0
  4 12  1  0  0  0  0
  4 22  1  0  0  0  0
  5 11  2  0  0  0  0
  6 12  2  0  0  0  0
  7  9  1  0  0  0  0
  7 13  1  0  0  0  0
  7 14  1  0  0  0  0
  8 10  1  0  0  0  0
  8 15  1  0  0  0  0
  8 16  1  0  0  0  0
  9 11  1  0  0  0  0
  9 17  1  0  0  0  0
  9 18  1  0  0  0  0
 10 12  1  0  0  0  0
 10 19  1  0  0  0  0
 10 20  1  0  0  0  0
M  END
> <PUBCHEM_COMPOUND_CID>
95116

> <PUBCHEM_CONFORMER_RMSD>
0.8

> <PUBCHEM_CONFORMER_DIVERSEORDER>
4
59
66
116
11
70
63
78
115
95
55
62
34
53
20
97
44
104
24
16
18
37
71
69
52
90
23
26
60
61
92
93
21
31
107
88
43
99
79
122
102
84
28
15
19
5
12
117
77
120
27
51
68
119
7
113
36
30
98
75
89
86
56
38
29
118
9
108
103
40
8
25
96
112
85
49
64
114
57
50
94
32
121
73
2
83
123
74
1
13
111
87
110
14
6
41
48
109
45
65
82
54
17
91
105
80
76
10
101
58
3
72
81
106
100
33
22
47
39
46
67
42
35

> <PUBCHEM_MMFF94_PARTIAL_CHARGES>
14
1 -0.23
10 0.06
11 0.66
12 0.66
2 -0.23
21 0.5
22 0.5
3 -0.65
4 -0.65
5 -0.57
6 -0.57
7 0.23
8 0.23
9 0.06

> <PUBCHEM_EFFECTIVE_ROTOR_COUNT>
7

> <PUBCHEM_PHARMACOPHORE_FEATURES>
8
1 3 acceptor
1 4 acceptor
1 5 acceptor
1 6 acceptor
3 1 7 9 hydrophobe
3 2 8 10 hydrophobe
3 3 5 11 anion
3 4 6 12 anion

> <PUBCHEM_HEAVY_ATOM_COUNT>
12

> <PUBCHEM_ATOM_DEF_STEREO_COUNT>
0

> <PUBCHEM_ATOM_UDEF_STEREO_COUNT>
0

> <PUBCHEM_BOND_DEF_STEREO_COUNT>
0

> <PUBCHEM_BOND_UDEF_STEREO_COUNT>
0

> <PUBCHEM_ISOTOPIC_ATOM_COUNT>
0

> <PUBCHEM_COMPONENT_COUNT>
1

> <PUBCHEM_CACTVS_TAUTO_COUNT>
1

> <PUBCHEM_CONFORMER_ID>
0001738C00000004

> <PUBCHEM_MMFF94_ENERGY>
3.7386

> <PUBCHEM_FEATURE_SELFOVERLAP>
40.714

> <PUBCHEM_SHAPE_FINGERPRINT>
10726558 24 13406792216217973545
10922049 32 9295288356539230852
11132069 177 15052015658441615965
122479 349 10159684799035544812
12346645 44 11167947939568815925
12815109 37 18410853261110323905
13549 16 15791729698029127021
14252887 29 17203336598017354092
177051 138 18343589516690204388
17834072 14 18410575084663345249
17834072 8 17603577526662830541
1798214 20 18260263040521451147
18186145 218 14057003866321585373
20211469 26 18413110537112871588
20645477 70 18187088394166839428
20671657 53 17894917338361277964
20711985 327 17060625524939917505
21119208 17 17240199937120075125
21501925 9 18202285805442587960
22485316 2 18410855460128298209
22959321 60 12751246887021310403
23253445 4 17346874572163145072
23402539 116 17895187775324668453
23402655 69 12685099181073419094
3086196 2 18130511833691160089
347723 3 16008742485694353893
449060 50 11167949065113913453
9882013 296 15769777948385704528

> <PUBCHEM_SHAPE_MULTIPOLES>
231.18
9.91
1.41
1.12
0
0.03
0
-4.97
-0.02
0
0
0.01
0.21
0.2

> <PUBCHEM_SHAPE_SELFOVERLAP>
409.826

> <PUBCHEM_SHAPE_VOLUME>
150.9

> <PUBCHEM_COORDINATE_TYPE>
2
5
10

$$$$
