1340
  -OEChem-11012401093D

 19 20  0     0  0  0  0  0  0999 V2000
   -2.5013   -1.7083   -0.0005 O   0  0  0  0  0  0  0  0  0  0  0  0
    2.4828    1.6353   -0.0007 O   0  0  0  0  0  0  0  0  0  0  0  0
    2.4114   -0.6681    0.0002 N   0  0  0  0  0  0  0  0  0  0  0  0
   -0.3658   -0.5872    0.0001 C   0  0  0  0  0  0  0  0  0  0  0  0
    0.3460    0.6241    0.0002 C   0  0  0  0  0  0  0  0  0  0  0  0
   -1.7640   -0.5605    0.0001 C   0  0  0  0  0  0  0  0  0  0  0  0
    0.3609   -1.8571    0.0000 C   0  0  0  0  0  0  0  0  0  0  0  0
    1.8340    0.5940    0.0002 C   0  0  0  0  0  0  0  0  0  0  0  0
   -0.3328    1.8463    0.0001 C   0  0  0  0  0  0  0  0  0  0  0  0
   -2.4410    0.6605    0.0001 C   0  0  0  0  0  0  0  0  0  0  0  0
   -1.7276    1.8594    0.0001 C   0  0  0  0  0  0  0  0  0  0  0  0
    1.6975   -1.8386    0.0001 C   0  0  0  0  0  0  0  0  0  0  0  0
   -0.1795   -2.7961   -0.0001 H   0  0  0  0  0  0  0  0  0  0  0  0
    0.2031    2.7911    0.0001 H   0  0  0  0  0  0  0  0  0  0  0  0
   -3.5275    0.6938   -0.0001 H   0  0  0  0  0  0  0  0  0  0  0  0
    2.2867   -2.7474    0.0000 H   0  0  0  0  0  0  0  0  0  0  0  0
   -2.2601    2.8062   -0.0001 H   0  0  0  0  0  0  0  0  0  0  0  0
    3.4248   -0.7389    0.0000 H   0  0  0  0  0  0  0  0  0  0  0  0
   -3.4471   -1.4818   -0.0004 H   0  0  0  0  0  0  0  0  0  0  0  0
  1  6  1  0  0  0  0
  1 19  1  0  0  0  0
  2  8  2  0  0  0  0
  3  8  1  0  0  0  0
  3 12  1  0  0  0  0
  3 18  1  0  0  0  0
  4  5  2  0  0  0  0
  4  6  1  0  0  0  0
  4  7  1  0  0  0  0
  5  8  1  0  0  0  0
  5  9  1  0  0  0  0
  6 10  2  0  0  0  0
  7 12  2  0  0  0  0
  7 13  1  0  0  0  0
  9 11  2  0  0  0  0
  9 14  1  0  0  0  0
 10 11  1  0  0  0  0
 10 15  1  0  0  0  0
 11 17  1  0  0  0  0
 12 16  1  0  0  0  0
M  END
> <PUBCHEM_COMPOUND_CID>
1340

> <PUBCHEM_CONFORMER_RMSD>
0.4

> <PUBCHEM_CONFORMER_DIVERSEORDER>
1

> <PUBCHEM_MMFF94_PARTIAL_CHARGES>
19
1 -0.53
10 -0.15
11 -0.15
12 -0.04
13 0.15
14 0.15
15 0.15
16 0.15
17 0.15
18 0.37
19 0.45
2 -0.57
3 -0.54
4 0.03
5 0.09
6 0.08
7 -0.18
8 0.54
9 -0.15

> <PUBCHEM_EFFECTIVE_ROTOR_COUNT>
0

> <PUBCHEM_PHARMACOPHORE_FEATURES>
5
1 1 donor
1 2 acceptor
1 3 donor
6 3 4 5 7 8 12 rings
6 4 5 6 9 10 11 rings

> <PUBCHEM_HEAVY_ATOM_COUNT>
12

> <PUBCHEM_ATOM_DEF_STEREO_COUNT>
0

> <PUBCHEM_ATOM_UDEF_STEREO_COUNT>
0

> <PUBCHEM_BOND_DEF_STEREO_COUNT>
0

> <PUBCHEM_BOND_UDEF_STEREO_COUNT>
0

> <PUBCHEM_ISOTOPIC_ATOM_COUNT>
0

> <PUBCHEM_COMPONENT_COUNT>
1

> <PUBCHEM_CACTVS_TAUTO_COUNT>
6

> <PUBCHEM_CONFORMER_ID>
0000053C00000001

> <PUBCHEM_MMFF94_ENERGY>
32.1548

> <PUBCHEM_FEATURE_SELFOVERLAP>
25.397

> <PUBCHEM_SHAPE_FINGERPRINT>
10967382 1 17689998934015135301
12423570 1 16383645482568509813
12524768 44 18265337218127424535
12897270 3 18410573989446438061
16945 1 18266740168994196325
17990270 104 18268147552594609590
193761 8 18338516343895269703
19973954 147 18338800017889961154
21040471 1 18050568447716300581
21501502 16 18410856529596117521
2334 1 18410574036696339943
23552423 10 18334298647340067838
23559900 14 17910680865825435518
241688 4 18409449172008588713
25 1 16818822808844650437
2748010 2 18410856581119900959
5084963 1 18202283597734257570
528886 8 18411132519910153835
66348 1 18338516343874157757
7364860 26 18271524191832436874

> <PUBCHEM_SHAPE_MULTIPOLES>
230.23
3.49
2.34
0.59
0.04
0.08
0
-0.03
0
0.04
0
-0.02
0
0

> <PUBCHEM_SHAPE_SELFOVERLAP>
507.019

> <PUBCHEM_SHAPE_VOLUME>
123

> <PUBCHEM_COORDINATE_TYPE>
2
5
10

$$$$
