522017
  -OEChem-10312420402D

191190  0     0  0  0  0  0  0999 V2000
   21.9186    8.0000    0.0000 O   0  0  0  0  0  0  0  0  0  0  0  0
   19.3205    7.5000    0.0000 O   0  0  0  0  0  0  0  0  0  0  0  0
   20.1865    6.0000    0.0000 O   0  0  0  0  0  0  0  0  0  0  0  0
   22.7846    6.5000    0.0000 O   0  0  0  0  0  0  0  0  0  0  0  0
   18.4545    9.0000    0.0000 O   0  0  0  0  0  0  0  0  0  0  0  0
   21.0526    4.5000    0.0000 O   0  0  0  0  0  0  0  0  0  0  0  0
   30.5788    8.0000    0.0000 C   0  0  0  0  0  0  0  0  0  0  0  0
   31.4449    7.5000    0.0000 C   0  0  0  0  0  0  0  0  0  0  0  0
   10.6603    7.5000    0.0000 C   0  0  0  0  0  0  0  0  0  0  0  0
   15.8564   -1.5000    0.0000 C   0  0  0  0  0  0  0  0  0  0  0  0
    9.7942    8.0000    0.0000 C   0  0  0  0  0  0  0  0  0  0  0  0
   15.8564   -2.5000    0.0000 C   0  0  0  0  0  0  0  0  0  0  0  0
   29.7128    7.5000    0.0000 C   0  0  0  0  0  0  0  0  0  0  0  0
   32.3109    8.0000    0.0000 C   0  0  0  0  0  0  0  0  0  0  0  0
   11.5263    8.0000    0.0000 C   0  0  0  0  0  0  0  0  0  0  0  0
   16.7224   -1.0000    0.0000 C   0  0  0  0  0  0  0  0  0  0  0  0
    8.9282    7.5000    0.0000 C   0  0  0  0  0  0  0  0  0  0  0  0
   14.9904   -3.0000    0.0000 C   0  0  0  0  0  0  0  0  0  0  0  0
   28.8468    8.0000    0.0000 C   0  0  0  0  0  0  0  0  0  0  0  0
   33.1769    7.5000    0.0000 C   0  0  0  0  0  0  0  0  0  0  0  0
   12.3923    7.5000    0.0000 C   0  0  0  0  0  0  0  0  0  0  0  0
   16.7224    0.0000    0.0000 C   0  0  0  0  0  0  0  0  0  0  0  0
    8.0622    8.0000    0.0000 C   0  0  0  0  0  0  0  0  0  0  0  0
   14.9904   -4.0000    0.0000 C   0  0  0  0  0  0  0  0  0  0  0  0
   27.9808    7.5000    0.0000 C   0  0  0  0  0  0  0  0  0  0  0  0
   34.0429    8.0000    0.0000 C   0  0  0  0  0  0  0  0  0  0  0  0
   13.2583    8.0000    0.0000 C   0  0  0  0  0  0  0  0  0  0  0  0
   17.5885    0.5000    0.0000 C   0  0  0  0  0  0  0  0  0  0  0  0
    7.1962    7.5000    0.0000 C   0  0  0  0  0  0  0  0  0  0  0  0
   14.1244   -4.5000    0.0000 C   0  0  0  0  0  0  0  0  0  0  0  0
   27.1147    8.0000    0.0000 C   0  0  0  0  0  0  0  0  0  0  0  0
   34.9090    7.5000    0.0000 C   0  0  0  0  0  0  0  0  0  0  0  0
   14.1244    7.5000    0.0000 C   0  0  0  0  0  0  0  0  0  0  0  0
   17.5885    1.5000    0.0000 C   0  0  0  0  0  0  0  0  0  0  0  0
    6.3301    8.0000    0.0000 C   0  0  0  0  0  0  0  0  0  0  0  0
   14.1244   -5.5000    0.0000 C   0  0  0  0  0  0  0  0  0  0  0  0
   26.2487    7.5000    0.0000 C   0  0  0  0  0  0  0  0  0  0  0  0
   35.7750    8.0000    0.0000 C   0  0  0  0  0  0  0  0  0  0  0  0
   14.9904    8.0000    0.0000 C   0  0  0  0  0  0  0  0  0  0  0  0
   18.4545    2.0000    0.0000 C   0  0  0  0  0  0  0  0  0  0  0  0
    5.4641    7.5000    0.0000 C   0  0  0  0  0  0  0  0  0  0  0  0
   13.2583   -6.0000    0.0000 C   0  0  0  0  0  0  0  0  0  0  0  0
   25.3827    8.0000    0.0000 C   0  0  0  0  0  0  0  0  0  0  0  0
   36.6410    7.5000    0.0000 C   0  0  0  0  0  0  0  0  0  0  0  0
   15.8564    7.5000    0.0000 C   0  0  0  0  0  0  0  0  0  0  0  0
   18.4545    3.0000    0.0000 C   0  0  0  0  0  0  0  0  0  0  0  0
    4.5981    8.0000    0.0000 C   0  0  0  0  0  0  0  0  0  0  0  0
   13.2583   -7.0000    0.0000 C   0  0  0  0  0  0  0  0  0  0  0  0
   24.5167    7.5000    0.0000 C   0  0  0  0  0  0  0  0  0  0  0  0
   37.5070    8.0000    0.0000 C   0  0  0  0  0  0  0  0  0  0  0  0
    3.7320    7.5000    0.0000 C   0  0  0  0  0  0  0  0  0  0  0  0
   12.3923   -7.5000    0.0000 C   0  0  0  0  0  0  0  0  0  0  0  0
   16.7224    8.0000    0.0000 C   0  0  0  0  0  0  0  0  0  0  0  0
   19.3205    3.5000    0.0000 C   0  0  0  0  0  0  0  0  0  0  0  0
   23.6506    8.0000    0.0000 C   0  0  0  0  0  0  0  0  0  0  0  0
   38.3731    7.5000    0.0000 C   0  0  0  0  0  0  0  0  0  0  0  0
    2.8660    8.0000    0.0000 C   0  0  0  0  0  0  0  0  0  0  0  0
   12.3923   -8.5000    0.0000 C   0  0  0  0  0  0  0  0  0  0  0  0
   17.5885    7.5000    0.0000 C   0  0  0  0  0  0  0  0  0  0  0  0
   19.3205    4.5000    0.0000 C   0  0  0  0  0  0  0  0  0  0  0  0
   21.0526    7.5000    0.0000 C   0  0  0  0  0  0  0  0  0  0  0  0
   22.7846    7.5000    0.0000 C   0  0  0  0  0  0  0  0  0  0  0  0
   39.2391    8.0000    0.0000 C   0  0  0  0  0  0  0  0  0  0  0  0
    2.0000    7.5000    0.0000 C   0  0  0  0  0  0  0  0  0  0  0  0
   11.5263   -9.0000    0.0000 C   0  0  0  0  0  0  0  0  0  0  0  0
   18.4545    8.0000    0.0000 C   0  0  0  0  0  0  0  0  0  0  0  0
   20.1865    5.0000    0.0000 C   0  0  0  0  0  0  0  0  0  0  0  0
   20.1865    8.0000    0.0000 C   0  0  0  0  0  0  0  0  0  0  0  0
   21.0526    6.5000    0.0000 C   0  0  0  0  0  0  0  0  0  0  0  0
   30.9774    8.4750    0.0000 H   0  0  0  0  0  0  0  0  0  0  0  0
   30.1803    8.4750    0.0000 H   0  0  0  0  0  0  0  0  0  0  0  0
   31.0463    7.0250    0.0000 H   0  0  0  0  0  0  0  0  0  0  0  0
   31.8434    7.0250    0.0000 H   0  0  0  0  0  0  0  0  0  0  0  0
   10.2617    7.0250    0.0000 H   0  0  0  0  0  0  0  0  0  0  0  0
   11.0588    7.0250    0.0000 H   0  0  0  0  0  0  0  0  0  0  0  0
   15.6444   -0.9174    0.0000 H   0  0  0  0  0  0  0  0  0  0  0  0
   15.2458   -1.6077    0.0000 H   0  0  0  0  0  0  0  0  0  0  0  0
   10.1928    8.4750    0.0000 H   0  0  0  0  0  0  0  0  0  0  0  0
    9.3957    8.4750    0.0000 H   0  0  0  0  0  0  0  0  0  0  0  0
   16.0685   -3.0826    0.0000 H   0  0  0  0  0  0  0  0  0  0  0  0
   16.4670   -2.3923    0.0000 H   0  0  0  0  0  0  0  0  0  0  0  0
   29.3143    7.0250    0.0000 H   0  0  0  0  0  0  0  0  0  0  0  0
   30.1113    7.0250    0.0000 H   0  0  0  0  0  0  0  0  0  0  0  0
   32.7094    8.4750    0.0000 H   0  0  0  0  0  0  0  0  0  0  0  0
   31.9124    8.4750    0.0000 H   0  0  0  0  0  0  0  0  0  0  0  0
   11.9248    8.4750    0.0000 H   0  0  0  0  0  0  0  0  0  0  0  0
   11.1278    8.4750    0.0000 H   0  0  0  0  0  0  0  0  0  0  0  0
   16.9345   -1.5826    0.0000 H   0  0  0  0  0  0  0  0  0  0  0  0
   17.3330   -0.8923    0.0000 H   0  0  0  0  0  0  0  0  0  0  0  0
    8.5297    7.0250    0.0000 H   0  0  0  0  0  0  0  0  0  0  0  0
    9.3267    7.0250    0.0000 H   0  0  0  0  0  0  0  0  0  0  0  0
   14.7783   -2.4174    0.0000 H   0  0  0  0  0  0  0  0  0  0  0  0
   14.3798   -3.1077    0.0000 H   0  0  0  0  0  0  0  0  0  0  0  0
   29.2453    8.4750    0.0000 H   0  0  0  0  0  0  0  0  0  0  0  0
   28.4483    8.4750    0.0000 H   0  0  0  0  0  0  0  0  0  0  0  0
   32.7784    7.0250    0.0000 H   0  0  0  0  0  0  0  0  0  0  0  0
   33.5754    7.0250    0.0000 H   0  0  0  0  0  0  0  0  0  0  0  0
   11.9938    7.0250    0.0000 H   0  0  0  0  0  0  0  0  0  0  0  0
   12.7908    7.0250    0.0000 H   0  0  0  0  0  0  0  0  0  0  0  0
   16.5104    0.5826    0.0000 H   0  0  0  0  0  0  0  0  0  0  0  0
   16.1119   -0.1077    0.0000 H   0  0  0  0  0  0  0  0  0  0  0  0
    8.4607    8.4750    0.0000 H   0  0  0  0  0  0  0  0  0  0  0  0
    7.6636    8.4750    0.0000 H   0  0  0  0  0  0  0  0  0  0  0  0
   15.2024   -4.5826    0.0000 H   0  0  0  0  0  0  0  0  0  0  0  0
   15.6010   -3.8923    0.0000 H   0  0  0  0  0  0  0  0  0  0  0  0
   27.5822    7.0250    0.0000 H   0  0  0  0  0  0  0  0  0  0  0  0
   28.3793    7.0250    0.0000 H   0  0  0  0  0  0  0  0  0  0  0  0
   34.4415    8.4750    0.0000 H   0  0  0  0  0  0  0  0  0  0  0  0
   33.6444    8.4750    0.0000 H   0  0  0  0  0  0  0  0  0  0  0  0
   13.6569    8.4750    0.0000 H   0  0  0  0  0  0  0  0  0  0  0  0
   12.8598    8.4750    0.0000 H   0  0  0  0  0  0  0  0  0  0  0  0
   17.8005   -0.0826    0.0000 H   0  0  0  0  0  0  0  0  0  0  0  0
   18.1990    0.6077    0.0000 H   0  0  0  0  0  0  0  0  0  0  0  0
    6.7976    7.0250    0.0000 H   0  0  0  0  0  0  0  0  0  0  0  0
    7.5947    7.0250    0.0000 H   0  0  0  0  0  0  0  0  0  0  0  0
   13.9123   -3.9174    0.0000 H   0  0  0  0  0  0  0  0  0  0  0  0
   13.5138   -4.6077    0.0000 H   0  0  0  0  0  0  0  0  0  0  0  0
   27.5133    8.4750    0.0000 H   0  0  0  0  0  0  0  0  0  0  0  0
   26.7162    8.4750    0.0000 H   0  0  0  0  0  0  0  0  0  0  0  0
   34.5104    7.0250    0.0000 H   0  0  0  0  0  0  0  0  0  0  0  0
   35.3075    7.0250    0.0000 H   0  0  0  0  0  0  0  0  0  0  0  0
   13.7258    7.0250    0.0000 H   0  0  0  0  0  0  0  0  0  0  0  0
   14.5229    7.0250    0.0000 H   0  0  0  0  0  0  0  0  0  0  0  0
   17.3764    2.0826    0.0000 H   0  0  0  0  0  0  0  0  0  0  0  0
   16.9779    1.3923    0.0000 H   0  0  0  0  0  0  0  0  0  0  0  0
    6.7287    8.4750    0.0000 H   0  0  0  0  0  0  0  0  0  0  0  0
    5.9316    8.4750    0.0000 H   0  0  0  0  0  0  0  0  0  0  0  0
   14.3364   -6.0826    0.0000 H   0  0  0  0  0  0  0  0  0  0  0  0
   14.7349   -5.3923    0.0000 H   0  0  0  0  0  0  0  0  0  0  0  0
   25.8502    7.0250    0.0000 H   0  0  0  0  0  0  0  0  0  0  0  0
   26.6472    7.0250    0.0000 H   0  0  0  0  0  0  0  0  0  0  0  0
   36.1735    8.4750    0.0000 H   0  0  0  0  0  0  0  0  0  0  0  0
   35.3765    8.4750    0.0000 H   0  0  0  0  0  0  0  0  0  0  0  0
   15.3889    8.4750    0.0000 H   0  0  0  0  0  0  0  0  0  0  0  0
   14.5919    8.4750    0.0000 H   0  0  0  0  0  0  0  0  0  0  0  0
   18.6665    1.4174    0.0000 H   0  0  0  0  0  0  0  0  0  0  0  0
   19.0651    2.1077    0.0000 H   0  0  0  0  0  0  0  0  0  0  0  0
    5.0656    7.0250    0.0000 H   0  0  0  0  0  0  0  0  0  0  0  0
    5.8626    7.0250    0.0000 H   0  0  0  0  0  0  0  0  0  0  0  0
   13.0463   -5.4174    0.0000 H   0  0  0  0  0  0  0  0  0  0  0  0
   12.6477   -6.1077    0.0000 H   0  0  0  0  0  0  0  0  0  0  0  0
   25.7812    8.4750    0.0000 H   0  0  0  0  0  0  0  0  0  0  0  0
   24.9842    8.4750    0.0000 H   0  0  0  0  0  0  0  0  0  0  0  0
   36.2425    7.0250    0.0000 H   0  0  0  0  0  0  0  0  0  0  0  0
   37.0395    7.0250    0.0000 H   0  0  0  0  0  0  0  0  0  0  0  0
   15.4579    7.0250    0.0000 H   0  0  0  0  0  0  0  0  0  0  0  0
   16.2549    7.0250    0.0000 H   0  0  0  0  0  0  0  0  0  0  0  0
   18.2424    3.5826    0.0000 H   0  0  0  0  0  0  0  0  0  0  0  0
   17.8439    2.8923    0.0000 H   0  0  0  0  0  0  0  0  0  0  0  0
    4.9966    8.4750    0.0000 H   0  0  0  0  0  0  0  0  0  0  0  0
    4.1996    8.4750    0.0000 H   0  0  0  0  0  0  0  0  0  0  0  0
   13.4704   -7.5826    0.0000 H   0  0  0  0  0  0  0  0  0  0  0  0
   13.8689   -6.8923    0.0000 H   0  0  0  0  0  0  0  0  0  0  0  0
   24.1181    7.0250    0.0000 H   0  0  0  0  0  0  0  0  0  0  0  0
   24.9152    7.0250    0.0000 H   0  0  0  0  0  0  0  0  0  0  0  0
   37.9056    8.4750    0.0000 H   0  0  0  0  0  0  0  0  0  0  0  0
   37.1085    8.4750    0.0000 H   0  0  0  0  0  0  0  0  0  0  0  0
    3.3335    7.0250    0.0000 H   0  0  0  0  0  0  0  0  0  0  0  0
    4.1306    7.0250    0.0000 H   0  0  0  0  0  0  0  0  0  0  0  0
   12.1803   -6.9174    0.0000 H   0  0  0  0  0  0  0  0  0  0  0  0
   11.7817   -7.6077    0.0000 H   0  0  0  0  0  0  0  0  0  0  0  0
   17.1210    8.4750    0.0000 H   0  0  0  0  0  0  0  0  0  0  0  0
   16.3239    8.4750    0.0000 H   0  0  0  0  0  0  0  0  0  0  0  0
   19.5326    2.9174    0.0000 H   0  0  0  0  0  0  0  0  0  0  0  0
   19.9311    3.6077    0.0000 H   0  0  0  0  0  0  0  0  0  0  0  0
   24.0492    8.4750    0.0000 H   0  0  0  0  0  0  0  0  0  0  0  0
   23.2521    8.4750    0.0000 H   0  0  0  0  0  0  0  0  0  0  0  0
   37.9745    7.0250    0.0000 H   0  0  0  0  0  0  0  0  0  0  0  0
   38.7716    7.0250    0.0000 H   0  0  0  0  0  0  0  0  0  0  0  0
    3.2646    8.4750    0.0000 H   0  0  0  0  0  0  0  0  0  0  0  0
    2.4675    8.4750    0.0000 H   0  0  0  0  0  0  0  0  0  0  0  0
   12.6044   -9.0826    0.0000 H   0  0  0  0  0  0  0  0  0  0  0  0
   13.0029   -8.3923    0.0000 H   0  0  0  0  0  0  0  0  0  0  0  0
   17.1899    7.0250    0.0000 H   0  0  0  0  0  0  0  0  0  0  0  0
   17.9870    7.0250    0.0000 H   0  0  0  0  0  0  0  0  0  0  0  0
   19.1085    5.0826    0.0000 H   0  0  0  0  0  0  0  0  0  0  0  0
   18.7099    4.3923    0.0000 H   0  0  0  0  0  0  0  0  0  0  0  0
   21.0526    8.1200    0.0000 H   0  0  0  0  0  0  0  0  0  0  0  0
   39.5491    7.4631    0.0000 H   0  0  0  0  0  0  0  0  0  0  0  0
   39.7760    8.3100    0.0000 H   0  0  0  0  0  0  0  0  0  0  0  0
   38.9291    8.5369    0.0000 H   0  0  0  0  0  0  0  0  0  0  0  0
    1.6900    8.0369    0.0000 H   0  0  0  0  0  0  0  0  0  0  0  0
    1.4631    7.1900    0.0000 H   0  0  0  0  0  0  0  0  0  0  0  0
    2.3100    6.9631    0.0000 H   0  0  0  0  0  0  0  0  0  0  0  0
   11.2163   -8.4631    0.0000 H   0  0  0  0  0  0  0  0  0  0  0  0
   10.9893   -9.3100    0.0000 H   0  0  0  0  0  0  0  0  0  0  0  0
   11.8363   -9.5369    0.0000 H   0  0  0  0  0  0  0  0  0  0  0  0
   20.5851    8.4750    0.0000 H   0  0  0  0  0  0  0  0  0  0  0  0
   19.7880    8.4750    0.0000 H   0  0  0  0  0  0  0  0  0  0  0  0
   21.2646    5.9174    0.0000 H   0  0  0  0  0  0  0  0  0  0  0  0
   21.6631    6.6077    0.0000 H   0  0  0  0  0  0  0  0  0  0  0  0
  1 61  1  0  0  0  0
  1 62  1  0  0  0  0
  2 66  1  0  0  0  0
  2 68  1  0  0  0  0
  3 67  1  0  0  0  0
  3 69  1  0  0  0  0
  4 62  2  0  0  0  0
  5 66  2  0  0  0  0
  6 67  2  0  0  0  0
  7  8  1  0  0  0  0
  7 13  1  0  0  0  0
  7 70  1  0  0  0  0
  7 71  1  0  0  0  0
  8 14  1  0  0  0  0
  8 72  1  0  0  0  0
  8 73  1  0  0  0  0
  9 11  1  0  0  0  0
  9 15  1  0  0  0  0
  9 74  1  0  0  0  0
  9 75  1  0  0  0  0
 10 12  1  0  0  0  0
 10 16  1  0  0  0  0
 10 76  1  0  0  0  0
 10 77  1  0  0  0  0
 11 17  1  0  0  0  0
 11 78  1  0  0  0  0
 11 79  1  0  0  0  0
 12 18  1  0  0  0  0
 12 80  1  0  0  0  0
 12 81  1  0  0  0  0
 13 19  1  0  0  0  0
 13 82  1  0  0  0  0
 13 83  1  0  0  0  0
 14 20  1  0  0  0  0
 14 84  1  0  0  0  0
 14 85  1  0  0  0  0
 15 21  1  0  0  0  0
 15 86  1  0  0  0  0
 15 87  1  0  0  0  0
 16 22  1  0  0  0  0
 16 88  1  0  0  0  0
 16 89  1  0  0  0  0
 17 23  1  0  0  0  0
 17 90  1  0  0  0  0
 17 91  1  0  0  0  0
 18 24  1  0  0  0  0
 18 92  1  0  0  0  0
 18 93  1  0  0  0  0
 19 25  1  0  0  0  0
 19 94  1  0  0  0  0
 19 95  1  0  0  0  0
 20 26  1  0  0  0  0
 20 96  1  0  0  0  0
 20 97  1  0  0  0  0
 21 27  1  0  0  0  0
 21 98  1  0  0  0  0
 21 99  1  0  0  0  0
 22 28  1  0  0  0  0
 22100  1  0  0  0  0
 22101  1  0  0  0  0
 23 29  1  0  0  0  0
 23102  1  0  0  0  0
 23103  1  0  0  0  0
 24 30  1  0  0  0  0
 24104  1  0  0  0  0
 24105  1  0  0  0  0
 25 31  1  0  0  0  0
 25106  1  0  0  0  0
 25107  1  0  0  0  0
 26 32  1  0  0  0  0
 26108  1  0  0  0  0
 26109  1  0  0  0  0
 27 33  1  0  0  0  0
 27110  1  0  0  0  0
 27111  1  0  0  0  0
 28 34  1  0  0  0  0
 28112  1  0  0  0  0
 28113  1  0  0  0  0
 29 35  1  0  0  0  0
 29114  1  0  0  0  0
 29115  1  0  0  0  0
 30 36  1  0  0  0  0
 30116  1  0  0  0  0
 30117  1  0  0  0  0
 31 37  1  0  0  0  0
 31118  1  0  0  0  0
 31119  1  0  0  0  0
 32 38  1  0  0  0  0
 32120  1  0  0  0  0
 32121  1  0  0  0  0
 33 39  1  0  0  0  0
 33122  1  0  0  0  0
 33123  1  0  0  0  0
 34 40  1  0  0  0  0
 34124  1  0  0  0  0
 34125  1  0  0  0  0
 35 41  1  0  0  0  0
 35126  1  0  0  0  0
 35127  1  0  0  0  0
 36 42  1  0  0  0  0
 36128  1  0  0  0  0
 36129  1  0  0  0  0
 37 43  1  0  0  0  0
 37130  1  0  0  0  0
 37131  1  0  0  0  0
 38 44  1  0  0  0  0
 38132  1  0  0  0  0
 38133  1  0  0  0  0
 39 45  1  0  0  0  0
 39134  1  0  0  0  0
 39135  1  0  0  0  0
 40 46  1  0  0  0  0
 40136  1  0  0  0  0
 40137  1  0  0  0  0
 41 47  1  0  0  0  0
 41138  1  0  0  0  0
 41139  1  0  0  0  0
 42 48  1  0  0  0  0
 42140  1  0  0  0  0
 42141  1  0  0  0  0
 43 49  1  0  0  0  0
 43142  1  0  0  0  0
 43143  1  0  0  0  0
 44 50  1  0  0  0  0
 44144  1  0  0  0  0
 44145  1  0  0  0  0
 45 53  1  0  0  0  0
 45146  1  0  0  0  0
 45147  1  0  0  0  0
 46 54  1  0  0  0  0
 46148  1  0  0  0  0
 46149  1  0  0  0  0
 47 51  1  0  0  0  0
 47150  1  0  0  0  0
 47151  1  0  0  0  0
 48 52  1  0  0  0  0
 48152  1  0  0  0  0
 48153  1  0  0  0  0
 49 55  1  0  0  0  0
 49154  1  0  0  0  0
 49155  1  0  0  0  0
 50 56  1  0  0  0  0
 50156  1  0  0  0  0
 50157  1  0  0  0  0
 51 57  1  0  0  0  0
 51158  1  0  0  0  0
 51159  1  0  0  0  0
 52 58  1  0  0  0  0
 52160  1  0  0  0  0
 52161  1  0  0  0  0
 53 59  1  0  0  0  0
 53162  1  0  0  0  0
 53163  1  0  0  0  0
 54 60  1  0  0  0  0
 54164  1  0  0  0  0
 54165  1  0  0  0  0
 55 62  1  0  0  0  0
 55166  1  0  0  0  0
 55167  1  0  0  0  0
 56 63  1  0  0  0  0
 56168  1  0  0  0  0
 56169  1  0  0  0  0
 57 64  1  0  0  0  0
 57170  1  0  0  0  0
 57171  1  0  0  0  0
 58 65  1  0  0  0  0
 58172  1  0  0  0  0
 58173  1  0  0  0  0
 59 66  1  0  0  0  0
 59174  1  0  0  0  0
 59175  1  0  0  0  0
 60 67  1  0  0  0  0
 60176  1  0  0  0  0
 60177  1  0  0  0  0
 61 68  1  0  0  0  0
 61 69  1  0  0  0  0
 61178  1  0  0  0  0
 63179  1  0  0  0  0
 63180  1  0  0  0  0
 63181  1  0  0  0  0
 64182  1  0  0  0  0
 64183  1  0  0  0  0
 64184  1  0  0  0  0
 65185  1  0  0  0  0
 65186  1  0  0  0  0
 65187  1  0  0  0  0
 68188  1  0  0  0  0
 68189  1  0  0  0  0
 69190  1  0  0  0  0
 69191  1  0  0  0  0
M  END
> <PUBCHEM_COMPOUND_CID>
522017

> <PUBCHEM_COMPOUND_CANONICALIZED>
1

> <PUBCHEM_CACTVS_COMPLEXITY>
975

> <PUBCHEM_CACTVS_HBOND_ACCEPTOR>
6

> <PUBCHEM_CACTVS_HBOND_DONOR>
0

> <PUBCHEM_CACTVS_ROTATABLE_BOND>
62

> <PUBCHEM_CACTVS_SUBSKEYS>
AAADcfB8OAAAAAAAAAAAAAAAAAAAAAAAAAAAAAAAAAAAAAAAAAAAGgAAAAAACBSggAICCAAABAAIAACQCAAAAAAAAAAAAAEAAAABABIAAAACAAAFAAACAAGIyKCAAAAAAAAAAAAAAAAAAAAAAAAAAAAAAA==

> <PUBCHEM_IUPAC_OPENEYE_NAME>
2,3-di(icosanoyloxy)propyl icosanoate

> <PUBCHEM_IUPAC_CAS_NAME>
eicosanoic acid 2,3-bis(1-oxoeicosoxy)propyl ester

> <PUBCHEM_IUPAC_NAME_MARKUP>
2,3-di(icosanoyloxy)propyl icosanoate

> <PUBCHEM_IUPAC_NAME>
2,3-di(icosanoyloxy)propyl icosanoate

> <PUBCHEM_IUPAC_SYSTEMATIC_NAME>
2,3-di(icosanoyloxy)propyl icosanoate

> <PUBCHEM_IUPAC_TRADITIONAL_NAME>
arachidic acid 2,3-di(eicosanoyloxy)propyl ester

> <PUBCHEM_IUPAC_INCHI>
InChI=1S/C63H122O6/c1-4-7-10-13-16-19-22-25-28-31-34-37-40-43-46-49-52-55-61(64)67-58-60(69-63(66)57-54-51-48-45-42-39-36-33-30-27-24-21-18-15-12-9-6-3)59-68-62(65)56-53-50-47-44-41-38-35-32-29-26-23-20-17-14-11-8-5-2/h60H,4-59H2,1-3H3

> <PUBCHEM_IUPAC_INCHIKEY>
KCVWRCXEUJUXIG-UHFFFAOYSA-N

> <PUBCHEM_XLOGP3_AA>
28.4

> <PUBCHEM_EXACT_MASS>
974.92414161

> <PUBCHEM_MOLECULAR_FORMULA>
C63H122O6

> <PUBCHEM_MOLECULAR_WEIGHT>
975.6

> <PUBCHEM_OPENEYE_CAN_SMILES>
CCCCCCCCCCCCCCCCCCCC(=O)OCC(COC(=O)CCCCCCCCCCCCCCCCCCC)OC(=O)CCCCCCCCCCCCCCCCCCC

> <PUBCHEM_OPENEYE_ISO_SMILES>
CCCCCCCCCCCCCCCCCCCC(=O)OCC(COC(=O)CCCCCCCCCCCCCCCCCCC)OC(=O)CCCCCCCCCCCCCCCCCCC

> <PUBCHEM_CACTVS_TPSA>
78.9

> <PUBCHEM_MONOISOTOPIC_WEIGHT>
974.92414161

> <PUBCHEM_TOTAL_CHARGE>
0

> <PUBCHEM_HEAVY_ATOM_COUNT>
69

> <PUBCHEM_ATOM_DEF_STEREO_COUNT>
0

> <PUBCHEM_ATOM_UDEF_STEREO_COUNT>
0

> <PUBCHEM_BOND_DEF_STEREO_COUNT>
0

> <PUBCHEM_BOND_UDEF_STEREO_COUNT>
0

> <PUBCHEM_ISOTOPIC_ATOM_COUNT>
0

> <PUBCHEM_COMPONENT_COUNT>
1

> <PUBCHEM_CACTVS_TAUTO_COUNT>
-1

> <PUBCHEM_COORDINATE_TYPE>
1
5
255

$$$$
