6105970
  -OEChem-11012401063D

 30 32  0     0  0  0  0  0  0999 V2000
    2.7429   -0.7859    0.0603 C   0  0  0  0  0  0  0  0  0  0  0  0
    2.7427    0.7863   -0.0603 C   0  0  0  0  0  0  0  0  0  0  0  0
    1.3770   -1.4495   -0.0030 C   0  0  0  0  0  0  0  0  0  0  0  0
    1.3767    1.4496    0.0030 C   0  0  0  0  0  0  0  0  0  0  0  0
    0.7075   -1.5651   -1.2282 C   0  0  0  0  0  0  0  0  0  0  0  0
    0.7072    1.5650    1.2283 C   0  0  0  0  0  0  0  0  0  0  0  0
    0.6639   -1.6715    1.1844 C   0  0  0  0  0  0  0  0  0  0  0  0
    0.6635    1.6717   -1.1844 C   0  0  0  0  0  0  0  0  0  0  0  0
   -1.3996   -1.4509   -0.0480 C   0  0  0  0  0  0  0  0  0  0  0  0
   -1.3999    1.4508    0.0479 C   0  0  0  0  0  0  0  0  0  0  0  0
   -0.6905   -1.5654   -1.2520 C   0  0  0  0  0  0  0  0  0  0  0  0
   -0.6908    1.5653    1.2521 C   0  0  0  0  0  0  0  0  0  0  0  0
   -0.7326   -1.6738    1.1634 C   0  0  0  0  0  0  0  0  0  0  0  0
   -0.7328    1.6739   -1.1634 C   0  0  0  0  0  0  0  0  0  0  0  0
   -2.6675   -0.6784   -0.0272 C   0  0  0  0  0  0  0  0  0  0  0  0
   -2.6677    0.6779    0.0272 C   0  0  0  0  0  0  0  0  0  0  0  0
    3.3866   -1.2046   -0.7240 H   0  0  0  0  0  0  0  0  0  0  0  0
    3.2292   -1.0608    1.0055 H   0  0  0  0  0  0  0  0  0  0  0  0
    3.3862    1.2052    0.7239 H   0  0  0  0  0  0  0  0  0  0  0  0
    3.2289    1.0613   -1.0056 H   0  0  0  0  0  0  0  0  0  0  0  0
    1.2481   -1.4435   -2.1639 H   0  0  0  0  0  0  0  0  0  0  0  0
    1.2478    1.4433    2.1639 H   0  0  0  0  0  0  0  0  0  0  0  0
    1.1706   -1.6346    2.1461 H   0  0  0  0  0  0  0  0  0  0  0  0
    1.1702    1.6350   -2.1460 H   0  0  0  0  0  0  0  0  0  0  0  0
   -1.1942   -1.4330   -2.2074 H   0  0  0  0  0  0  0  0  0  0  0  0
   -1.1945    1.4326    2.2074 H   0  0  0  0  0  0  0  0  0  0  0  0
   -1.2673   -1.6268    2.1098 H   0  0  0  0  0  0  0  0  0  0  0  0
   -1.2676    1.6270   -2.1098 H   0  0  0  0  0  0  0  0  0  0  0  0
   -3.5933   -1.2423   -0.0474 H   0  0  0  0  0  0  0  0  0  0  0  0
   -3.5935    1.2417    0.0474 H   0  0  0  0  0  0  0  0  0  0  0  0
  1  2  1  0  0  0  0
  1  3  1  0  0  0  0
  1 17  1  0  0  0  0
  1 18  1  0  0  0  0
  2  4  1  0  0  0  0
  2 19  1  0  0  0  0
  2 20  1  0  0  0  0
  3  5  2  0  0  0  0
  3  7  1  0  0  0  0
  4  6  2  0  0  0  0
  4  8  1  0  0  0  0
  5 11  1  0  0  0  0
  5 21  1  0  0  0  0
  6 12  1  0  0  0  0
  6 22  1  0  0  0  0
  7 13  2  0  0  0  0
  7 23  1  0  0  0  0
  8 14  2  0  0  0  0
  8 24  1  0  0  0  0
  9 11  2  0  0  0  0
  9 13  1  0  0  0  0
  9 15  1  0  0  0  0
 10 12  2  0  0  0  0
 10 14  1  0  0  0  0
 10 16  1  0  0  0  0
 11 25  1  0  0  0  0
 12 26  1  0  0  0  0
 13 27  1  0  0  0  0
 14 28  1  0  0  0  0
 15 16  2  0  0  0  0
 15 29  1  0  0  0  0
 16 30  1  0  0  0  0
M  END
> <PUBCHEM_COMPOUND_CID>
6105970

> <PUBCHEM_CONFORMER_RMSD>
0.4

> <PUBCHEM_CONFORMER_DIVERSEORDER>
1

> <PUBCHEM_MMFF94_PARTIAL_CHARGES>
26
1 0.14
10 0.03
11 -0.15
12 -0.15
13 -0.15
14 -0.15
15 -0.18
16 -0.18
2 0.14
21 0.15
22 0.15
23 0.15
24 0.15
25 0.15
26 0.15
27 0.15
28 0.15
29 0.15
3 -0.14
30 0.15
4 -0.14
5 -0.15
6 -0.15
7 -0.15
8 -0.15
9 0.03

> <PUBCHEM_EFFECTIVE_ROTOR_COUNT>
0.4

> <PUBCHEM_PHARMACOPHORE_FEATURES>
2
6 3 5 7 9 11 13 rings
6 4 6 8 10 12 14 rings

> <PUBCHEM_HEAVY_ATOM_COUNT>
16

> <PUBCHEM_ATOM_DEF_STEREO_COUNT>
0

> <PUBCHEM_ATOM_UDEF_STEREO_COUNT>
0

> <PUBCHEM_BOND_DEF_STEREO_COUNT>
1

> <PUBCHEM_BOND_UDEF_STEREO_COUNT>
0

> <PUBCHEM_ISOTOPIC_ATOM_COUNT>
0

> <PUBCHEM_COMPONENT_COUNT>
1

> <PUBCHEM_CACTVS_TAUTO_COUNT>
1

> <PUBCHEM_CONFORMER_ID>
005D2B7200000001

> <PUBCHEM_MMFF94_ENERGY>
100.3107

> <PUBCHEM_FEATURE_SELFOVERLAP>
10.149

> <PUBCHEM_SHAPE_FINGERPRINT>
10863032 1 18410856572529985697
10948715 1 18410575088968985477
12423570 1 18201716236770639695
144361 1 18411136939399846579
14817 1 14547086873335410442
15775835 57 17769385146619321571
15881359 60 18120340298866770124
16945 1 18411982463857423749
20511035 2 18122912193987215351
20691752 17 17749111071911637453
20905425 154 18339927133504962663
22344851 341 18336541612522212938
23419403 2 15394475103568973147
23559900 14 18129383873197248672
241688 4 18334293136891869288
2748010 2 17978510059114632687
2897 32 18408886256314659184

> <PUBCHEM_SHAPE_MULTIPOLES>
329.27
3.17
2.59
1.35
0.18
0
0
0
0
0.03
0
-0.01
0
-0.02

> <PUBCHEM_SHAPE_SELFOVERLAP>
728.438

> <PUBCHEM_SHAPE_VOLUME>
160.8

> <PUBCHEM_COORDINATE_TYPE>
2
5
10

$$$$
