84552
  -OEChem-11012401213D

 19 18  0     0  0  0  0  0  0999 V2000
   -0.7847    0.0102    0.8474 N   0  0  0  0  0  0  0  0  0  0  0  0
    0.3914    0.0007   -0.0035 C   0  0  0  0  0  0  0  0  0  0  0  0
    0.3859   -1.2697   -0.8614 C   0  0  0  0  0  0  0  0  0  0  0  0
    0.3654    1.2375   -0.9077 C   0  0  0  0  0  0  0  0  0  0  0  0
    1.6500    0.0241    0.8716 C   0  0  0  0  0  0  0  0  0  0  0  0
   -2.0081   -0.0029    0.0537 C   0  0  0  0  0  0  0  0  0  0  0  0
   -0.3710   -1.2589   -1.6527 H   0  0  0  0  0  0  0  0  0  0  0  0
    1.3505   -1.3874   -1.3711 H   0  0  0  0  0  0  0  0  0  0  0  0
    0.2373   -2.1700   -0.2533 H   0  0  0  0  0  0  0  0  0  0  0  0
    1.3307    1.3569   -1.4155 H   0  0  0  0  0  0  0  0  0  0  0  0
    0.1944    2.1556   -0.3328 H   0  0  0  0  0  0  0  0  0  0  0  0
   -0.3856    1.1820   -1.7028 H   0  0  0  0  0  0  0  0  0  0  0  0
    1.6958   -0.8515    1.5300 H   0  0  0  0  0  0  0  0  0  0  0  0
    2.5597    0.0244    0.2600 H   0  0  0  0  0  0  0  0  0  0  0  0
    1.6779    0.9187    1.5047 H   0  0  0  0  0  0  0  0  0  0  0  0
   -0.7778   -0.8010    1.4654 H   0  0  0  0  0  0  0  0  0  0  0  0
   -2.8521    0.0050    0.7540 H   0  0  0  0  0  0  0  0  0  0  0  0
   -2.1396   -0.9043   -0.5503 H   0  0  0  0  0  0  0  0  0  0  0  0
   -2.1445    0.8894   -0.5627 H   0  0  0  0  0  0  0  0  0  0  0  0
  1  2  1  0  0  0  0
  1  6  1  0  0  0  0
  1 16  1  0  0  0  0
  2  3  1  0  0  0  0
  2  4  1  0  0  0  0
  2  5  1  0  0  0  0
  3  7  1  0  0  0  0
  3  8  1  0  0  0  0
  3  9  1  0  0  0  0
  4 10  1  0  0  0  0
  4 11  1  0  0  0  0
  4 12  1  0  0  0  0
  5 13  1  0  0  0  0
  5 14  1  0  0  0  0
  5 15  1  0  0  0  0
  6 17  1  0  0  0  0
  6 18  1  0  0  0  0
  6 19  1  0  0  0  0
M  END
> <PUBCHEM_COMPOUND_CID>
84552

> <PUBCHEM_CONFORMER_RMSD>
0.4

> <PUBCHEM_CONFORMER_DIVERSEORDER>
1

> <PUBCHEM_MMFF94_PARTIAL_CHARGES>
4
1 -0.9
16 0.36
2 0.27
6 0.27

> <PUBCHEM_EFFECTIVE_ROTOR_COUNT>
1

> <PUBCHEM_PHARMACOPHORE_FEATURES>
3
1 1 cation
1 1 donor
4 2 3 4 5 hydrophobe

> <PUBCHEM_HEAVY_ATOM_COUNT>
6

> <PUBCHEM_ATOM_DEF_STEREO_COUNT>
0

> <PUBCHEM_ATOM_UDEF_STEREO_COUNT>
0

> <PUBCHEM_BOND_DEF_STEREO_COUNT>
0

> <PUBCHEM_BOND_UDEF_STEREO_COUNT>
0

> <PUBCHEM_ISOTOPIC_ATOM_COUNT>
0

> <PUBCHEM_COMPONENT_COUNT>
1

> <PUBCHEM_CACTVS_TAUTO_COUNT>
1

> <PUBCHEM_CONFORMER_ID>
00014A4800000001

> <PUBCHEM_MMFF94_ENERGY>
8.2803

> <PUBCHEM_FEATURE_SELFOVERLAP>
15.223

> <PUBCHEM_SHAPE_FINGERPRINT>
137420 1 13795624461662813620
139733 1 15195278763570571152
20096714 4 17753911693706817861
21040471 1 17917434284220216299
24536 1 18265921136253596929
29004967 10 17604137181864691256
5943 1 10468037341623682582

> <PUBCHEM_SHAPE_MULTIPOLES>
118.5
1.93
1.15
1.1
0.7
0.01
-0.05
0
0.55
-0.18
-0.48
-0.2
-0.01
0.01

> <PUBCHEM_SHAPE_SELFOVERLAP>
208.604

> <PUBCHEM_SHAPE_VOLUME>
80.1

> <PUBCHEM_COORDINATE_TYPE>
2
5
10

$$$$
