137104
  -OEChem-11012400583D

 31 32  0     0  0  0  0  0  0999 V2000
    1.0177    0.0111   -0.2999 C   0  0  0  0  0  0  0  0  0  0  0  0
   -0.4087    0.0098    0.2215 C   0  0  0  0  0  0  0  0  0  0  0  0
    1.8439    1.1873    0.2110 C   0  0  0  0  0  0  0  0  0  0  0  0
    1.8323   -1.1885    0.1736 C   0  0  0  0  0  0  0  0  0  0  0  0
   -1.1580    1.2644   -0.2470 C   0  0  0  0  0  0  0  0  0  0  0  0
   -1.1452   -1.2626   -0.2183 C   0  0  0  0  0  0  0  0  0  0  0  0
    3.2881    0.7600   -0.0319 C   0  0  0  0  0  0  0  0  0  0  0  0
    3.2786   -0.7693   -0.0680 C   0  0  0  0  0  0  0  0  0  0  0  0
   -2.6117    1.2603    0.2206 C   0  0  0  0  0  0  0  0  0  0  0  0
   -2.5990   -1.2626    0.2491 C   0  0  0  0  0  0  0  0  0  0  0  0
   -3.3381   -0.0098   -0.2109 C   0  0  0  0  0  0  0  0  0  0  0  0
    1.0165    0.0272   -1.3992 H   0  0  0  0  0  0  0  0  0  0  0  0
   -0.3881    0.0212    1.3207 H   0  0  0  0  0  0  0  0  0  0  0  0
    1.6821    1.3461    1.2843 H   0  0  0  0  0  0  0  0  0  0  0  0
    1.6175    2.1240   -0.3075 H   0  0  0  0  0  0  0  0  0  0  0  0
    1.5944   -2.1079   -0.3700 H   0  0  0  0  0  0  0  0  0  0  0  0
    1.6754   -1.3745    1.2433 H   0  0  0  0  0  0  0  0  0  0  0  0
   -1.1317    1.3302   -1.3422 H   0  0  0  0  0  0  0  0  0  0  0  0
   -0.6779    2.1703    0.1392 H   0  0  0  0  0  0  0  0  0  0  0  0
   -0.6593   -2.1556    0.1900 H   0  0  0  0  0  0  0  0  0  0  0  0
   -1.1173   -1.3536   -1.3117 H   0  0  0  0  0  0  0  0  0  0  0  0
    3.9527    1.1445    0.7484 H   0  0  0  0  0  0  0  0  0  0  0  0
    3.6471    1.1512   -0.9908 H   0  0  0  0  0  0  0  0  0  0  0  0
    3.6181   -1.1182   -1.0502 H   0  0  0  0  0  0  0  0  0  0  0  0
    3.9494   -1.1992    0.6827 H   0  0  0  0  0  0  0  0  0  0  0  0
   -3.1311    2.1367   -0.1833 H   0  0  0  0  0  0  0  0  0  0  0  0
   -2.6436    1.3458    1.3138 H   0  0  0  0  0  0  0  0  0  0  0  0
   -2.6304   -1.3237    1.3440 H   0  0  0  0  0  0  0  0  0  0  0  0
   -3.1095   -2.1530   -0.1349 H   0  0  0  0  0  0  0  0  0  0  0  0
   -4.3548   -0.0103    0.1977 H   0  0  0  0  0  0  0  0  0  0  0  0
   -3.4324   -0.0227   -1.3037 H   0  0  0  0  0  0  0  0  0  0  0  0
  1  2  1  0  0  0  0
  1  3  1  0  0  0  0
  1  4  1  0  0  0  0
  1 12  1  0  0  0  0
  2  5  1  0  0  0  0
  2  6  1  0  0  0  0
  2 13  1  0  0  0  0
  3  7  1  0  0  0  0
  3 14  1  0  0  0  0
  3 15  1  0  0  0  0
  4  8  1  0  0  0  0
  4 16  1  0  0  0  0
  4 17  1  0  0  0  0
  5  9  1  0  0  0  0
  5 18  1  0  0  0  0
  5 19  1  0  0  0  0
  6 10  1  0  0  0  0
  6 20  1  0  0  0  0
  6 21  1  0  0  0  0
  7  8  1  0  0  0  0
  7 22  1  0  0  0  0
  7 23  1  0  0  0  0
  8 24  1  0  0  0  0
  8 25  1  0  0  0  0
  9 11  1  0  0  0  0
  9 26  1  0  0  0  0
  9 27  1  0  0  0  0
 10 11  1  0  0  0  0
 10 28  1  0  0  0  0
 10 29  1  0  0  0  0
 11 30  1  0  0  0  0
 11 31  1  0  0  0  0
M  END
> <PUBCHEM_COMPOUND_CID>
137104

> <PUBCHEM_CONFORMER_RMSD>
0.6

> <PUBCHEM_CONFORMER_DIVERSEORDER>
1
5
3
2
4

> <PUBCHEM_MMFF94_PARTIAL_CHARGES>
0

> <PUBCHEM_EFFECTIVE_ROTOR_COUNT>
3.2

> <PUBCHEM_PHARMACOPHORE_FEATURES>
2
5 1 3 4 7 8 rings
6 2 5 6 9 10 11 rings

> <PUBCHEM_HEAVY_ATOM_COUNT>
11

> <PUBCHEM_ATOM_DEF_STEREO_COUNT>
0

> <PUBCHEM_ATOM_UDEF_STEREO_COUNT>
0

> <PUBCHEM_BOND_DEF_STEREO_COUNT>
0

> <PUBCHEM_BOND_UDEF_STEREO_COUNT>
0

> <PUBCHEM_ISOTOPIC_ATOM_COUNT>
0

> <PUBCHEM_COMPONENT_COUNT>
1

> <PUBCHEM_CACTVS_TAUTO_COUNT>
1

> <PUBCHEM_CONFORMER_ID>
0002179000000001

> <PUBCHEM_MMFF94_ENERGY>
12.2205

> <PUBCHEM_FEATURE_SELFOVERLAP>
10.149

> <PUBCHEM_SHAPE_FINGERPRINT>
10608611 8 18411976966410535408
12032990 46 18410300224004809747
12897270 3 18410009965798658918
12932764 1 18410298012091150234
13380535 76 18411417297727706230
14144814 61 18410292493063456218
14325111 11 18411138021747584996
15442244 35 18194964033069738066
15775835 57 18335988575300563049
16945 1 18410573989462242699
17844478 74 18260839210674139073
18186145 218 18338237067941905676
19973954 147 18411139151366318296
200 152 17988630905172325565
20201158 50 18342457019318157575
20528008 55 18411975875673075309
20645477 70 18341609274478799311
20871998 184 18201162160620552847
21501502 16 18411700976074952024
23402539 116 18272642446950681133
23402655 69 18342449310263415693
23463225 33 18336546023601357670
23552423 10 18260268585265967567
2748010 2 18410855485897972204
3248919 1 18411973654921710670
369184 2 18411699889648647193
5084963 1 18040436572662626965
57812782 119 18412822482182810508
6333449 129 18411698794453124733
69090 78 18342170064437866047
7364860 26 18269553854068869070
75552 356 18409450310322549983
8809292 202 18333737930843935458

> <PUBCHEM_SHAPE_MULTIPOLES>
226.37
5.79
1.56
0.66
0.78
0
0
0
-0.02
-0.27
-0.04
-0.03
0
0.03

> <PUBCHEM_SHAPE_SELFOVERLAP>
453.141

> <PUBCHEM_SHAPE_VOLUME>
130.2

> <PUBCHEM_COORDINATE_TYPE>
2
5
10

$$$$
