102098
  -OEChem-10312420442D

 31 30  0     0  0  0  0  0  0999 V2000
    3.9894    0.1159    0.0000 Sc  0  1  0  0  0  0  0  0  0  0  0  0
    3.5827    1.0295    0.0000 C   0  5  0  0  0  0  0  0  0  0  0  0
    4.9839    0.0114    0.0000 C   0  5  0  0  0  0  0  0  0  0  0  0
    3.4016   -0.6931    0.0000 C   0  5  0  0  0  0  0  0  0  0  0  0
    3.4782    2.0240    0.0000 C   0  0  0  0  0  0  0  0  0  0  0  0
    2.6691    0.6227    0.0000 C   0  0  0  0  0  0  0  0  0  0  0  0
    5.9621    0.2193    0.0000 C   0  0  0  0  0  0  0  0  0  0  0  0
    4.8794   -0.9831    0.0000 C   0  0  0  0  0  0  0  0  0  0  0  0
    4.2106   -1.2809    0.0000 C   0  0  0  0  0  0  0  0  0  0  0  0
    2.5926   -1.2809    0.0000 C   0  0  0  0  0  0  0  0  0  0  0  0
    2.5000    2.2319    0.0000 C   0  0  0  0  0  0  0  0  0  0  0  0
    2.0000    1.3659    0.0000 C   0  0  0  0  0  0  0  0  0  0  0  0
    6.4621   -0.6467    0.0000 C   0  0  0  0  0  0  0  0  0  0  0  0
    5.7930   -1.3898    0.0000 C   0  0  0  0  0  0  0  0  0  0  0  0
    3.9016   -2.2319    0.0000 C   0  0  0  0  0  0  0  0  0  0  0  0
    2.9016   -2.2319    0.0000 C   0  0  0  0  0  0  0  0  0  0  0  0
    4.5772    1.1340    0.0000 H   0  0  0  0  0  0  0  0  0  0  0  0
    5.2930    0.9625    0.0000 H   0  0  0  0  0  0  0  0  0  0  0  0
    3.0372   -0.1915    0.0000 H   0  0  0  0  0  0  0  0  0  0  0  0
    3.9389    2.4389    0.0000 H   0  0  0  0  0  0  0  0  0  0  0  0
    2.5402    0.0163    0.0000 H   0  0  0  0  0  0  0  0  0  0  0  0
    6.2143    0.7857    0.0000 H   0  0  0  0  0  0  0  0  0  0  0  0
    4.3425   -1.2931    0.0000 H   0  0  0  0  0  0  0  0  0  0  0  0
    4.8003   -1.0893    0.0000 H   0  0  0  0  0  0  0  0  0  0  0  0
    2.0030   -1.0893    0.0000 H   0  0  0  0  0  0  0  0  0  0  0  0
    2.2478    2.7983    0.0000 H   0  0  0  0  0  0  0  0  0  0  0  0
    1.3834    1.3011    0.0000 H   0  0  0  0  0  0  0  0  0  0  0  0
    7.0787   -0.7115    0.0000 H   0  0  0  0  0  0  0  0  0  0  0  0
    5.9219   -1.9963    0.0000 H   0  0  0  0  0  0  0  0  0  0  0  0
    4.2660   -2.7335    0.0000 H   0  0  0  0  0  0  0  0  0  0  0  0
    2.5372   -2.7335    0.0000 H   0  0  0  0  0  0  0  0  0  0  0  0
  2  5  1  0  0  0  0
  2  6  1  0  0  0  0
  2 17  1  0  0  0  0
  3  7  1  0  0  0  0
  3  8  1  0  0  0  0
  3 18  1  0  0  0  0
  4  9  1  0  0  0  0
  4 10  1  0  0  0  0
  4 19  1  0  0  0  0
  5 11  2  0  0  0  0
  5 20  1  0  0  0  0
  6 12  2  0  0  0  0
  6 21  1  0  0  0  0
  7 13  2  0  0  0  0
  7 22  1  0  0  0  0
  8 14  2  0  0  0  0
  8 23  1  0  0  0  0
  9 15  2  0  0  0  0
  9 24  1  0  0  0  0
 10 16  2  0  0  0  0
 10 25  1  0  0  0  0
 11 12  1  0  0  0  0
 11 26  1  0  0  0  0
 12 27  1  0  0  0  0
 13 14  1  0  0  0  0
 13 28  1  0  0  0  0
 14 29  1  0  0  0  0
 15 16  1  0  0  0  0
 15 30  1  0  0  0  0
 16 31  1  0  0  0  0
M  CHG  4   1   3   2  -1   3  -1   4  -1
M  END
> <PUBCHEM_COMPOUND_CID>
102098

> <PUBCHEM_COMPOUND_CANONICALIZED>
1

> <PUBCHEM_CACTVS_COMPLEXITY>
86.8

> <PUBCHEM_CACTVS_HBOND_ACCEPTOR>
3

> <PUBCHEM_CACTVS_HBOND_DONOR>
0

> <PUBCHEM_CACTVS_ROTATABLE_BOND>
0

> <PUBCHEM_CACTVS_SUBSKEYS>
AAADccBwAAAAAAQAAAAAAAAAAAAAAYMGAAAAAAAAAAAAAAABUAAAGAAAAAAACACAEAAwAIAAAACAACBCAAACAAAgAAAIiAAAAIgIICKAERCAIAAggAAIiAYAAAAAAAAAAAAAAAAAAAAAAAAAAAAAAAAAAA==

> <PUBCHEM_IUPAC_OPENEYE_NAME>
cyclopenta-1,3-diene;scandium(3+)

> <PUBCHEM_IUPAC_CAS_NAME>
cyclopenta-1,3-diene;scandium(3+)

> <PUBCHEM_IUPAC_NAME_MARKUP>
cyclopenta-1,3-diene;scandium(3+)

> <PUBCHEM_IUPAC_NAME>
cyclopenta-1,3-diene;scandium(3+)

> <PUBCHEM_IUPAC_SYSTEMATIC_NAME>
cyclopenta-1,3-diene;scandium(3+)

> <PUBCHEM_IUPAC_TRADITIONAL_NAME>
cyclopenta-1,3-diene;scandium(3+)

> <PUBCHEM_IUPAC_INCHI>
InChI=1S/3C5H5.Sc/c3*1-2-4-5-3-1;/h3*1-5H;/q3*-1;+3

> <PUBCHEM_IUPAC_INCHIKEY>
DLIOSYYYCBMDCP-UHFFFAOYSA-N

> <PUBCHEM_EXACT_MASS>
240.073283

> <PUBCHEM_MOLECULAR_FORMULA>
C15H15Sc

> <PUBCHEM_MOLECULAR_WEIGHT>
240.23

> <PUBCHEM_OPENEYE_CAN_SMILES>
[CH-]1C=CC=C1.[CH-]1C=CC=C1.[CH-]1C=CC=C1.[Sc+3]

> <PUBCHEM_OPENEYE_ISO_SMILES>
[CH-]1C=CC=C1.[CH-]1C=CC=C1.[CH-]1C=CC=C1.[Sc+3]

> <PUBCHEM_CACTVS_TPSA>
0

> <PUBCHEM_MONOISOTOPIC_WEIGHT>
240.073283

> <PUBCHEM_TOTAL_CHARGE>
0

> <PUBCHEM_HEAVY_ATOM_COUNT>
16

> <PUBCHEM_ATOM_DEF_STEREO_COUNT>
0

> <PUBCHEM_ATOM_UDEF_STEREO_COUNT>
0

> <PUBCHEM_BOND_DEF_STEREO_COUNT>
0

> <PUBCHEM_BOND_UDEF_STEREO_COUNT>
0

> <PUBCHEM_ISOTOPIC_ATOM_COUNT>
0

> <PUBCHEM_COMPONENT_COUNT>
4

> <PUBCHEM_CACTVS_TAUTO_COUNT>
1

> <PUBCHEM_NONSTANDARDBOND>
1  2  6
1  3  6
1  4  6

> <PUBCHEM_COORDINATE_TYPE>
1
5
255

> <PUBCHEM_BONDANNOTATIONS>
10  16  8
11  12  8
13  14  8
15  16  8
2  5  8
2  6  8
3  7  8
3  8  8
4  10  8
4  9  8
5  11  8
6  12  8
7  13  8
8  14  8
9  15  8

$$$$
