5462957
  -OEChem-11012401213D

 26 27  0     0  0  0  0  0  0999 V2000
   -0.4027    3.4794   -0.3543 O   0  5  0  0  0  0  0  0  0  0  0  0
   -0.7436   -3.5395   -0.2545 O   0  5  0  0  0  0  0  0  0  0  0  0
    1.4218    2.3282   -0.7604 O   0  0  0  0  0  0  0  0  0  0  0  0
    1.1833   -2.5824   -0.6909 O   0  0  0  0  0  0  0  0  0  0  0  0
   -4.5477    1.2745    0.5836 O   0  5  0  0  0  0  0  0  0  0  0  0
   -4.6537   -0.9180    0.6152 O   0  0  0  0  0  0  0  0  0  0  0  0
    1.4746   -0.1366   -0.7637 N   0  0  0  0  0  0  0  0  0  0  0  0
    0.2005    2.3891   -0.4864 N   0  3  0  0  0  0  0  0  0  0  0  0
   -0.0378   -2.5167   -0.4164 N   0  3  0  0  0  0  0  0  0  0  0  0
   -4.0081    0.1477    0.4668 N   0  3  0  0  0  0  0  0  0  0  0  0
    3.7941   -0.0118   -0.4912 N   0  0  0  0  0  0  0  0  0  0  0  0
    2.6332   -0.0142    1.3602 N   0  0  0  0  0  0  0  0  0  0  0  0
    4.7354    0.0636    0.4618 N   0  0  0  0  0  0  0  0  0  0  0  0
    0.0941   -0.0646   -0.4542 C   0  0  0  0  0  0  0  0  0  0  0  0
   -0.5269    1.1771   -0.3188 C   0  0  0  0  0  0  0  0  0  0  0  0
   -0.6441   -1.2358   -0.2840 C   0  0  0  0  0  0  0  0  0  0  0  0
   -2.6242    0.0763    0.1565 C   0  0  0  0  0  0  0  0  0  0  0  0
   -1.8861    1.2476   -0.0134 C   0  0  0  0  0  0  0  0  0  0  0  0
   -2.0033   -1.1654    0.0211 C   0  0  0  0  0  0  0  0  0  0  0  0
    2.5596   -0.0571    0.0600 C   0  0  0  0  0  0  0  0  0  0  0  0
    3.9815    0.0587    1.5631 C   0  0  0  0  0  0  0  0  0  0  0  0
   -2.3748    2.2132    0.0932 H   0  0  0  0  0  0  0  0  0  0  0  0
   -2.5831   -2.0757    0.1544 H   0  0  0  0  0  0  0  0  0  0  0  0
    1.6283   -0.2175   -1.7669 H   0  0  0  0  0  0  0  0  0  0  0  0
    4.0712   -0.0271   -1.4656 H   0  0  0  0  0  0  0  0  0  0  0  0
    4.4287    0.1104    2.5447 H   0  0  0  0  0  0  0  0  0  0  0  0
  1  8  1  0  0  0  0
  2  9  1  0  0  0  0
  3  8  2  0  0  0  0
  4  9  2  0  0  0  0
  5 10  1  0  0  0  0
  6 10  2  0  0  0  0
  7 14  1  0  0  0  0
  7 20  1  0  0  0  0
  7 24  1  0  0  0  0
  8 15  1  0  0  0  0
  9 16  1  0  0  0  0
 10 17  1  0  0  0  0
 11 13  1  0  0  0  0
 11 20  1  0  0  0  0
 11 25  1  0  0  0  0
 12 20  2  0  0  0  0
 12 21  1  0  0  0  0
 13 21  2  0  0  0  0
 14 15  2  0  0  0  0
 14 16  1  0  0  0  0
 15 18  1  0  0  0  0
 16 19  2  0  0  0  0
 17 18  2  0  0  0  0
 17 19  1  0  0  0  0
 18 22  1  0  0  0  0
 19 23  1  0  0  0  0
 21 26  1  0  0  0  0
M  CHG  6   1  -1   2  -1   5  -1   8   1   9   1  10   1
M  END
> <PUBCHEM_COMPOUND_CID>
5462957

> <PUBCHEM_CONFORMER_RMSD>
0.8

> <PUBCHEM_CONFORMER_DIVERSEORDER>
1
2

> <PUBCHEM_MMFF94_PARTIAL_CHARGES>
26
1 -0.52
10 0.91
11 0.3
12 -0.57
13 -0.71
14 0.1
15 0.13
16 0.13
17 0.13
18 -0.15
19 -0.15
2 -0.52
20 0.27
21 0.37
22 0.15
23 0.15
24 0.4
25 0.27
26 0.15
3 -0.52
4 -0.52
5 -0.52
6 -0.52
7 -0.58
8 0.91
9 0.91

> <PUBCHEM_EFFECTIVE_ROTOR_COUNT>
5

> <PUBCHEM_PHARMACOPHORE_FEATURES>
14
1 1 acceptor
1 1 anion
1 11 donor
1 2 acceptor
1 2 anion
1 3 acceptor
1 4 acceptor
1 5 acceptor
1 5 anion
1 6 acceptor
1 7 donor
4 7 11 12 20 cation
5 11 12 13 20 21 rings
6 14 15 16 17 18 19 rings

> <PUBCHEM_HEAVY_ATOM_COUNT>
21

> <PUBCHEM_ATOM_DEF_STEREO_COUNT>
0

> <PUBCHEM_ATOM_UDEF_STEREO_COUNT>
0

> <PUBCHEM_BOND_DEF_STEREO_COUNT>
0

> <PUBCHEM_BOND_UDEF_STEREO_COUNT>
0

> <PUBCHEM_ISOTOPIC_ATOM_COUNT>
0

> <PUBCHEM_COMPONENT_COUNT>
1

> <PUBCHEM_CACTVS_TAUTO_COUNT>
5

> <PUBCHEM_CONFORMER_ID>
00535BAD00000001

> <PUBCHEM_MMFF94_ENERGY>
86.4009

> <PUBCHEM_FEATURE_SELFOVERLAP>
71.335

> <PUBCHEM_SHAPE_FINGERPRINT>
10906281 52 18189635877289838345
10967382 1 18410580590842853167
1100329 8 18265615561877862626
11132069 177 18412261726984005775
12236239 1 17748549238686643060
12251169 10 18409165549516503354
12553582 1 18335127726884820598
12633257 1 17898885510834149931
13140716 1 18266177420914787619
13172582 1 18409447024461572022
13544592 145 18059868246609615382
14022347 108 18262533532470528678
14178342 30 18268442247950097617
14790565 3 18338250326659754380
15042514 8 18409447024599371626
15209294 21 17917435276753359545
15375462 189 17822282509651164856
16945 1 18410290311235907255
193761 8 17762623188863405855
19784866 170 18338802200023608417
200 152 15068618267136336104
20028762 73 18129102410805065319
20510252 161 18270960137935783912
20600515 1 18342180011445285388
21501502 16 18049724323544610439
21637258 2 15647042802577241256
22182313 1 18120937209421980957
23184049 59 18409163350430152121
2334 1 17977948217315515039
23366157 5 17681271388539661660
23402539 116 18343010103800187575
23419403 2 17245531288499302567
23558518 356 17976816819893264091
23559900 14 18048882896580856998
2748010 2 18049727321626929551
3250762 1 17617939132205709837
34934 24 18339074870818366277
350125 39 18124318199261751214
352729 6 18196947784233345567
394222 165 17388569204319442804
4072396 5 18261945255052576329
43471831 8 18264206911489658434
44154327 71 18408889525154095174
465052 167 17968105256533560347
5104073 3 18192727841847663345
58807428 26 18410851027733118346
589210 1 17762056944480196828
81228 2 17981856921387219886
90316 7 18262220180093754568

> <PUBCHEM_SHAPE_MULTIPOLES>
362.09
7.25
3
0.95
0.04
0.32
-0.24
-0.43
-3.15
-0.81
0.89
0.65
-0.03
-0.05

> <PUBCHEM_SHAPE_SELFOVERLAP>
792.352

> <PUBCHEM_SHAPE_VOLUME>
196.3

> <PUBCHEM_COORDINATE_TYPE>
2
5
10

$$$$
