1268120
  -OEChem-11012400433D

 27 28  0     0  0  0  0  0  0999 V2000
    2.8357    3.1022   -0.0022 N   0  0  0  0  0  0  0  0  0  0  0  0
    1.3589   -0.1084   -0.0012 C   0  0  0  0  0  0  0  0  0  0  0  0
   -1.5108    0.8528    0.0165 C   0  0  0  0  0  0  0  0  0  0  0  0
    0.9628    1.3133    0.0086 C   0  0  0  0  0  0  0  0  0  0  0  0
   -0.3352    1.7095    0.0295 C   0  0  0  0  0  0  0  0  0  0  0  0
    1.5522   -0.7647    1.2023 C   0  0  0  0  0  0  0  0  0  0  0  0
    1.5278   -0.7550   -1.2135 C   0  0  0  0  0  0  0  0  0  0  0  0
   -2.0900    0.4819   -1.1971 C   0  0  0  0  0  0  0  0  0  0  0  0
   -2.0584    0.4017    1.2173 C   0  0  0  0  0  0  0  0  0  0  0  0
    1.9261   -2.1086    1.1931 C   0  0  0  0  0  0  0  0  0  0  0  0
    1.9015   -2.0989   -1.2227 C   0  0  0  0  0  0  0  0  0  0  0  0
   -3.2169   -0.3401   -1.2098 C   0  0  0  0  0  0  0  0  0  0  0  0
   -3.1853   -0.4204    1.2047 C   0  0  0  0  0  0  0  0  0  0  0  0
    2.1006   -2.7756   -0.0193 C   0  0  0  0  0  0  0  0  0  0  0  0
   -3.7644   -0.7912   -0.0090 C   0  0  0  0  0  0  0  0  0  0  0  0
    1.9954    2.3018    0.0026 C   0  0  0  0  0  0  0  0  0  0  0  0
   -0.5684    2.7736    0.0401 H   0  0  0  0  0  0  0  0  0  0  0  0
    1.4191   -0.2567    2.1537 H   0  0  0  0  0  0  0  0  0  0  0  0
    1.3754   -0.2393   -2.1578 H   0  0  0  0  0  0  0  0  0  0  0  0
   -1.6748    0.8252   -2.1416 H   0  0  0  0  0  0  0  0  0  0  0  0
   -1.6188    0.6821    2.1715 H   0  0  0  0  0  0  0  0  0  0  0  0
    2.0808   -2.6357    2.1300 H   0  0  0  0  0  0  0  0  0  0  0  0
    2.0370   -2.6185   -2.1667 H   0  0  0  0  0  0  0  0  0  0  0  0
   -3.6677   -0.6291   -2.1546 H   0  0  0  0  0  0  0  0  0  0  0  0
   -3.6117   -0.7720    2.1396 H   0  0  0  0  0  0  0  0  0  0  0  0
    2.3914   -3.8220   -0.0265 H   0  0  0  0  0  0  0  0  0  0  0  0
   -4.6417   -1.4315   -0.0188 H   0  0  0  0  0  0  0  0  0  0  0  0
  1 16  3  0  0  0  0
  2  4  1  0  0  0  0
  2  6  2  0  0  0  0
  2  7  1  0  0  0  0
  3  5  1  0  0  0  0
  3  8  2  0  0  0  0
  3  9  1  0  0  0  0
  4  5  2  0  0  0  0
  4 16  1  0  0  0  0
  5 17  1  0  0  0  0
  6 10  1  0  0  0  0
  6 18  1  0  0  0  0
  7 11  2  0  0  0  0
  7 19  1  0  0  0  0
  8 12  1  0  0  0  0
  8 20  1  0  0  0  0
  9 13  2  0  0  0  0
  9 21  1  0  0  0  0
 10 14  2  0  0  0  0
 10 22  1  0  0  0  0
 11 14  1  0  0  0  0
 11 23  1  0  0  0  0
 12 15  2  0  0  0  0
 12 24  1  0  0  0  0
 13 15  1  0  0  0  0
 13 25  1  0  0  0  0
 14 26  1  0  0  0  0
 15 27  1  0  0  0  0
M  END
> <PUBCHEM_COMPOUND_CID>
1268120

> <PUBCHEM_CONFORMER_RMSD>
0.6

> <PUBCHEM_CONFORMER_DIVERSEORDER>
1
2

> <PUBCHEM_MMFF94_PARTIAL_CHARGES>
27
1 -0.56
10 -0.15
11 -0.15
12 -0.15
13 -0.15
14 -0.15
15 -0.15
16 0.49
17 0.15
18 0.15
19 0.15
2 0.03
20 0.15
21 0.15
22 0.15
23 0.15
24 0.15
25 0.15
26 0.15
27 0.15
3 0.03
4 0.04
5 -0.18
6 -0.15
7 -0.15
8 -0.15
9 -0.15

> <PUBCHEM_EFFECTIVE_ROTOR_COUNT>
2

> <PUBCHEM_PHARMACOPHORE_FEATURES>
3
1 1 acceptor
6 2 6 7 10 11 14 rings
6 3 8 9 12 13 15 rings

> <PUBCHEM_HEAVY_ATOM_COUNT>
16

> <PUBCHEM_ATOM_DEF_STEREO_COUNT>
0

> <PUBCHEM_ATOM_UDEF_STEREO_COUNT>
0

> <PUBCHEM_BOND_DEF_STEREO_COUNT>
1

> <PUBCHEM_BOND_UDEF_STEREO_COUNT>
0

> <PUBCHEM_ISOTOPIC_ATOM_COUNT>
0

> <PUBCHEM_COMPONENT_COUNT>
1

> <PUBCHEM_CACTVS_TAUTO_COUNT>
1

> <PUBCHEM_CONFORMER_ID>
0013599800000001

> <PUBCHEM_MMFF94_ENERGY>
48.2299

> <PUBCHEM_FEATURE_SELFOVERLAP>
15.223

> <PUBCHEM_SHAPE_FINGERPRINT>
11578080 2 17169818991109408484
12202030 40 17748837310501141715
12326174 3 18410011056847179992
12363563 72 18192986015735794355
12553582 1 18123197809397224091
12707595 3 18263647268671500583
13083527 12 18192685973588511392
13764800 53 9510303379132022591
15279307 12 17916026943981173519
15309172 13 18121217855180456745
16945 1 18410856564261986376
17990270 104 18339921511170933621
20361792 2 18268148647816434487
204376 136 18048596220409878080
20645477 70 18410845590952796455
21524375 3 18123467452034459424
21731516 1 18266468598370559663
23419403 2 15074746919074098824
23557571 272 17765143974469354850
23728640 28 16678934113153099163
2748010 2 17982154635539824700
31174 14 18335995207125629075
33824 294 18265053707542112843
5262128 65 18339359648013212243
549884 4 12829780561402364207
7364860 26 18412265042830795992
74978 22 18266179439982232073
81228 2 17476630980426217616
81539 233 18262513835391975532

> <PUBCHEM_SHAPE_MULTIPOLES>
324.29
5.38
2.95
1.35
4.38
1.04
0.01
-1.46
0.03
-3.82
0
0.29
-0.52
0.03

> <PUBCHEM_SHAPE_SELFOVERLAP>
699.623

> <PUBCHEM_SHAPE_VOLUME>
175.2

> <PUBCHEM_COORDINATE_TYPE>
2
5
10

$$$$
