145506
  -OEChem-11012400453D

 20 21  0     0  0  0  0  0  0999 V2000
   -3.2752    0.1136    0.5855 C   0  0  0  0  0  0  0  0  0  0  0  0
    3.2752    0.1137   -0.5854 C   0  0  0  0  0  0  0  0  0  0  0  0
   -4.1297   -0.8942   -0.1177 C   0  0  0  0  0  0  0  0  0  0  0  0
   -4.1994    0.5534   -0.5068 C   0  0  0  0  0  0  0  0  0  0  0  0
    4.1297   -0.8942    0.1178 C   0  0  0  0  0  0  0  0  0  0  0  0
    4.1992    0.5534    0.5072 C   0  0  0  0  0  0  0  0  0  0  0  0
   -1.8571    0.1136    0.3318 C   0  0  0  0  0  0  0  0  0  0  0  0
    1.8572    0.1136   -0.3321 C   0  0  0  0  0  0  0  0  0  0  0  0
   -0.6754    0.1136    0.1206 C   0  0  0  0  0  0  0  0  0  0  0  0
    0.6754    0.1136   -0.1209 C   0  0  0  0  0  0  0  0  0  0  0  0
   -3.5657    0.3720    1.5989 H   0  0  0  0  0  0  0  0  0  0  0  0
    3.5661    0.3722   -1.5987 H   0  0  0  0  0  0  0  0  0  0  0  0
   -4.9701   -1.3106    0.4247 H   0  0  0  0  0  0  0  0  0  0  0  0
   -3.6700   -1.5809   -0.8187 H   0  0  0  0  0  0  0  0  0  0  0  0
   -3.7863    0.8353   -1.4681 H   0  0  0  0  0  0  0  0  0  0  0  0
   -5.0866    1.1081   -0.2254 H   0  0  0  0  0  0  0  0  0  0  0  0
    4.9703   -1.3105   -0.4245 H   0  0  0  0  0  0  0  0  0  0  0  0
    3.6700   -1.5810    0.8186 H   0  0  0  0  0  0  0  0  0  0  0  0
    3.7859    0.8350    1.4684 H   0  0  0  0  0  0  0  0  0  0  0  0
    5.0864    1.1081    0.2260 H   0  0  0  0  0  0  0  0  0  0  0  0
  1  3  1  0  0  0  0
  1  4  1  0  0  0  0
  1  7  1  0  0  0  0
  1 11  1  0  0  0  0
  2  5  1  0  0  0  0
  2  6  1  0  0  0  0
  2  8  1  0  0  0  0
  2 12  1  0  0  0  0
  3  4  1  0  0  0  0
  3 13  1  0  0  0  0
  3 14  1  0  0  0  0
  4 15  1  0  0  0  0
  4 16  1  0  0  0  0
  5  6  1  0  0  0  0
  5 17  1  0  0  0  0
  5 18  1  0  0  0  0
  6 19  1  0  0  0  0
  6 20  1  0  0  0  0
  7  9  3  0  0  0  0
  8 10  3  0  0  0  0
  9 10  1  0  0  0  0
M  END
> <PUBCHEM_COMPOUND_CID>
145506

> <PUBCHEM_CONFORMER_RMSD>
0.4

> <PUBCHEM_CONFORMER_DIVERSEORDER>
1

> <PUBCHEM_MMFF94_PARTIAL_CHARGES>
16
11 0.1
12 0.1
13 0.1
14 0.1
15 0.1
16 0.1
17 0.1
18 0.1
19 0.1
20 0.1
3 -0.2
4 -0.2
5 -0.2
6 -0.2
7 -0.1
8 -0.1

> <PUBCHEM_EFFECTIVE_ROTOR_COUNT>
1.2

> <PUBCHEM_PHARMACOPHORE_FEATURES>
0

> <PUBCHEM_HEAVY_ATOM_COUNT>
10

> <PUBCHEM_ATOM_DEF_STEREO_COUNT>
0

> <PUBCHEM_ATOM_UDEF_STEREO_COUNT>
0

> <PUBCHEM_BOND_DEF_STEREO_COUNT>
0

> <PUBCHEM_BOND_UDEF_STEREO_COUNT>
0

> <PUBCHEM_ISOTOPIC_ATOM_COUNT>
0

> <PUBCHEM_COMPONENT_COUNT>
1

> <PUBCHEM_CACTVS_TAUTO_COUNT>
1

> <PUBCHEM_CONFORMER_ID>
0002386200000001

> <PUBCHEM_MMFF94_ENERGY>
12.1557

> <PUBCHEM_FEATURE_SELFOVERLAP>
0

> <PUBCHEM_SHAPE_FINGERPRINT>
11062470 55 18410577283696935940
11401426 45 18333446547598854973
11987891 27 18410570690943437126
14123238 8 15770055042501054500
190213 19 18410858758663051623
1986462 14 14996289136696963707
20645477 70 18187365390084030282
20828058 21 10231755591270518577
21119208 17 15647053767618119847
22485316 2 18410571790423292803
23402539 116 18186513302578255965
42 15 18410575059304835762
42788 4 18410292514475073485
522135 26 12324238365346742176

> <PUBCHEM_SHAPE_MULTIPOLES>
205.8
10.48
0.85
0.76
0
0.11
0
0.77
0
0
0
0
-0.04
0.09

> <PUBCHEM_SHAPE_SELFOVERLAP>
410.19

> <PUBCHEM_SHAPE_VOLUME>
120.2

> <PUBCHEM_COORDINATE_TYPE>
2
5
10

$$$$
