141555
  -OEChem-11012400573D

 23 22  0     0  0  0  0  0  0999 V2000
    2.2886   -0.7454   -1.3261 F   0  0  0  0  0  0  0  0  0  0  0  0
   -2.2890   -0.7449    1.3266 F   0  0  0  0  0  0  0  0  0  0  0  0
   -0.0013    0.1529    0.0001 O   0  0  0  0  0  0  0  0  0  0  0  0
    2.6699   -0.3696    2.0477 O   0  5  0  0  0  0  0  0  0  0  0  0
    3.7526    1.9272    0.1192 O   0  5  0  0  0  0  0  0  0  0  0  0
   -2.6700   -0.3709   -2.0476 O   0  5  0  0  0  0  0  0  0  0  0  0
   -3.7510    1.9279   -0.1203 O   0  5  0  0  0  0  0  0  0  0  0  0
    2.5369   -2.0890    0.6852 O   0  0  0  0  0  0  0  0  0  0  0  0
    4.5751    0.2528   -1.0429 O   0  0  0  0  0  0  0  0  0  0  0  0
   -2.5383   -2.0895   -0.6840 O   0  0  0  0  0  0  0  0  0  0  0  0
   -4.5748    0.2548    1.0427 O   0  0  0  0  0  0  0  0  0  0  0  0
    2.5377   -0.8740    0.9242 N   0  3  0  0  0  0  0  0  0  0  0  0
    3.6717    0.8072   -0.4032 N   0  3  0  0  0  0  0  0  0  0  0  0
   -2.5381   -0.8747   -0.9237 N   0  3  0  0  0  0  0  0  0  0  0  0
   -3.6709    0.8081    0.4027 N   0  3  0  0  0  0  0  0  0  0  0  0
    1.1694    0.9544   -0.1194 C   0  0  0  0  0  0  0  0  0  0  0  0
   -1.1685    0.9532    0.1189 C   0  0  0  0  0  0  0  0  0  0  0  0
    2.3808    0.0597   -0.2410 C   0  0  0  0  0  0  0  0  0  0  0  0
   -2.3807    0.0596    0.2408 C   0  0  0  0  0  0  0  0  0  0  0  0
    1.2422    1.6144    0.7540 H   0  0  0  0  0  0  0  0  0  0  0  0
    1.0792    1.5763   -1.0186 H   0  0  0  0  0  0  0  0  0  0  0  0
   -1.2420    1.6133   -0.7545 H   0  0  0  0  0  0  0  0  0  0  0  0
   -1.0792    1.5760    1.0175 H   0  0  0  0  0  0  0  0  0  0  0  0
  1 18  1  0  0  0  0
  2 19  1  0  0  0  0
  3 16  1  0  0  0  0
  3 17  1  0  0  0  0
  4 12  1  0  0  0  0
  5 13  1  0  0  0  0
  6 14  1  0  0  0  0
  7 15  1  0  0  0  0
  8 12  2  0  0  0  0
  9 13  2  0  0  0  0
 10 14  2  0  0  0  0
 11 15  2  0  0  0  0
 12 18  1  0  0  0  0
 13 18  1  0  0  0  0
 14 19  1  0  0  0  0
 15 19  1  0  0  0  0
 16 18  1  0  0  0  0
 16 20  1  0  0  0  0
 16 21  1  0  0  0  0
 17 19  1  0  0  0  0
 17 22  1  0  0  0  0
 17 23  1  0  0  0  0
M  CHG  8   4  -1   5  -1   6  -1   7  -1  12   1  13   1  14   1  15   1
M  END
> <PUBCHEM_COMPOUND_CID>
141555

> <PUBCHEM_CONFORMER_RMSD>
0.8

> <PUBCHEM_CONFORMER_DIVERSEORDER>
2
10
17
5
18
13
19
12
7
14
11
8
4
6
16
1
3
9
15

> <PUBCHEM_MMFF94_PARTIAL_CHARGES>
19
1 -0.34
10 -0.52
11 -0.52
12 0.8
13 0.8
14 0.8
15 0.8
16 0.28
17 0.28
18 0.82
19 0.82
2 -0.34
3 -0.56
4 -0.52
5 -0.52
6 -0.52
7 -0.52
8 -0.52
9 -0.52

> <PUBCHEM_EFFECTIVE_ROTOR_COUNT>
8

> <PUBCHEM_PHARMACOPHORE_FEATURES>
13
1 10 acceptor
1 11 acceptor
1 3 acceptor
1 4 acceptor
1 4 anion
1 5 acceptor
1 5 anion
1 6 acceptor
1 6 anion
1 7 acceptor
1 7 anion
1 8 acceptor
1 9 acceptor

> <PUBCHEM_HEAVY_ATOM_COUNT>
19

> <PUBCHEM_ATOM_DEF_STEREO_COUNT>
0

> <PUBCHEM_ATOM_UDEF_STEREO_COUNT>
0

> <PUBCHEM_BOND_DEF_STEREO_COUNT>
0

> <PUBCHEM_BOND_UDEF_STEREO_COUNT>
0

> <PUBCHEM_ISOTOPIC_ATOM_COUNT>
0

> <PUBCHEM_COMPONENT_COUNT>
1

> <PUBCHEM_CACTVS_TAUTO_COUNT>
1

> <PUBCHEM_CONFORMER_ID>
000228F300000002

> <PUBCHEM_MMFF94_ENERGY>
39.2495

> <PUBCHEM_FEATURE_SELFOVERLAP>
66.307

> <PUBCHEM_SHAPE_FINGERPRINT>
12173636 292 17603584080777766045
12346177 29 17489293192749644109
12500047 106 17132115727753582605
12553582 1 18410568487598918305
12670545 47 15985099721468926673
12932764 1 18410851062081949505
14144814 61 18260831475295776585
15669948 3 18202559592522446693
18186145 218 18113898286373424748
19050596 39 18410006646137202864
19107657 47 13758357760526926016
20281475 54 18410564089552309770
20645477 70 18337112254793976054
20681677 155 18202007624694925602
21618674 57 15697730211297954758
23402539 116 18341613733361422244
23559900 14 17418096494783568116
474 4 17969509392959557436
633830 44 18262244421179284884

> <PUBCHEM_SHAPE_MULTIPOLES>
303.72
8.69
1.65
1.35
0
0.23
0
-1.65
0
0
0
0
0.41
-0.74

> <PUBCHEM_SHAPE_SELFOVERLAP>
610.591

> <PUBCHEM_SHAPE_VOLUME>
178.8

> <PUBCHEM_COORDINATE_TYPE>
2
5
10

$$$$
