66774
  -OEChem-11012400333D

 12 11  0     0  0  0  0  0  0999 V2000
   -1.1312    0.6991    0.0008 O   0  0  0  0  0  0  0  0  0  0  0  0
    2.3515   -0.0585    0.0112 O   0  0  0  0  0  0  0  0  0  0  0  0
   -0.0171   -1.3226   -0.0049 O   0  0  0  0  0  0  0  0  0  0  0  0
    1.2064    0.7703   -0.0089 C   0  0  0  0  0  0  0  0  0  0  0  0
   -0.0234   -0.0991   -0.0044 C   0  0  0  0  0  0  0  0  0  0  0  0
   -2.3861    0.0108    0.0062 C   0  0  0  0  0  0  0  0  0  0  0  0
    1.2169    1.3942    0.8885 H   0  0  0  0  0  0  0  0  0  0  0  0
    1.2290    1.3917   -0.9080 H   0  0  0  0  0  0  0  0  0  0  0  0
   -2.4849   -0.6037   -0.8937 H   0  0  0  0  0  0  0  0  0  0  0  0
   -3.1838    0.7584    0.0100 H   0  0  0  0  0  0  0  0  0  0  0  0
   -2.4768   -0.6042    0.9067 H   0  0  0  0  0  0  0  0  0  0  0  0
    2.3781   -0.5429   -0.8317 H   0  0  0  0  0  0  0  0  0  0  0  0
  1  5  1  0  0  0  0
  1  6  1  0  0  0  0
  2  4  1  0  0  0  0
  2 12  1  0  0  0  0
  3  5  2  0  0  0  0
  4  5  1  0  0  0  0
  4  7  1  0  0  0  0
  4  8  1  0  0  0  0
  6  9  1  0  0  0  0
  6 10  1  0  0  0  0
  6 11  1  0  0  0  0
M  END
> <PUBCHEM_COMPOUND_CID>
66774

> <PUBCHEM_CONFORMER_RMSD>
0.4

> <PUBCHEM_CONFORMER_DIVERSEORDER>
1
2
3

> <PUBCHEM_MMFF94_PARTIAL_CHARGES>
7
1 -0.43
12 0.4
2 -0.68
3 -0.57
4 0.34
5 0.66
6 0.28

> <PUBCHEM_EFFECTIVE_ROTOR_COUNT>
2

> <PUBCHEM_PHARMACOPHORE_FEATURES>
3
1 2 acceptor
1 2 donor
1 3 acceptor

> <PUBCHEM_HEAVY_ATOM_COUNT>
6

> <PUBCHEM_ATOM_DEF_STEREO_COUNT>
0

> <PUBCHEM_ATOM_UDEF_STEREO_COUNT>
0

> <PUBCHEM_BOND_DEF_STEREO_COUNT>
0

> <PUBCHEM_BOND_UDEF_STEREO_COUNT>
0

> <PUBCHEM_ISOTOPIC_ATOM_COUNT>
0

> <PUBCHEM_COMPONENT_COUNT>
1

> <PUBCHEM_CACTVS_TAUTO_COUNT>
1

> <PUBCHEM_CONFORMER_ID>
000104D600000001

> <PUBCHEM_MMFF94_ENERGY>
1.9737

> <PUBCHEM_FEATURE_SELFOVERLAP>
15.23

> <PUBCHEM_SHAPE_FINGERPRINT>
16714656 1 18335423486411191372
20096714 4 18410011065363196600
21040471 1 18410856602631699532
29004967 10 18260555497850668657
5460574 1 9295291637925510240

> <PUBCHEM_SHAPE_MULTIPOLES>
105.87
2.9
0.99
0.56
0.28
0.2
0
-0.25
0.01
-0.04
0
0.02
-0.01
0

> <PUBCHEM_SHAPE_SELFOVERLAP>
189.895

> <PUBCHEM_SHAPE_VOLUME>
69

> <PUBCHEM_COORDINATE_TYPE>
2
5
10

$$$$
