142801
  -OEChem-11012401063D

 37 38  0     1  0  0  0  0  0999 V2000
   -0.5969    0.1708   -0.3254 C   0  0  1  0  0  0  0  0  0  0  0  0
    0.8402    0.0285    0.1782 C   0  0  0  0  0  0  0  0  0  0  0  0
   -1.4274   -1.1249   -0.1545 C   0  0  2  0  0  0  0  0  0  0  0  0
   -1.2776    1.3843    0.3268 C   0  0  0  0  0  0  0  0  0  0  0  0
    1.5549   -1.1235   -0.5411 C   0  0  0  0  0  0  0  0  0  0  0  0
    1.6095    1.3444    0.0007 C   0  0  0  0  0  0  0  0  0  0  0  0
   -2.8638   -0.9017   -0.6602 C   0  0  0  0  0  0  0  0  0  0  0  0
   -2.7061    1.5709   -0.1779 C   0  0  0  0  0  0  0  0  0  0  0  0
   -3.5407    0.3055   -0.0149 C   0  0  0  0  0  0  0  0  0  0  0  0
    3.0091   -1.2518   -0.0933 C   0  0  0  0  0  0  0  0  0  0  0  0
    3.0637    1.2120    0.4474 C   0  0  0  0  0  0  0  0  0  0  0  0
    3.7682    0.0605   -0.2631 C   0  0  0  0  0  0  0  0  0  0  0  0
   -1.4331   -1.6750    1.2770 C   0  0  0  0  0  0  0  0  0  0  0  0
   -0.5540    0.3772   -1.4058 H   0  0  0  0  0  0  0  0  0  0  0  0
    0.8311   -0.1901    1.2542 H   0  0  0  0  0  0  0  0  0  0  0  0
   -1.0091   -1.9083   -0.7981 H   0  0  0  0  0  0  0  0  0  0  0  0
   -0.7581    2.3163    0.0867 H   0  0  0  0  0  0  0  0  0  0  0  0
   -1.2801    1.2872    1.4188 H   0  0  0  0  0  0  0  0  0  0  0  0
    1.5243   -0.9656   -1.6267 H   0  0  0  0  0  0  0  0  0  0  0  0
    1.0702   -2.0840   -0.3424 H   0  0  0  0  0  0  0  0  0  0  0  0
    1.1815    2.1474    0.6079 H   0  0  0  0  0  0  0  0  0  0  0  0
    1.5771    1.6671   -1.0474 H   0  0  0  0  0  0  0  0  0  0  0  0
   -3.4718   -1.7980   -0.4891 H   0  0  0  0  0  0  0  0  0  0  0  0
   -2.8365   -0.7500   -1.7472 H   0  0  0  0  0  0  0  0  0  0  0  0
   -2.6825    1.8544   -1.2376 H   0  0  0  0  0  0  0  0  0  0  0  0
   -3.1827    2.3981    0.3605 H   0  0  0  0  0  0  0  0  0  0  0  0
   -3.7122    0.1127    1.0506 H   0  0  0  0  0  0  0  0  0  0  0  0
   -4.5267    0.4574   -0.4689 H   0  0  0  0  0  0  0  0  0  0  0  0
    3.5045   -2.0405   -0.6707 H   0  0  0  0  0  0  0  0  0  0  0  0
    3.0412   -1.5586    0.9595 H   0  0  0  0  0  0  0  0  0  0  0  0
    3.0999    1.0478    1.5315 H   0  0  0  0  0  0  0  0  0  0  0  0
    3.5974    2.1483    0.2488 H   0  0  0  0  0  0  0  0  0  0  0  0
    4.7855   -0.0482    0.1293 H   0  0  0  0  0  0  0  0  0  0  0  0
    3.8604    0.2929   -1.3311 H   0  0  0  0  0  0  0  0  0  0  0  0
   -0.4406   -2.0213    1.5797 H   0  0  0  0  0  0  0  0  0  0  0  0
   -1.7675   -0.9312    2.0058 H   0  0  0  0  0  0  0  0  0  0  0  0
   -2.1038   -2.5381    1.3531 H   0  0  0  0  0  0  0  0  0  0  0  0
  1  2  1  0  0  0  0
  1  3  1  0  0  0  0
  1  4  1  0  0  0  0
  1 14  1  0  0  0  0
  2  5  1  0  0  0  0
  2  6  1  0  0  0  0
  2 15  1  0  0  0  0
  3  7  1  0  0  0  0
  3 13  1  0  0  0  0
  3 16  1  0  0  0  0
  4  8  1  0  0  0  0
  4 17  1  0  0  0  0
  4 18  1  0  0  0  0
  5 10  1  0  0  0  0
  5 19  1  0  0  0  0
  5 20  1  0  0  0  0
  6 11  1  0  0  0  0
  6 21  1  0  0  0  0
  6 22  1  0  0  0  0
  7  9  1  0  0  0  0
  7 23  1  0  0  0  0
  7 24  1  0  0  0  0
  8  9  1  0  0  0  0
  8 25  1  0  0  0  0
  8 26  1  0  0  0  0
  9 27  1  0  0  0  0
  9 28  1  0  0  0  0
 10 12  1  0  0  0  0
 10 29  1  0  0  0  0
 10 30  1  0  0  0  0
 11 12  1  0  0  0  0
 11 31  1  0  0  0  0
 11 32  1  0  0  0  0
 12 33  1  0  0  0  0
 12 34  1  0  0  0  0
 13 35  1  0  0  0  0
 13 36  1  0  0  0  0
 13 37  1  0  0  0  0
M  END
> <PUBCHEM_COMPOUND_CID>
142801

> <PUBCHEM_CONFORMER_RMSD>
0.6

> <PUBCHEM_CONFORMER_DIVERSEORDER>
1
16
8
4
12
11
6
13
5
2
17
14
15
3
7
10
9

> <PUBCHEM_MMFF94_PARTIAL_CHARGES>
0

> <PUBCHEM_EFFECTIVE_ROTOR_COUNT>
3.4

> <PUBCHEM_PHARMACOPHORE_FEATURES>
2
6 1 3 4 7 8 9 rings
6 2 5 6 10 11 12 rings

> <PUBCHEM_HEAVY_ATOM_COUNT>
13

> <PUBCHEM_ATOM_DEF_STEREO_COUNT>
0

> <PUBCHEM_ATOM_UDEF_STEREO_COUNT>
2

> <PUBCHEM_BOND_DEF_STEREO_COUNT>
0

> <PUBCHEM_BOND_UDEF_STEREO_COUNT>
0

> <PUBCHEM_ISOTOPIC_ATOM_COUNT>
0

> <PUBCHEM_COMPONENT_COUNT>
1

> <PUBCHEM_CACTVS_TAUTO_COUNT>
1

> <PUBCHEM_CONFORMER_ID>
00022DD100000001

> <PUBCHEM_MMFF94_ENERGY>
17.4173

> <PUBCHEM_FEATURE_SELFOVERLAP>
10.149

> <PUBCHEM_SHAPE_FINGERPRINT>
10608611 8 18412539916385049200
11132069 177 18412254047519521360
12491281 212 18201166451034113329
12716758 59 18334012804624346891
12932764 1 17846499291738799060
13024252 1 11602818008632494663
13380535 76 18410572877113452158
13581323 91 18186524310510837501
14144814 61 18410854343552767928
14325111 11 18412824672595246884
14648413 74 18338236067531394160
15219456 202 18413389851678639480
15442244 35 18197216936726844106
15536298 74 18273211997973521356
15775835 57 18115307757000564717
16945 1 18265338480652617719
17990270 104 18341896264604695022
18186145 218 18261388901862973183
200 152 17561078116098185503
20201158 50 18413108355290616726
20279233 1 18410576218956574738
20528008 55 18410007745369171197
20645477 70 18131635560850687022
20653085 51 18271251508595713571
21501502 16 18412824677011312596
23402539 116 18337942476604591175
23402655 69 18270957955823261805
23463225 33 18411417293722538580
23552423 10 18335701667121508271
23559900 14 18270393889795307394
2748010 2 18412830213366582052
305870 269 17823127922302468451
3248919 1 18041277768009343980
5104073 3 18413106156151129130
6333449 129 18412543215051353205
69090 78 18343858910040027551
7364860 26 18270398261745291950
74978 22 17894916264708689164
8030462 33 18410018753586576878
8809292 202 18335425668449886514
93112 12 18341892991443801276
9709674 26 18412266146632454262

> <PUBCHEM_SHAPE_MULTIPOLES>
267.53
6.19
1.81
0.84
1.71
0.04
0.13
0.48
-0.44
-0.27
0.22
-0.19
-0.23
0.33

> <PUBCHEM_SHAPE_SELFOVERLAP>
532.22

> <PUBCHEM_SHAPE_VOLUME>
156.1

> <PUBCHEM_COORDINATE_TYPE>
2
5
10

$$$$
