101924759
  -OEChem-11012401153D

 54 57  0     1  0  0  0  0  0999 V2000
    1.1591    0.7870    0.8374 O   0  0  0  0  0  0  0  0  0  0  0  0
   -1.1586    0.7861   -0.8374 O   0  0  0  0  0  0  0  0  0  0  0  0
   -0.7614    1.9656    1.7194 N   0  0  1  0  0  0  0  0  0  0  0  0
    0.7616    1.9648   -1.7202 N   0  0  1  0  0  0  0  0  0  0  0  0
    0.3093    1.9309    0.7010 C   0  0  2  0  0  0  0  0  0  0  0  0
   -0.3091    1.9304   -0.7018 C   0  0  2  0  0  0  0  0  0  0  0  0
   -1.6934    0.8217    1.5636 C   0  0  2  0  0  0  0  0  0  0  0  0
    1.6937    0.8212   -1.5637 C   0  0  2  0  0  0  0  0  0  0  0  0
    2.2350    0.7987   -0.1070 C   0  0  2  0  0  0  0  0  0  0  0  0
   -2.2347    0.7984    0.1069 C   0  0  2  0  0  0  0  0  0  0  0  0
   -2.8644    0.9097    2.5575 C   0  0  0  0  0  0  0  0  0  0  0  0
    2.8648    0.9088   -2.5574 C   0  0  0  0  0  0  0  0  0  0  0  0
   -0.1770    2.0548    3.0601 C   0  0  0  0  0  0  0  0  0  0  0  0
    0.1772    2.0531   -3.0609 C   0  0  0  0  0  0  0  0  0  0  0  0
    3.0761   -0.4216    0.2108 C   0  0  0  0  0  0  0  0  0  0  0  0
   -3.0761   -0.4216   -0.2105 C   0  0  0  0  0  0  0  0  0  0  0  0
    2.4722   -1.5727    0.7163 C   0  0  0  0  0  0  0  0  0  0  0  0
   -2.4725   -1.5732   -0.7157 C   0  0  0  0  0  0  0  0  0  0  0  0
    4.4542   -0.3931   -0.0024 C   0  0  0  0  0  0  0  0  0  0  0  0
   -4.4542   -0.3925    0.0023 C   0  0  0  0  0  0  0  0  0  0  0  0
    3.2464   -2.6956    1.0089 C   0  0  0  0  0  0  0  0  0  0  0  0
   -3.2471   -2.6959   -1.0080 C   0  0  0  0  0  0  0  0  0  0  0  0
    5.2285   -1.5159    0.2901 C   0  0  0  0  0  0  0  0  0  0  0  0
   -5.2289   -1.5151   -0.2899 C   0  0  0  0  0  0  0  0  0  0  0  0
    4.6245   -2.6671    0.7958 C   0  0  0  0  0  0  0  0  0  0  0  0
   -4.6254   -2.6668   -0.7952 C   0  0  0  0  0  0  0  0  0  0  0  0
    0.9202    2.8373    0.8174 H   0  0  0  0  0  0  0  0  0  0  0  0
   -0.9204    2.8365   -0.8188 H   0  0  0  0  0  0  0  0  0  0  0  0
   -1.1468   -0.1119    1.7579 H   0  0  0  0  0  0  0  0  0  0  0  0
    1.1474   -0.1126   -1.7576 H   0  0  0  0  0  0  0  0  0  0  0  0
    2.8377    1.6963    0.0924 H   0  0  0  0  0  0  0  0  0  0  0  0
   -2.8371    1.6960   -0.0930 H   0  0  0  0  0  0  0  0  0  0  0  0
   -3.4601    1.8145    2.3950 H   0  0  0  0  0  0  0  0  0  0  0  0
   -2.5195    0.9116    3.5959 H   0  0  0  0  0  0  0  0  0  0  0  0
   -3.5247    0.0416    2.4809 H   0  0  0  0  0  0  0  0  0  0  0  0
    3.5250    0.0407   -2.4806 H   0  0  0  0  0  0  0  0  0  0  0  0
    2.5201    0.9105   -3.5959 H   0  0  0  0  0  0  0  0  0  0  0  0
    3.4606    1.8137   -2.3951 H   0  0  0  0  0  0  0  0  0  0  0  0
    0.2980    1.1172    3.3696 H   0  0  0  0  0  0  0  0  0  0  0  0
   -0.9294    2.3317    3.8044 H   0  0  0  0  0  0  0  0  0  0  0  0
    0.5780    2.8487    3.1027 H   0  0  0  0  0  0  0  0  0  0  0  0
   -0.2976    1.1153   -3.3700 H   0  0  0  0  0  0  0  0  0  0  0  0
    0.9296    2.3297   -3.8053 H   0  0  0  0  0  0  0  0  0  0  0  0
   -0.5779    2.8469   -3.1040 H   0  0  0  0  0  0  0  0  0  0  0  0
    1.3989   -1.6312    0.8761 H   0  0  0  0  0  0  0  0  0  0  0  0
   -1.3992   -1.6321   -0.8753 H   0  0  0  0  0  0  0  0  0  0  0  0
    4.9400    0.4992   -0.3881 H   0  0  0  0  0  0  0  0  0  0  0  0
   -4.9397    0.5001    0.3876 H   0  0  0  0  0  0  0  0  0  0  0  0
    2.7758   -3.5935    1.3987 H   0  0  0  0  0  0  0  0  0  0  0  0
   -2.7769   -3.5941   -1.3974 H   0  0  0  0  0  0  0  0  0  0  0  0
    6.3018   -1.4933    0.1257 H   0  0  0  0  0  0  0  0  0  0  0  0
   -6.3023   -1.4921   -0.1256 H   0  0  0  0  0  0  0  0  0  0  0  0
    5.2274   -3.5415    1.0230 H   0  0  0  0  0  0  0  0  0  0  0  0
   -5.2285   -3.5410   -1.0222 H   0  0  0  0  0  0  0  0  0  0  0  0
  1  5  1  0  0  0  0
  1  9  1  0  0  0  0
  2  6  1  0  0  0  0
  2 10  1  0  0  0  0
  3  5  1  0  0  0  0
  3  7  1  0  0  0  0
  3 13  1  0  0  0  0
  4  6  1  0  0  0  0
  4  8  1  0  0  0  0
  4 14  1  0  0  0  0
  5  6  1  0  0  0  0
  5 27  1  0  0  0  0
  6 28  1  0  0  0  0
  7 10  1  0  0  0  0
  7 11  1  0  0  0  0
  7 29  1  0  0  0  0
  8  9  1  0  0  0  0
  8 12  1  0  0  0  0
  8 30  1  0  0  0  0
  9 15  1  0  0  0  0
  9 31  1  0  0  0  0
 10 16  1  0  0  0  0
 10 32  1  0  0  0  0
 11 33  1  0  0  0  0
 11 34  1  0  0  0  0
 11 35  1  0  0  0  0
 12 36  1  0  0  0  0
 12 37  1  0  0  0  0
 12 38  1  0  0  0  0
 13 39  1  0  0  0  0
 13 40  1  0  0  0  0
 13 41  1  0  0  0  0
 14 42  1  0  0  0  0
 14 43  1  0  0  0  0
 14 44  1  0  0  0  0
 15 17  2  0  0  0  0
 15 19  1  0  0  0  0
 16 18  2  0  0  0  0
 16 20  1  0  0  0  0
 17 21  1  0  0  0  0
 17 45  1  0  0  0  0
 18 22  1  0  0  0  0
 18 46  1  0  0  0  0
 19 23  2  0  0  0  0
 19 47  1  0  0  0  0
 20 24  2  0  0  0  0
 20 48  1  0  0  0  0
 21 25  2  0  0  0  0
 21 49  1  0  0  0  0
 22 26  2  0  0  0  0
 22 50  1  0  0  0  0
 23 25  1  0  0  0  0
 23 51  1  0  0  0  0
 24 26  1  0  0  0  0
 24 52  1  0  0  0  0
 25 53  1  0  0  0  0
 26 54  1  0  0  0  0
M  END
> <PUBCHEM_COMPOUND_CID>
101924759

> <PUBCHEM_CONFORMER_RMSD>
0.8

> <PUBCHEM_CONFORMER_DIVERSEORDER>
1
2

> <PUBCHEM_MMFF94_PARTIAL_CHARGES>
34
1 -0.56
10 0.42
13 0.27
14 0.27
15 -0.14
16 -0.14
17 -0.15
18 -0.15
19 -0.15
2 -0.56
20 -0.15
21 -0.15
22 -0.15
23 -0.15
24 -0.15
25 -0.15
26 -0.15
3 -0.81
4 -0.81
45 0.15
46 0.15
47 0.15
48 0.15
49 0.15
5 0.55
50 0.15
51 0.15
52 0.15
53 0.15
54 0.15
6 0.55
7 0.27
8 0.27
9 0.42

> <PUBCHEM_EFFECTIVE_ROTOR_COUNT>
3.6

> <PUBCHEM_PHARMACOPHORE_FEATURES>
8
1 1 acceptor
1 2 acceptor
1 3 cation
1 4 cation
6 1 4 5 6 8 9 rings
6 15 17 19 21 23 25 rings
6 16 18 20 22 24 26 rings
6 2 3 5 6 7 10 rings

> <PUBCHEM_HEAVY_ATOM_COUNT>
26

> <PUBCHEM_ATOM_DEF_STEREO_COUNT>
6

> <PUBCHEM_ATOM_UDEF_STEREO_COUNT>
0

> <PUBCHEM_BOND_DEF_STEREO_COUNT>
0

> <PUBCHEM_BOND_UDEF_STEREO_COUNT>
0

> <PUBCHEM_ISOTOPIC_ATOM_COUNT>
0

> <PUBCHEM_COMPONENT_COUNT>
1

> <PUBCHEM_CACTVS_TAUTO_COUNT>
1

> <PUBCHEM_CONFORMER_ID>
06133F9700000001

> <PUBCHEM_MMFF94_ENERGY>
74.3496

> <PUBCHEM_FEATURE_SELFOVERLAP>
40.709

> <PUBCHEM_SHAPE_FINGERPRINT>
10042902 136 18269005210804687094
11552529 35 18123462783657820162
11578080 2 18338496599905275589
11796584 16 18200602500812144287
12596599 1 18198067980196830646
12788726 201 17774457069483873537
12824470 246 18413668006592889505
13009979 54 18340497698372109090
13103583 49 17846503629798479139
13149001 5 15719686449192608212
13533116 47 17840574114431196751
13544653 18 18260551082909079456
13583140 156 16986288501795635490
13726171 33 17201947991767144304
13911987 19 16882482754166247228
14178342 30 17631185107810086931
14251757 17 15791731905647397027
14705955 166 15554180176911040675
14787075 74 17769931604341905704
15475509 35 17981887751047859155
17138139 8 18052258685294646014
17357779 13 17095812018847698740
1813 80 18188221909214482046
19784866 240 18409451379790648599
20600515 1 17703236113453268129
20626108 58 18337101380126433447
20645477 70 17241053213724655212
20775530 9 18337658780692639803
21304303 94 17606109830706936115
21421861 104 17844823670615158083
21475661 188 10663832909031528179
23419403 2 17912889976856215920
23557571 272 16845024424004618283
23559900 14 18198043958755714305
238 59 17097502139527782469
25222932 49 17197409345485901023
2838139 119 8358255951735835402
392239 28 17988068006874914250
437795 70 17461125878395394655
46194498 28 16950839336008777823
463206 1 18334576888402239795
469060 322 18041554733576914186
484985 159 17835793102290872082
5104073 3 17272579597572416115
59025328 239 18114735031564402517
633830 44 16298379193695845885
66674814 147 18040710389919111818
6913067 236 17967805060263911056
9841814 1 17487629743352439753

> <PUBCHEM_SHAPE_MULTIPOLES>
513.37
9.61
3.24
2.52
0
1.4
0
10.15
0
0
0
0
-2.3
-2.81

> <PUBCHEM_SHAPE_SELFOVERLAP>
1098.937

> <PUBCHEM_SHAPE_VOLUME>
280.6

> <PUBCHEM_COORDINATE_TYPE>
2
5
10

$$$$
