12740390
  -OEChem-11012401163D

 24 25  0     1  0  0  0  0  0999 V2000
   -3.2352   -1.0631   -0.2581 O   0  0  0  0  0  0  0  0  0  0  0  0
   -2.0573    0.9613    1.3388 O   0  0  0  0  0  0  0  0  0  0  0  0
   -1.9642   -0.5072   -0.5798 C   0  0  1  0  0  0  0  0  0  0  0  0
   -1.9085    0.9360   -0.0821 C   0  0  2  0  0  0  0  0  0  0  0  0
   -0.8585   -1.3547    0.0514 C   0  0  0  0  0  0  0  0  0  0  0  0
   -0.5768    1.5836   -0.4688 C   0  0  0  0  0  0  0  0  0  0  0  0
    0.4916   -0.6862    0.0044 C   0  0  0  0  0  0  0  0  0  0  0  0
    0.6223    0.6993   -0.2078 C   0  0  0  0  0  0  0  0  0  0  0  0
    1.6405   -1.4602    0.2279 C   0  0  0  0  0  0  0  0  0  0  0  0
    1.9029    1.2740   -0.2274 C   0  0  0  0  0  0  0  0  0  0  0  0
    2.9059   -0.8745    0.2158 C   0  0  0  0  0  0  0  0  0  0  0  0
    3.0372    0.4917   -0.0143 C   0  0  0  0  0  0  0  0  0  0  0  0
   -1.8679   -0.5200   -1.6721 H   0  0  0  0  0  0  0  0  0  0  0  0
   -2.7384    1.5218   -0.4937 H   0  0  0  0  0  0  0  0  0  0  0  0
   -0.8198   -2.3198   -0.4697 H   0  0  0  0  0  0  0  0  0  0  0  0
   -1.1001   -1.5825    1.0979 H   0  0  0  0  0  0  0  0  0  0  0  0
   -0.4564    2.5195    0.0907 H   0  0  0  0  0  0  0  0  0  0  0  0
   -0.5882    1.8203   -1.5399 H   0  0  0  0  0  0  0  0  0  0  0  0
    1.5535   -2.5284    0.4116 H   0  0  0  0  0  0  0  0  0  0  0  0
    2.0215    2.3397   -0.4085 H   0  0  0  0  0  0  0  0  0  0  0  0
   -3.2893   -1.1650    0.7069 H   0  0  0  0  0  0  0  0  0  0  0  0
   -2.9596    0.6646    1.5447 H   0  0  0  0  0  0  0  0  0  0  0  0
    3.7882   -1.4845    0.3857 H   0  0  0  0  0  0  0  0  0  0  0  0
    4.0222    0.9487   -0.0277 H   0  0  0  0  0  0  0  0  0  0  0  0
  1  3  1  0  0  0  0
  1 21  1  0  0  0  0
  2  4  1  0  0  0  0
  2 22  1  0  0  0  0
  3  4  1  0  0  0  0
  3  5  1  0  0  0  0
  3 13  1  0  0  0  0
  4  6  1  0  0  0  0
  4 14  1  0  0  0  0
  5  7  1  0  0  0  0
  5 15  1  0  0  0  0
  5 16  1  0  0  0  0
  6  8  1  0  0  0  0
  6 17  1  0  0  0  0
  6 18  1  0  0  0  0
  7  8  1  0  0  0  0
  7  9  2  0  0  0  0
  8 10  2  0  0  0  0
  9 11  1  0  0  0  0
  9 19  1  0  0  0  0
 10 12  1  0  0  0  0
 10 20  1  0  0  0  0
 11 12  2  0  0  0  0
 11 23  1  0  0  0  0
 12 24  1  0  0  0  0
M  END
> <PUBCHEM_COMPOUND_CID>
12740390

> <PUBCHEM_CONFORMER_RMSD>
0.4

> <PUBCHEM_CONFORMER_DIVERSEORDER>
1
2

> <PUBCHEM_MMFF94_PARTIAL_CHARGES>
18
1 -0.68
10 -0.15
11 -0.15
12 -0.15
19 0.15
2 -0.68
20 0.15
21 0.4
22 0.4
23 0.15
24 0.15
3 0.28
4 0.28
5 0.14
6 0.14
7 -0.14
8 -0.14
9 -0.15

> <PUBCHEM_EFFECTIVE_ROTOR_COUNT>
0.8

> <PUBCHEM_PHARMACOPHORE_FEATURES>
6
1 1 acceptor
1 1 donor
1 2 acceptor
1 2 donor
6 3 4 5 6 7 8 rings
6 7 8 9 10 11 12 rings

> <PUBCHEM_HEAVY_ATOM_COUNT>
12

> <PUBCHEM_ATOM_DEF_STEREO_COUNT>
2

> <PUBCHEM_ATOM_UDEF_STEREO_COUNT>
0

> <PUBCHEM_BOND_DEF_STEREO_COUNT>
0

> <PUBCHEM_BOND_UDEF_STEREO_COUNT>
0

> <PUBCHEM_ISOTOPIC_ATOM_COUNT>
0

> <PUBCHEM_COMPONENT_COUNT>
1

> <PUBCHEM_CACTVS_TAUTO_COUNT>
1

> <PUBCHEM_CONFORMER_ID>
00C2672600000001

> <PUBCHEM_MMFF94_ENERGY>
28.6118

> <PUBCHEM_FEATURE_SELFOVERLAP>
30.473

> <PUBCHEM_SHAPE_FINGERPRINT>
12423570 1 14954306063095930765
12491281 212 18270694086001588200
12524768 44 18266463113702591110
12696612 119 18336273361908036028
12897270 3 18335977640313710630
12932764 1 18188777132658640508
14144814 61 18409727348608671346
14325111 11 18410290302814978892
15775835 57 18411426080993679936
16945 1 18334016077473750828
17844478 74 17822024068251889345
20201158 50 18261105309330560106
21501502 16 18410856529870411124
23463225 33 18335699425401839302
23552423 10 18260547805638100974
241688 4 18335696122376991825
2748010 2 16896799065168008206
369184 2 18335699412290103525
5084963 1 18412537704434239096
528886 8 18408878529673710050
63268167 104 18408601448474988392

> <PUBCHEM_SHAPE_MULTIPOLES>
235.22
4.41
1.71
0.78
0.26
0.03
0.14
-0.55
0.13
-0.01
-0.04
-0.3
0.11
-0.34

> <PUBCHEM_SHAPE_SELFOVERLAP>
500.42

> <PUBCHEM_SHAPE_VOLUME>
130.2

> <PUBCHEM_COORDINATE_TYPE>
2
5
10

$$$$
