11791
  -OEChem-11012400513D

 48 48  0     0  0  0  0  0  0999 V2000
   -0.2167   -1.3777   -0.0002 C   0  0  0  0  0  0  0  0  0  0  0  0
   -1.3017   -0.5012   -0.0002 C   0  0  0  0  0  0  0  0  0  0  0  0
    1.0850   -0.8763   -0.0004 C   0  0  0  0  0  0  0  0  0  0  0  0
   -1.0850    0.8767   -0.0004 C   0  0  0  0  0  0  0  0  0  0  0  0
    1.3018    0.5017   -0.0006 C   0  0  0  0  0  0  0  0  0  0  0  0
    0.2166    1.3783   -0.0006 C   0  0  0  0  0  0  0  0  0  0  0  0
   -0.4489   -2.8559    0.0005 C   0  0  0  0  0  0  0  0  0  0  0  0
   -2.6980   -1.0393    0.0004 C   0  0  0  0  0  0  0  0  0  0  0  0
    2.2488   -1.8174   -0.0005 C   0  0  0  0  0  0  0  0  0  0  0  0
   -2.2493    1.8170   -0.0009 C   0  0  0  0  0  0  0  0  0  0  0  0
    2.6980    1.0394    0.0000 C   0  0  0  0  0  0  0  0  0  0  0  0
    0.4486    2.8566    0.0010 C   0  0  0  0  0  0  0  0  0  0  0  0
   -0.5388   -3.4252   -1.4109 C   0  0  0  0  0  0  0  0  0  0  0  0
   -3.2348   -1.2458    1.4123 C   0  0  0  0  0  0  0  0  0  0  0  0
    2.6964   -2.1790    1.4112 C   0  0  0  0  0  0  0  0  0  0  0  0
   -2.6967    2.1783   -1.4129 C   0  0  0  0  0  0  0  0  0  0  0  0
    3.2360    1.2460   -1.4115 C   0  0  0  0  0  0  0  0  0  0  0  0
    0.5386    3.4237    1.4134 C   0  0  0  0  0  0  0  0  0  0  0  0
    0.3262   -3.3930    0.5550 H   0  0  0  0  0  0  0  0  0  0  0  0
   -1.3511   -3.1292    0.5554 H   0  0  0  0  0  0  0  0  0  0  0  0
   -3.3864   -0.3947   -0.5541 H   0  0  0  0  0  0  0  0  0  0  0  0
   -2.7759   -1.9792   -0.5537 H   0  0  0  0  0  0  0  0  0  0  0  0
    2.0342   -2.7356   -0.5551 H   0  0  0  0  0  0  0  0  0  0  0  0
    3.1016   -1.4148   -0.5548 H   0  0  0  0  0  0  0  0  0  0  0  0
   -3.1021    1.4145    0.5534 H   0  0  0  0  0  0  0  0  0  0  0  0
   -2.0351    2.7354    0.5535 H   0  0  0  0  0  0  0  0  0  0  0  0
    2.7758    1.9793    0.5543 H   0  0  0  0  0  0  0  0  0  0  0  0
    3.3858    0.3946    0.5548 H   0  0  0  0  0  0  0  0  0  0  0  0
    1.3510    3.1306   -0.5535 H   0  0  0  0  0  0  0  0  0  0  0  0
   -0.3265    3.3944   -0.5527 H   0  0  0  0  0  0  0  0  0  0  0  0
   -1.3607   -2.9806   -1.9806 H   0  0  0  0  0  0  0  0  0  0  0  0
   -0.7086   -4.5061   -1.3680 H   0  0  0  0  0  0  0  0  0  0  0  0
    0.3795   -3.2539   -1.9812 H   0  0  0  0  0  0  0  0  0  0  0  0
   -2.6268   -1.9551    1.9824 H   0  0  0  0  0  0  0  0  0  0  0  0
   -4.2557   -1.6393    1.3704 H   0  0  0  0  0  0  0  0  0  0  0  0
   -3.2603   -0.3115    1.9818 H   0  0  0  0  0  0  0  0  0  0  0  0
    3.0077   -1.2979    1.9810 H   0  0  0  0  0  0  0  0  0  0  0  0
    3.5473   -2.8669    1.3690 H   0  0  0  0  0  0  0  0  0  0  0  0
    1.9001   -2.6675    1.9814 H   0  0  0  0  0  0  0  0  0  0  0  0
   -1.9005    2.6675   -1.9826 H   0  0  0  0  0  0  0  0  0  0  0  0
   -3.5479    2.8657   -1.3710 H   0  0  0  0  0  0  0  0  0  0  0  0
   -3.0070    1.2969   -1.9827 H   0  0  0  0  0  0  0  0  0  0  0  0
    3.2612    0.3120   -1.9815 H   0  0  0  0  0  0  0  0  0  0  0  0
    4.2572    1.6388   -1.3687 H   0  0  0  0  0  0  0  0  0  0  0  0
    2.6289    1.9561   -1.9816 H   0  0  0  0  0  0  0  0  0  0  0  0
   -0.3799    3.2518    1.9831 H   0  0  0  0  0  0  0  0  0  0  0  0
    0.7087    4.5045    1.3723 H   0  0  0  0  0  0  0  0  0  0  0  0
    1.3601    2.9779    1.9827 H   0  0  0  0  0  0  0  0  0  0  0  0
  1  2  2  0  0  0  0
  1  3  1  0  0  0  0
  1  7  1  0  0  0  0
  2  4  1  0  0  0  0
  2  8  1  0  0  0  0
  3  5  2  0  0  0  0
  3  9  1  0  0  0  0
  4  6  2  0  0  0  0
  4 10  1  0  0  0  0
  5  6  1  0  0  0  0
  5 11  1  0  0  0  0
  6 12  1  0  0  0  0
  7 13  1  0  0  0  0
  7 19  1  0  0  0  0
  7 20  1  0  0  0  0
  8 14  1  0  0  0  0
  8 21  1  0  0  0  0
  8 22  1  0  0  0  0
  9 15  1  0  0  0  0
  9 23  1  0  0  0  0
  9 24  1  0  0  0  0
 10 16  1  0  0  0  0
 10 25  1  0  0  0  0
 10 26  1  0  0  0  0
 11 17  1  0  0  0  0
 11 27  1  0  0  0  0
 11 28  1  0  0  0  0
 12 18  1  0  0  0  0
 12 29  1  0  0  0  0
 12 30  1  0  0  0  0
 13 31  1  0  0  0  0
 13 32  1  0  0  0  0
 13 33  1  0  0  0  0
 14 34  1  0  0  0  0
 14 35  1  0  0  0  0
 14 36  1  0  0  0  0
 15 37  1  0  0  0  0
 15 38  1  0  0  0  0
 15 39  1  0  0  0  0
 16 40  1  0  0  0  0
 16 41  1  0  0  0  0
 16 42  1  0  0  0  0
 17 43  1  0  0  0  0
 17 44  1  0  0  0  0
 17 45  1  0  0  0  0
 18 46  1  0  0  0  0
 18 47  1  0  0  0  0
 18 48  1  0  0  0  0
M  END
> <PUBCHEM_COMPOUND_CID>
11791

> <PUBCHEM_CONFORMER_RMSD>
0.8

> <PUBCHEM_CONFORMER_DIVERSEORDER>
1
2

> <PUBCHEM_MMFF94_PARTIAL_CHARGES>
12
1 -0.14
10 0.14
11 0.14
12 0.14
2 -0.14
3 -0.14
4 -0.14
5 -0.14
6 -0.14
7 0.14
8 0.14
9 0.14

> <PUBCHEM_EFFECTIVE_ROTOR_COUNT>
6

> <PUBCHEM_PHARMACOPHORE_FEATURES>
7
1 13 hydrophobe
1 14 hydrophobe
1 15 hydrophobe
1 16 hydrophobe
1 17 hydrophobe
1 18 hydrophobe
6 1 2 3 4 5 6 rings

> <PUBCHEM_HEAVY_ATOM_COUNT>
18

> <PUBCHEM_ATOM_DEF_STEREO_COUNT>
0

> <PUBCHEM_ATOM_UDEF_STEREO_COUNT>
0

> <PUBCHEM_BOND_DEF_STEREO_COUNT>
0

> <PUBCHEM_BOND_UDEF_STEREO_COUNT>
0

> <PUBCHEM_ISOTOPIC_ATOM_COUNT>
0

> <PUBCHEM_COMPONENT_COUNT>
1

> <PUBCHEM_CACTVS_TAUTO_COUNT>
1

> <PUBCHEM_CONFORMER_ID>
00002E0F00000001

> <PUBCHEM_MMFF94_ENERGY>
51.3224

> <PUBCHEM_FEATURE_SELFOVERLAP>
35.527

> <PUBCHEM_SHAPE_FINGERPRINT>
10906281 52 17906454320719179244
10967382 1 18266461103525800243
11680986 33 18263918835511853538
13140716 1 17834396004904862178
13380535 76 17832975058236318151
13544592 271 18050833438920038547
14178342 30 17333089131955909057
14790565 3 18121244196558092737
15490181 7 18194955468620132549
15490181 8 17834967364499324036
16945 1 18267016352550092806
19591789 44 18266192805487648220
20511035 2 18263350417738055554
20691752 17 17541653258982104016
20739085 24 18122096180550758889
20905425 154 18408612469408679270
21501502 16 18334859377127764901
2334 1 18410573976561516551
23419403 2 16601737724052464566
23559900 14 18124876755949380318
238 59 18194372624889958429
2748010 2 18411136896455454646
352729 6 18194402186585178117
5255222 1 18266740375184430949
59554788 191 18190167997472111079
81228 2 16825307229854924121
90316 7 16966569125465685393

> <PUBCHEM_SHAPE_MULTIPOLES>
370.43
4.34
4.34
1.28
0
0
0
0
0
0
0
0
0
0

> <PUBCHEM_SHAPE_SELFOVERLAP>
748.009

> <PUBCHEM_SHAPE_VOLUME>
215.8

> <PUBCHEM_COORDINATE_TYPE>
2
5
10

$$$$
