138575
  -OEChem-11012401153D

 31 30  0     0  0  0  0  0  0999 V2000
   -0.9056    1.6579    0.6693 O   0  0  0  0  0  0  0  0  0  0  0  0
   -2.1991    0.8942   -1.2037 O   0  0  0  0  0  0  0  0  0  0  0  0
    1.4471    1.9396    0.6475 O   0  0  0  0  0  0  0  0  0  0  0  0
   -1.5131   -1.0315   -0.0065 O   0  0  0  0  0  0  0  0  0  0  0  0
    1.8931   -0.3693    0.1750 O   0  0  0  0  0  0  0  0  0  0  0  0
   -2.1202    1.7620   -0.0722 C   0  0  0  0  0  0  0  0  0  0  0  0
    0.2382    1.9971   -0.1118 C   0  0  0  0  0  0  0  0  0  0  0  0
   -2.5053   -0.4563   -0.8527 C   0  0  0  0  0  0  0  0  0  0  0  0
    1.7157    0.6382    1.1705 C   0  0  0  0  0  0  0  0  0  0  0  0
   -1.8007   -2.3896    0.2953 C   0  0  0  0  0  0  0  0  0  0  0  0
    3.1764   -0.3052   -0.4326 C   0  0  0  0  0  0  0  0  0  0  0  0
   -0.7117   -2.9362    1.1936 C   0  0  0  0  0  0  0  0  0  0  0  0
    3.2852   -1.4008   -1.4717 C   0  0  0  0  0  0  0  0  0  0  0  0
   -2.2264    2.7914   -0.4325 H   0  0  0  0  0  0  0  0  0  0  0  0
   -2.9585    1.5734    0.6079 H   0  0  0  0  0  0  0  0  0  0  0  0
    0.1367    3.0269   -0.4702 H   0  0  0  0  0  0  0  0  0  0  0  0
    0.3253    1.3360   -0.9816 H   0  0  0  0  0  0  0  0  0  0  0  0
   -2.5588   -1.0246   -1.7872 H   0  0  0  0  0  0  0  0  0  0  0  0
   -3.4877   -0.4900   -0.3668 H   0  0  0  0  0  0  0  0  0  0  0  0
    0.8888    0.3285    1.8188 H   0  0  0  0  0  0  0  0  0  0  0  0
    2.6053    0.7019    1.8075 H   0  0  0  0  0  0  0  0  0  0  0  0
   -2.7684   -2.4578    0.8045 H   0  0  0  0  0  0  0  0  0  0  0  0
   -1.8436   -2.9742   -0.6304 H   0  0  0  0  0  0  0  0  0  0  0  0
    3.3127    0.6719   -0.9089 H   0  0  0  0  0  0  0  0  0  0  0  0
    3.9537   -0.4426    0.3272 H   0  0  0  0  0  0  0  0  0  0  0  0
    0.2634   -2.8726    0.6994 H   0  0  0  0  0  0  0  0  0  0  0  0
   -0.6399   -2.3483    2.1147 H   0  0  0  0  0  0  0  0  0  0  0  0
   -0.9069   -3.9801    1.4545 H   0  0  0  0  0  0  0  0  0  0  0  0
    3.1384   -2.3838   -1.0122 H   0  0  0  0  0  0  0  0  0  0  0  0
    2.5073   -1.2871   -2.2340 H   0  0  0  0  0  0  0  0  0  0  0  0
    4.2635   -1.3814   -1.9598 H   0  0  0  0  0  0  0  0  0  0  0  0
  1  6  1  0  0  0  0
  1  7  1  0  0  0  0
  2  6  1  0  0  0  0
  2  8  1  0  0  0  0
  3  7  1  0  0  0  0
  3  9  1  0  0  0  0
  4  8  1  0  0  0  0
  4 10  1  0  0  0  0
  5  9  1  0  0  0  0
  5 11  1  0  0  0  0
  6 14  1  0  0  0  0
  6 15  1  0  0  0  0
  7 16  1  0  0  0  0
  7 17  1  0  0  0  0
  8 18  1  0  0  0  0
  8 19  1  0  0  0  0
  9 20  1  0  0  0  0
  9 21  1  0  0  0  0
 10 12  1  0  0  0  0
 10 22  1  0  0  0  0
 10 23  1  0  0  0  0
 11 13  1  0  0  0  0
 11 24  1  0  0  0  0
 11 25  1  0  0  0  0
 12 26  1  0  0  0  0
 12 27  1  0  0  0  0
 12 28  1  0  0  0  0
 13 29  1  0  0  0  0
 13 30  1  0  0  0  0
 13 31  1  0  0  0  0
M  END
> <PUBCHEM_COMPOUND_CID>
138575

> <PUBCHEM_CONFORMER_RMSD>
0.8

> <PUBCHEM_CONFORMER_DIVERSEORDER>
1
21
120
85
17
71
116
29
133
103
79
14
65
48
129
87
56
35
135
139
3
4
18
91
53
88
74
134
66
93
108
49
137
90
92
96
124
60
51
16
82
6
113
109
136
98
44
115
58
54
2
138
33
123
27
125
86
95
30
50
70
89
100
110
57
42
39
78
37
76
63
26
117
12
102
106
132
73
20
13
104
28
126
75
31
24
38
128
130
55
43
119
107
83
59
105
46
25
121
41
64
62
11
81
101
32
40
131
15
80
61
99
122
72
5
127
77
84
69
22
114
140
47
94
45
97
36
112
118
67
52
7
9
8
111
23
34
68
19
10

> <PUBCHEM_MMFF94_PARTIAL_CHARGES>
11
1 -0.56
10 0.28
11 0.28
2 -0.56
3 -0.56
4 -0.56
5 -0.56
6 0.56
7 0.56
8 0.56
9 0.56

> <PUBCHEM_EFFECTIVE_ROTOR_COUNT>
10

> <PUBCHEM_PHARMACOPHORE_FEATURES>
5
1 1 acceptor
1 2 acceptor
1 3 acceptor
1 4 acceptor
1 5 acceptor

> <PUBCHEM_HEAVY_ATOM_COUNT>
13

> <PUBCHEM_ATOM_DEF_STEREO_COUNT>
0

> <PUBCHEM_ATOM_UDEF_STEREO_COUNT>
0

> <PUBCHEM_BOND_DEF_STEREO_COUNT>
0

> <PUBCHEM_BOND_UDEF_STEREO_COUNT>
0

> <PUBCHEM_ISOTOPIC_ATOM_COUNT>
0

> <PUBCHEM_COMPONENT_COUNT>
1

> <PUBCHEM_CACTVS_TAUTO_COUNT>
1

> <PUBCHEM_CONFORMER_ID>
00021D4F00000001

> <PUBCHEM_MMFF94_ENERGY>
21.5338

> <PUBCHEM_FEATURE_SELFOVERLAP>
25.515

> <PUBCHEM_SHAPE_FINGERPRINT>
14251711 518 16609976033962081779
14251745 187 18272646810305345490
15415430 2 18411420579056067311
19766037 51 18194138518627526326
20201158 50 18123734603025731825
20645476 183 17895481314758823510
20645477 70 16533974049582122851
20724930 14 16967737949027075619
20871999 31 18338805519906929412
22713034 7 17263272333767185991
22802520 49 18343024414800068178
2748010 2 18122333837980874067
2897 32 17328860998335018778
57483677 78 18263087634527653862
598444 67 18409738352462687167
66348 1 18337658737826687483
8809292 202 18411418410450971650

> <PUBCHEM_SHAPE_MULTIPOLES>
238.19
4.74
3.18
1.24
3.02
1.26
0.1
1.11
1.95
-1.45
-0.93
0.37
0.31
1.13

> <PUBCHEM_SHAPE_SELFOVERLAP>
427.182

> <PUBCHEM_SHAPE_VOLUME>
151

> <PUBCHEM_COORDINATE_TYPE>
2
5
10

$$$$
