73918
  -OEChem-11012400393D

 29 29  0     0  0  0  0  0  0999 V2000
    0.5791    1.8821    1.2208 O   0  0  0  0  0  0  0  0  0  0  0  0
   -0.4863   -1.5474    0.7677 C   0  0  0  0  0  0  0  0  0  0  0  0
    0.3335   -1.8023   -0.4966 C   0  0  0  0  0  0  0  0  0  0  0  0
   -1.9826   -1.3905    0.5016 C   0  0  0  0  0  0  0  0  0  0  0  0
    1.8433   -1.6758   -0.2878 C   0  0  0  0  0  0  0  0  0  0  0  0
   -2.4006   -0.2812   -0.4729 C   0  0  0  0  0  0  0  0  0  0  0  0
    2.3502   -0.3122    0.2051 C   0  0  0  0  0  0  0  0  0  0  0  0
   -1.9554    1.1442   -0.1096 C   0  0  0  0  0  0  0  0  0  0  0  0
    1.8213    0.8929   -0.5757 C   0  0  0  0  0  0  0  0  0  0  0  0
   -0.6718    1.6101   -0.8080 C   0  0  0  0  0  0  0  0  0  0  0  0
    0.5691    1.4800    0.0554 C   0  0  0  0  0  0  0  0  0  0  0  0
   -0.3411   -2.3925    1.4528 H   0  0  0  0  0  0  0  0  0  0  0  0
   -0.1343   -0.6708    1.3135 H   0  0  0  0  0  0  0  0  0  0  0  0
    0.0378   -1.1342   -1.3083 H   0  0  0  0  0  0  0  0  0  0  0  0
    0.1148   -2.8159   -0.8562 H   0  0  0  0  0  0  0  0  0  0  0  0
   -2.4839   -1.2178    1.4625 H   0  0  0  0  0  0  0  0  0  0  0  0
   -2.3747   -2.3428    0.1227 H   0  0  0  0  0  0  0  0  0  0  0  0
    2.3349   -1.9013   -1.2429 H   0  0  0  0  0  0  0  0  0  0  0  0
    2.1780   -2.4475    0.4164 H   0  0  0  0  0  0  0  0  0  0  0  0
   -3.4993   -0.2857   -0.4870 H   0  0  0  0  0  0  0  0  0  0  0  0
   -2.1017   -0.5345   -1.4959 H   0  0  0  0  0  0  0  0  0  0  0  0
    3.4443   -0.3246    0.1171 H   0  0  0  0  0  0  0  0  0  0  0  0
    2.1374   -0.2090    1.2754 H   0  0  0  0  0  0  0  0  0  0  0  0
   -1.9018    1.2641    0.9781 H   0  0  0  0  0  0  0  0  0  0  0  0
   -2.7545    1.8161   -0.4509 H   0  0  0  0  0  0  0  0  0  0  0  0
    1.6511    0.6438   -1.6274 H   0  0  0  0  0  0  0  0  0  0  0  0
    2.5686    1.6960   -0.5637 H   0  0  0  0  0  0  0  0  0  0  0  0
   -0.7541    2.6788   -1.0433 H   0  0  0  0  0  0  0  0  0  0  0  0
   -0.5323    1.0950   -1.7626 H   0  0  0  0  0  0  0  0  0  0  0  0
  1 11  2  0  0  0  0
  2  3  1  0  0  0  0
  2  4  1  0  0  0  0
  2 12  1  0  0  0  0
  2 13  1  0  0  0  0
  3  5  1  0  0  0  0
  3 14  1  0  0  0  0
  3 15  1  0  0  0  0
  4  6  1  0  0  0  0
  4 16  1  0  0  0  0
  4 17  1  0  0  0  0
  5  7  1  0  0  0  0
  5 18  1  0  0  0  0
  5 19  1  0  0  0  0
  6  8  1  0  0  0  0
  6 20  1  0  0  0  0
  6 21  1  0  0  0  0
  7  9  1  0  0  0  0
  7 22  1  0  0  0  0
  7 23  1  0  0  0  0
  8 10  1  0  0  0  0
  8 24  1  0  0  0  0
  8 25  1  0  0  0  0
  9 11  1  0  0  0  0
  9 26  1  0  0  0  0
  9 27  1  0  0  0  0
 10 11  1  0  0  0  0
 10 28  1  0  0  0  0
 10 29  1  0  0  0  0
M  END
> <PUBCHEM_COMPOUND_CID>
73918

> <PUBCHEM_CONFORMER_RMSD>
0.4

> <PUBCHEM_CONFORMER_DIVERSEORDER>
1
36
30
6
28
21
33
34
32
31
29
26
10
24
35
19
27
23
16
25
13
20
22
17
11
8
14
18
15
12
5
7
3
2
4
9

> <PUBCHEM_MMFF94_PARTIAL_CHARGES>
4
1 -0.57
10 0.06
11 0.45
9 0.06

> <PUBCHEM_EFFECTIVE_ROTOR_COUNT>
1.8

> <PUBCHEM_PHARMACOPHORE_FEATURES>
1
1 1 acceptor

> <PUBCHEM_HEAVY_ATOM_COUNT>
11

> <PUBCHEM_ATOM_DEF_STEREO_COUNT>
0

> <PUBCHEM_ATOM_UDEF_STEREO_COUNT>
0

> <PUBCHEM_BOND_DEF_STEREO_COUNT>
0

> <PUBCHEM_BOND_UDEF_STEREO_COUNT>
0

> <PUBCHEM_ISOTOPIC_ATOM_COUNT>
0

> <PUBCHEM_COMPONENT_COUNT>
1

> <PUBCHEM_CACTVS_TAUTO_COUNT>
2

> <PUBCHEM_CONFORMER_ID>
000120BE00000001

> <PUBCHEM_MMFF94_ENERGY>
15.686

> <PUBCHEM_FEATURE_SELFOVERLAP>
5.074

> <PUBCHEM_SHAPE_FINGERPRINT>
14251711 518 17689144622244582247
14817 1 15586046110994592080
15775835 57 17910969254649023983
16945 1 18189055304541802030
18185500 45 16246869993800079631
20201158 50 18410289177290882823
22802520 49 17408537138417277478
241688 4 17256531812150696706
2748010 2 17761495094112301799
2897 32 17831299393661467239
5084963 1 18041553753949408479
528862 383 13651955211557212858
66348 1 18193278709108546743

> <PUBCHEM_SHAPE_MULTIPOLES>
220.51
3.14
2.47
0.93
0.19
0.02
0.1
0.47
-0.25
-0.06
0.15
0
-0.14
0.34

> <PUBCHEM_SHAPE_SELFOVERLAP>
417.998

> <PUBCHEM_SHAPE_VOLUME>
134.2

> <PUBCHEM_COORDINATE_TYPE>
2
5
10

$$$$
