141821
  -OEChem-11012401123D

 27 27  0     1  0  0  0  0  0999 V2000
    0.6831    1.2975   -1.3548 O   0  0  0  0  0  0  0  0  0  0  0  0
    3.4776    0.7772    0.4379 O   0  5  0  0  0  0  0  0  0  0  0  0
    3.0666   -0.8042   -1.0402 O   0  0  0  0  0  0  0  0  0  0  0  0
    2.7594   -0.0659   -0.1023 N   0  3  0  0  0  0  0  0  0  0  0  0
    1.3774   -0.2272    0.4501 C   0  0  0  0  0  0  0  0  0  0  0  0
    0.4112    0.0350   -0.7363 C   0  0  1  0  0  0  0  0  0  0  0  0
    1.2679    0.7763    1.6012 C   0  0  0  0  0  0  0  0  0  0  0  0
    1.3182   -1.6649    0.9770 C   0  0  0  0  0  0  0  0  0  0  0  0
   -1.0606    0.0057   -0.3702 C   0  0  0  0  0  0  0  0  0  0  0  0
   -1.7474   -1.1918   -0.4418 C   0  0  0  0  0  0  0  0  0  0  0  0
   -1.6781    1.1775    0.0256 C   0  0  0  0  0  0  0  0  0  0  0  0
   -3.1009   -1.2185   -0.1054 C   0  0  0  0  0  0  0  0  0  0  0  0
   -3.0315    1.1507    0.3623 C   0  0  0  0  0  0  0  0  0  0  0  0
   -3.7429   -0.0473    0.2968 C   0  0  0  0  0  0  0  0  0  0  0  0
    0.5633   -0.7139   -1.5263 H   0  0  0  0  0  0  0  0  0  0  0  0
    2.0198    0.6062    2.3827 H   0  0  0  0  0  0  0  0  0  0  0  0
    0.2968    0.6820    2.1007 H   0  0  0  0  0  0  0  0  0  0  0  0
    1.3531    1.8166    1.2643 H   0  0  0  0  0  0  0  0  0  0  0  0
    2.1392   -1.8746    1.6738 H   0  0  0  0  0  0  0  0  0  0  0  0
    1.3782   -2.4040    0.1694 H   0  0  0  0  0  0  0  0  0  0  0  0
    0.3832   -1.8461    1.5183 H   0  0  0  0  0  0  0  0  0  0  0  0
   -1.2573   -2.1089   -0.7550 H   0  0  0  0  0  0  0  0  0  0  0  0
   -1.1437    2.1199    0.0951 H   0  0  0  0  0  0  0  0  0  0  0  0
    1.5121    1.2147   -1.8554 H   0  0  0  0  0  0  0  0  0  0  0  0
   -3.6549   -2.1513   -0.1564 H   0  0  0  0  0  0  0  0  0  0  0  0
   -3.5310    2.0620    0.6780 H   0  0  0  0  0  0  0  0  0  0  0  0
   -4.7965   -0.0683    0.5596 H   0  0  0  0  0  0  0  0  0  0  0  0
  1  6  1  0  0  0  0
  1 24  1  0  0  0  0
  2  4  1  0  0  0  0
  3  4  2  0  0  0  0
  4  5  1  0  0  0  0
  5  6  1  0  0  0  0
  5  7  1  0  0  0  0
  5  8  1  0  0  0  0
  6  9  1  0  0  0  0
  6 15  1  0  0  0  0
  7 16  1  0  0  0  0
  7 17  1  0  0  0  0
  7 18  1  0  0  0  0
  8 19  1  0  0  0  0
  8 20  1  0  0  0  0
  8 21  1  0  0  0  0
  9 10  2  0  0  0  0
  9 11  1  0  0  0  0
 10 12  1  0  0  0  0
 10 22  1  0  0  0  0
 11 13  2  0  0  0  0
 11 23  1  0  0  0  0
 12 14  2  0  0  0  0
 12 25  1  0  0  0  0
 13 14  1  0  0  0  0
 13 26  1  0  0  0  0
 14 27  1  0  0  0  0
M  CHG  2   2  -1   4   1
M  END
> <PUBCHEM_COMPOUND_CID>
141821

> <PUBCHEM_CONFORMER_RMSD>
0.6

> <PUBCHEM_CONFORMER_DIVERSEORDER>
1
3
2

> <PUBCHEM_MMFF94_PARTIAL_CHARGES>
18
1 -0.68
10 -0.15
11 -0.15
12 -0.15
13 -0.15
14 -0.15
2 -0.52
22 0.15
23 0.15
24 0.4
25 0.15
26 0.15
27 0.15
3 -0.52
4 0.8
5 0.24
6 0.42
9 -0.14

> <PUBCHEM_EFFECTIVE_ROTOR_COUNT>
3

> <PUBCHEM_PHARMACOPHORE_FEATURES>
7
1 1 acceptor
1 1 donor
1 2 acceptor
1 2 anion
1 3 acceptor
3 5 7 8 hydrophobe
6 9 10 11 12 13 14 rings

> <PUBCHEM_HEAVY_ATOM_COUNT>
14

> <PUBCHEM_ATOM_DEF_STEREO_COUNT>
0

> <PUBCHEM_ATOM_UDEF_STEREO_COUNT>
1

> <PUBCHEM_BOND_DEF_STEREO_COUNT>
0

> <PUBCHEM_BOND_UDEF_STEREO_COUNT>
0

> <PUBCHEM_ISOTOPIC_ATOM_COUNT>
0

> <PUBCHEM_COMPONENT_COUNT>
1

> <PUBCHEM_CACTVS_TAUTO_COUNT>
1

> <PUBCHEM_CONFORMER_ID>
000229FD00000001

> <PUBCHEM_MMFF94_ENERGY>
44.1077

> <PUBCHEM_FEATURE_SELFOVERLAP>
35.599

> <PUBCHEM_SHAPE_FINGERPRINT>
10219947 1 17530961393180920198
10608611 8 18060696191201664785
11031198 65 14117527566299115245
124424 183 17346318150591512413
12500047 106 18338789031907086353
12932764 1 18411129213080728443
13581323 91 18131350834435838399
14144814 61 18259982652498293059
14993402 34 18040156218862336727
15219456 202 17704075087847640255
15653759 3 17846779619906513819
15775835 57 18341897364047543403
16945 1 17530969093914863687
19422 9 18335424538773267230
200 152 15357688708710160923
201361 129 18339080393497547226
20510252 161 18131355176874745209
20645464 45 17275393109908055159
20871998 184 18059578048485878279
21028194 46 14045732747071500053
22445834 79 18260828177008754683
23236772 104 18259983786369620483
23402539 116 18186794786609092172
23559900 14 18059858308044547774
369184 2 18131342017078898235
528886 8 18040157318310634850
7364860 26 18197220454004950917
74978 22 12822999967529805238
77492 1 18040439897188814717
8030462 33 18337377284593942407

> <PUBCHEM_SHAPE_MULTIPOLES>
265.52
5.72
1.45
1.13
0.62
0.18
0.09
0.09
0.28
0.3
0.12
-0.62
-0.12
-0.06

> <PUBCHEM_SHAPE_SELFOVERLAP>
549.667

> <PUBCHEM_SHAPE_VOLUME>
151.8

> <PUBCHEM_COORDINATE_TYPE>
2
5
10

$$$$
