5388562
  -OEChem-11012400443D

 29 30  0     0  0  0  0  0  0999 V2000
   -2.7101    2.7988   -0.2219 O   0  5  0  0  0  0  0  0  0  0  0  0
   -0.6805    2.0926    0.2264 O   0  0  0  0  0  0  0  0  0  0  0  0
   -1.9055    1.8829    0.0674 N   0  3  0  0  0  0  0  0  0  0  0  0
    0.0468   -0.9771   -2.6405 N   0  0  0  0  0  0  0  0  0  0  0  0
   -1.5645   -0.5047    0.5419 C   0  0  0  0  0  0  0  0  0  0  0  0
   -2.4008    0.5570    0.2213 C   0  0  0  0  0  0  0  0  0  0  0  0
   -0.1207   -0.3097    0.7386 C   0  0  0  0  0  0  0  0  0  0  0  0
    2.2504   -0.1959    0.0097 C   0  0  0  0  0  0  0  0  0  0  0  0
    0.8307   -0.4038   -0.2285 C   0  0  0  0  0  0  0  0  0  0  0  0
   -2.0708   -1.7905    0.6876 C   0  0  0  0  0  0  0  0  0  0  0  0
   -3.7655    0.3298    0.0436 C   0  0  0  0  0  0  0  0  0  0  0  0
   -3.4356   -2.0176    0.5100 C   0  0  0  0  0  0  0  0  0  0  0  0
    2.7986    1.0810   -0.1130 C   0  0  0  0  0  0  0  0  0  0  0  0
    3.0640   -1.2733    0.3606 C   0  0  0  0  0  0  0  0  0  0  0  0
   -4.2829   -0.9576    0.1879 C   0  0  0  0  0  0  0  0  0  0  0  0
    4.1601    1.2804    0.1150 C   0  0  0  0  0  0  0  0  0  0  0  0
    4.4256   -1.0737    0.5887 C   0  0  0  0  0  0  0  0  0  0  0  0
    4.9736    0.2032    0.4659 C   0  0  0  0  0  0  0  0  0  0  0  0
    0.3871   -0.7218   -1.5607 C   0  0  0  0  0  0  0  0  0  0  0  0
    0.1708   -0.0810    1.7625 H   0  0  0  0  0  0  0  0  0  0  0  0
   -1.4240   -2.6273    0.9393 H   0  0  0  0  0  0  0  0  0  0  0  0
   -4.4601    1.1272   -0.2078 H   0  0  0  0  0  0  0  0  0  0  0  0
   -3.8386   -3.0200    0.6224 H   0  0  0  0  0  0  0  0  0  0  0  0
    2.1803    1.9320   -0.3877 H   0  0  0  0  0  0  0  0  0  0  0  0
    2.6525   -2.2749    0.4606 H   0  0  0  0  0  0  0  0  0  0  0  0
   -5.3455   -1.1352    0.0496 H   0  0  0  0  0  0  0  0  0  0  0  0
    4.5871    2.2745    0.0190 H   0  0  0  0  0  0  0  0  0  0  0  0
    5.0592   -1.9124    0.8619 H   0  0  0  0  0  0  0  0  0  0  0  0
    6.0337    0.3584    0.6434 H   0  0  0  0  0  0  0  0  0  0  0  0
  1  3  1  0  0  0  0
  2  3  2  0  0  0  0
  3  6  1  0  0  0  0
  4 19  3  0  0  0  0
  5  6  1  0  0  0  0
  5  7  1  0  0  0  0
  5 10  2  0  0  0  0
  6 11  2  0  0  0  0
  7  9  2  0  0  0  0
  7 20  1  0  0  0  0
  8  9  1  0  0  0  0
  8 13  2  0  0  0  0
  8 14  1  0  0  0  0
  9 19  1  0  0  0  0
 10 12  1  0  0  0  0
 10 21  1  0  0  0  0
 11 15  1  0  0  0  0
 11 22  1  0  0  0  0
 12 15  2  0  0  0  0
 12 23  1  0  0  0  0
 13 16  1  0  0  0  0
 13 24  1  0  0  0  0
 14 17  2  0  0  0  0
 14 25  1  0  0  0  0
 15 26  1  0  0  0  0
 16 18  2  0  0  0  0
 16 27  1  0  0  0  0
 17 18  1  0  0  0  0
 17 28  1  0  0  0  0
 18 29  1  0  0  0  0
M  CHG  2   1  -1   3   1
M  END
> <PUBCHEM_COMPOUND_CID>
5388562

> <PUBCHEM_CONFORMER_RMSD>
0.6

> <PUBCHEM_CONFORMER_DIVERSEORDER>
1
6
5
2
3
4

> <PUBCHEM_MMFF94_PARTIAL_CHARGES>
29
1 -0.52
10 -0.15
11 -0.15
12 -0.15
13 -0.15
14 -0.15
15 -0.15
16 -0.15
17 -0.15
18 -0.15
19 0.49
2 -0.52
20 0.15
21 0.15
22 0.15
23 0.15
24 0.15
25 0.15
26 0.15
27 0.15
28 0.15
29 0.15
3 0.91
4 -0.56
5 0.03
6 0.13
7 -0.18
8 0.03
9 0.04

> <PUBCHEM_EFFECTIVE_ROTOR_COUNT>
3

> <PUBCHEM_PHARMACOPHORE_FEATURES>
6
1 1 acceptor
1 1 anion
1 2 acceptor
1 4 acceptor
6 5 6 10 11 12 15 rings
6 8 13 14 16 17 18 rings

> <PUBCHEM_HEAVY_ATOM_COUNT>
19

> <PUBCHEM_ATOM_DEF_STEREO_COUNT>
0

> <PUBCHEM_ATOM_UDEF_STEREO_COUNT>
0

> <PUBCHEM_BOND_DEF_STEREO_COUNT>
1

> <PUBCHEM_BOND_UDEF_STEREO_COUNT>
0

> <PUBCHEM_ISOTOPIC_ATOM_COUNT>
0

> <PUBCHEM_COMPONENT_COUNT>
1

> <PUBCHEM_CACTVS_TAUTO_COUNT>
1

> <PUBCHEM_CONFORMER_ID>
0052391200000001

> <PUBCHEM_MMFF94_ENERGY>
68.7913

> <PUBCHEM_FEATURE_SELFOVERLAP>
30.528

> <PUBCHEM_SHAPE_FINGERPRINT>
10366900 7 18335708299089122810
10646746 165 18337111172715035168
10906281 52 18271544047719713737
11132069 177 17489592298092682375
11370993 70 18334572447479941354
11578080 2 17241583156770453156
12107183 9 17684922514973901616
12119455 92 17704071797981981718
12236239 1 17458062672964210147
12403814 3 18059852891763713895
12507560 40 18342736295999327090
12633257 1 18192995920109207720
12670546 56 18335696139783578066
13296909 8 18040433265690835557
13583140 156 18201424883838348106
14115302 16 17458635574583845899
14289901 80 18333733533134625370
14341114 176 18334582343279087802
14787075 74 17971193870194265738
15099037 37 18342741810368108989
15196674 1 18408886239203647808
15309172 13 16917072174093820926
15375462 478 18410575110643996516
15375462 6 18411985762651042766
17492 89 18336265660990288650
18915476 22 16987445196190579839
200 152 18260824942513466691
20261772 1 17846214505421509182
20344682 1 17989208170336244295
204376 136 16774079600406779702
20510252 161 18412266108051199209
21267235 1 18335148604325597658
23402539 116 18411974776462244935
23419403 2 17826210055211472637
23557571 272 18271821089630740021
23559900 14 18268426828912256610
26918003 58 17968093170073693602
3286 77 18114177545426682882
351380 180 18411134744824584440
4175511 318 17917426548963114798
4214541 1 18335700507823281832
5104073 3 18410291385436758872
5283173 99 18188194434831065341
57100710 210 18411133662545943743
77779 3 18408041810342266138
81228 2 18194150476417735185
9709674 26 18410017598125024746

> <PUBCHEM_SHAPE_MULTIPOLES>
369.31
8.95
2.11
1.17
5.05
1.08
-0.98
-0.76
2.06
-1.55
0.17
0.07
-0.43
0.16

> <PUBCHEM_SHAPE_SELFOVERLAP>
802.369

> <PUBCHEM_SHAPE_VOLUME>
198.7

> <PUBCHEM_COORDINATE_TYPE>
2
5
10

$$$$
