140752
  -OEChem-11012401153D

 20 21  0     0  0  0  0  0  0999 V2000
    1.7527   -0.7352   -0.0007 N   0  0  0  0  0  0  0  0  0  0  0  0
    1.5825    1.4268    0.0014 N   0  0  0  0  0  0  0  0  0  0  0  0
    3.0141   -0.2824   -0.0005 N   0  0  0  0  0  0  0  0  0  0  0  0
    2.9039    1.0405    0.0004 N   0  0  0  0  0  0  0  0  0  0  0  0
   -0.5471    0.1860    0.0006 C   0  0  0  0  0  0  0  0  0  0  0  0
    0.8899    0.3126    0.0003 C   0  0  0  0  0  0  0  0  0  0  0  0
   -1.2416    0.1264   -1.2077 C   0  0  0  0  0  0  0  0  0  0  0  0
   -1.2423    0.1240    1.2084 C   0  0  0  0  0  0  0  0  0  0  0  0
    1.4774   -2.1491   -0.0012 C   0  0  0  0  0  0  0  0  0  0  0  0
   -2.6312    0.0050   -1.2083 C   0  0  0  0  0  0  0  0  0  0  0  0
   -2.6319    0.0025    1.2077 C   0  0  0  0  0  0  0  0  0  0  0  0
   -3.3263   -0.0570   -0.0006 C   0  0  0  0  0  0  0  0  0  0  0  0
   -0.7142    0.1734   -2.1575 H   0  0  0  0  0  0  0  0  0  0  0  0
   -0.7154    0.1690    2.1586 H   0  0  0  0  0  0  0  0  0  0  0  0
    2.4189   -2.7045   -0.0033 H   0  0  0  0  0  0  0  0  0  0  0  0
    0.9073   -2.3924    0.8986 H   0  0  0  0  0  0  0  0  0  0  0  0
    0.9041   -2.3912   -0.8993 H   0  0  0  0  0  0  0  0  0  0  0  0
   -3.1720   -0.0415   -2.1490 H   0  0  0  0  0  0  0  0  0  0  0  0
   -3.1734   -0.0459    2.1479 H   0  0  0  0  0  0  0  0  0  0  0  0
   -4.4082   -0.1517   -0.0011 H   0  0  0  0  0  0  0  0  0  0  0  0
  1  3  1  0  0  0  0
  1  6  1  0  0  0  0
  1  9  1  0  0  0  0
  2  4  1  0  0  0  0
  2  6  2  0  0  0  0
  3  4  2  0  0  0  0
  5  6  1  0  0  0  0
  5  7  2  0  0  0  0
  5  8  1  0  0  0  0
  7 10  1  0  0  0  0
  7 13  1  0  0  0  0
  8 11  2  0  0  0  0
  8 14  1  0  0  0  0
  9 15  1  0  0  0  0
  9 16  1  0  0  0  0
  9 17  1  0  0  0  0
 10 12  2  0  0  0  0
 10 18  1  0  0  0  0
 11 12  1  0  0  0  0
 11 19  1  0  0  0  0
 12 20  1  0  0  0  0
M  END
> <PUBCHEM_COMPOUND_CID>
140752

> <PUBCHEM_CONFORMER_RMSD>
0.4

> <PUBCHEM_CONFORMER_DIVERSEORDER>
1
2
3

> <PUBCHEM_MMFF94_PARTIAL_CHARGES>
16
1 0.31
10 -0.15
11 -0.15
12 -0.15
13 0.15
14 0.15
18 0.15
19 0.15
2 -0.34
20 0.15
3 -0.42
5 0.05
6 0.13
7 -0.15
8 -0.15
9 0.26

> <PUBCHEM_EFFECTIVE_ROTOR_COUNT>
1

> <PUBCHEM_PHARMACOPHORE_FEATURES>
3
3 1 2 6 cation
5 1 2 3 4 6 rings
6 5 7 8 10 11 12 rings

> <PUBCHEM_HEAVY_ATOM_COUNT>
12

> <PUBCHEM_ATOM_DEF_STEREO_COUNT>
0

> <PUBCHEM_ATOM_UDEF_STEREO_COUNT>
0

> <PUBCHEM_BOND_DEF_STEREO_COUNT>
0

> <PUBCHEM_BOND_UDEF_STEREO_COUNT>
0

> <PUBCHEM_ISOTOPIC_ATOM_COUNT>
0

> <PUBCHEM_COMPONENT_COUNT>
1

> <PUBCHEM_CACTVS_TAUTO_COUNT>
1

> <PUBCHEM_CONFORMER_ID>
000225D000000001

> <PUBCHEM_MMFF94_ENERGY>
25.8282

> <PUBCHEM_FEATURE_SELFOVERLAP>
15.223

> <PUBCHEM_SHAPE_FINGERPRINT>
10219947 1 18334857238249979772
107287 299 18187375336890229502
10857977 72 16732986465809866765
12326174 3 18261665978978113938
12716758 59 16371282221522102185
12932764 1 17704068486704627905
13538477 17 17418368112725841071
15219456 202 17894629236154615991
15310529 11 18343017775017901313
15775835 57 17632865221685902041
16945 1 18410856559645070820
18175812 5 17676208008633561006
19422 9 17632582655687251863
20201158 50 18040715844337010507
20279233 1 17749106686328139075
20645464 45 17458060473903920681
20645477 70 18338226060378965999
22802520 49 17679012708356595181
23402539 116 16805588309492581903
23552423 10 17202777994375761751
23559900 14 16515675616684792296
23728640 28 15309840840161314419
29004967 10 18333454226710255888
3248919 1 17821730524480348117
369184 2 18413109459434633529
77492 1 17703790318657393669
8030462 33 17703785925111558731

> <PUBCHEM_SHAPE_MULTIPOLES>
227.03
4.97
1.28
1.12
0.01
0.54
0
-0.15
0
1.22
0
-0.99
-0.02
0

> <PUBCHEM_SHAPE_SELFOVERLAP>
486.051

> <PUBCHEM_SHAPE_VOLUME>
126

> <PUBCHEM_COORDINATE_TYPE>
2
5
10

$$$$
