7054
  -OEChem-11012401233D

 16 17  0     0  0  0  0  0  0999 V2000
   -1.7828   -1.8794   -0.0001 O   0  0  0  0  0  0  0  0  0  0  0  0
   -3.0998    0.6739    0.0009 O   0  0  0  0  0  0  0  0  0  0  0  0
   -0.8673    1.4662   -0.0003 N   0  0  0  0  0  0  0  0  0  0  0  0
    0.2316   -0.5534   -0.0004 C   0  0  0  0  0  0  0  0  0  0  0  0
    0.3765    0.8305   -0.0005 C   0  0  0  0  0  0  0  0  0  0  0  0
   -1.2051   -0.8198   -0.0001 C   0  0  0  0  0  0  0  0  0  0  0  0
   -1.8957    0.5413   -0.0003 C   0  0  0  0  0  0  0  0  0  0  0  0
    1.3070   -1.4142   -0.0001 C   0  0  0  0  0  0  0  0  0  0  0  0
    1.6236    1.4194   -0.0001 C   0  0  0  0  0  0  0  0  0  0  0  0
    2.5774   -0.8333    0.0005 C   0  0  0  0  0  0  0  0  0  0  0  0
    2.7345    0.5687    0.0004 C   0  0  0  0  0  0  0  0  0  0  0  0
   -0.9824    2.4728    0.0001 H   0  0  0  0  0  0  0  0  0  0  0  0
    1.1827   -2.4903    0.0001 H   0  0  0  0  0  0  0  0  0  0  0  0
    1.7485    2.4961    0.0000 H   0  0  0  0  0  0  0  0  0  0  0  0
    3.4596   -1.4683    0.0010 H   0  0  0  0  0  0  0  0  0  0  0  0
    3.7354    0.9926    0.0008 H   0  0  0  0  0  0  0  0  0  0  0  0
  1  6  2  0  0  0  0
  2  7  2  0  0  0  0
  3  5  1  0  0  0  0
  3  7  1  0  0  0  0
  3 12  1  0  0  0  0
  4  5  1  0  0  0  0
  4  6  1  0  0  0  0
  4  8  2  0  0  0  0
  5  9  2  0  0  0  0
  6  7  1  0  0  0  0
  8 10  1  0  0  0  0
  8 13  1  0  0  0  0
  9 11  1  0  0  0  0
  9 14  1  0  0  0  0
 10 11  2  0  0  0  0
 10 15  1  0  0  0  0
 11 16  1  0  0  0  0
M  END
> <PUBCHEM_COMPOUND_CID>
7054

> <PUBCHEM_CONFORMER_RMSD>
0.4

> <PUBCHEM_CONFORMER_DIVERSEORDER>
1

> <PUBCHEM_MMFF94_PARTIAL_CHARGES>
16
1 -0.57
10 -0.15
11 -0.15
12 0.37
13 0.15
14 0.15
15 0.15
16 0.15
2 -0.57
3 -0.55
4 0.09
5 0.12
6 0.48
7 0.63
8 -0.15
9 -0.15

> <PUBCHEM_EFFECTIVE_ROTOR_COUNT>
0.2

> <PUBCHEM_PHARMACOPHORE_FEATURES>
5
1 1 acceptor
1 2 acceptor
1 3 donor
5 3 4 5 6 7 rings
6 4 5 8 9 10 11 rings

> <PUBCHEM_HEAVY_ATOM_COUNT>
11

> <PUBCHEM_ATOM_DEF_STEREO_COUNT>
0

> <PUBCHEM_ATOM_UDEF_STEREO_COUNT>
0

> <PUBCHEM_BOND_DEF_STEREO_COUNT>
0

> <PUBCHEM_BOND_UDEF_STEREO_COUNT>
0

> <PUBCHEM_ISOTOPIC_ATOM_COUNT>
0

> <PUBCHEM_COMPONENT_COUNT>
1

> <PUBCHEM_CACTVS_TAUTO_COUNT>
5

> <PUBCHEM_CONFORMER_ID>
00001B8E00000001

> <PUBCHEM_MMFF94_ENERGY>
30.7554

> <PUBCHEM_FEATURE_SELFOVERLAP>
25.467

> <PUBCHEM_SHAPE_FINGERPRINT>
12423570 1 8332206124507581947
12524768 44 18340209587517841470
12897270 3 18411419544190326212
13380535 21 18338531814351658638
13380535 76 18411695478438029647
14325111 11 18410855434675128965
16945 1 18410575041882295460
17844478 74 17967825920382042841
19973954 147 18410577331099838244
20201158 50 18340485577932084846
21040471 1 18410855425868799620
21501502 16 18337952393225128382
23402655 69 18341600491903493453
23552423 10 18261113031892488630
241688 4 17260193190124090122
2748010 2 18339080526620362628
369184 2 16443059508592968736
5084963 1 18058161718014854553
528886 8 18411414020836003322
53812653 166 18271801367504972432

> <PUBCHEM_SHAPE_MULTIPOLES>
209.66
3.85
1.72
0.59
0.43
0.24
0
-0.21
0
0.06
0
-0.05
0
0

> <PUBCHEM_SHAPE_SELFOVERLAP>
465.2

> <PUBCHEM_SHAPE_VOLUME>
111.9

> <PUBCHEM_COORDINATE_TYPE>
2
5
10

$$$$
