77134407
  -OEChem-11012400483D

 25 26  0     0  0  0  0  0  0999 V2000
    2.0494   -0.2916   -0.5046 C   0  0  0  0  0  0  0  0  0  0  0  0
    2.9907    0.3499    0.4878 C   0  0  0  0  0  0  0  0  0  0  0  0
    2.9104   -1.1420    0.3998 C   0  0  0  0  0  0  0  0  0  0  0  0
    0.5559   -0.2237   -0.2897 C   0  0  0  0  0  0  0  0  0  0  0  0
   -0.0884    1.0013   -0.1167 C   0  0  0  0  0  0  0  0  0  0  0  0
   -0.1802   -1.4084   -0.2662 C   0  0  0  0  0  0  0  0  0  0  0  0
   -1.4688    1.0416    0.0802 C   0  0  0  0  0  0  0  0  0  0  0  0
   -1.5605   -1.3681   -0.0693 C   0  0  0  0  0  0  0  0  0  0  0  0
   -2.2048   -0.1430    0.1039 C   0  0  0  0  0  0  0  0  0  0  0  0
    0.6772    2.2837   -0.1385 C   0  0  0  0  0  0  0  0  0  0  0  0
   -3.6810   -0.0997    0.3133 C   0  0  0  0  0  0  0  0  0  0  0  0
    2.3649   -0.2492   -1.5453 H   0  0  0  0  0  0  0  0  0  0  0  0
    2.6104    0.7933    1.3996 H   0  0  0  0  0  0  0  0  0  0  0  0
    3.8793    0.8317    0.0976 H   0  0  0  0  0  0  0  0  0  0  0  0
    3.7453   -1.6668   -0.0490 H   0  0  0  0  0  0  0  0  0  0  0  0
    2.4509   -1.6665    1.2289 H   0  0  0  0  0  0  0  0  0  0  0  0
    0.3081   -2.3696   -0.4037 H   0  0  0  0  0  0  0  0  0  0  0  0
   -1.9740    1.9946    0.2194 H   0  0  0  0  0  0  0  0  0  0  0  0
   -2.1226   -2.2981   -0.0521 H   0  0  0  0  0  0  0  0  0  0  0  0
    1.4531    2.2842   -0.9106 H   0  0  0  0  0  0  0  0  0  0  0  0
    0.0179    3.1267   -0.3772 H   0  0  0  0  0  0  0  0  0  0  0  0
    1.1234    2.4850    0.8396 H   0  0  0  0  0  0  0  0  0  0  0  0
   -3.9086   -0.1015    1.3839 H   0  0  0  0  0  0  0  0  0  0  0  0
   -4.1160    0.7986   -0.1380 H   0  0  0  0  0  0  0  0  0  0  0  0
   -4.1734   -0.9613   -0.1503 H   0  0  0  0  0  0  0  0  0  0  0  0
  1  2  1  0  0  0  0
  1  3  1  0  0  0  0
  1  4  1  0  0  0  0
  1 12  1  0  0  0  0
  2  3  1  0  0  0  0
  2 13  1  0  0  0  0
  2 14  1  0  0  0  0
  3 15  1  0  0  0  0
  3 16  1  0  0  0  0
  4  5  2  0  0  0  0
  4  6  1  0  0  0  0
  5  7  1  0  0  0  0
  5 10  1  0  0  0  0
  6  8  2  0  0  0  0
  6 17  1  0  0  0  0
  7  9  2  0  0  0  0
  7 18  1  0  0  0  0
  8  9  1  0  0  0  0
  8 19  1  0  0  0  0
  9 11  1  0  0  0  0
 10 20  1  0  0  0  0
 10 21  1  0  0  0  0
 10 22  1  0  0  0  0
 11 23  1  0  0  0  0
 11 24  1  0  0  0  0
 11 25  1  0  0  0  0
M  END
> <PUBCHEM_COMPOUND_CID>
77134407

> <PUBCHEM_CONFORMER_RMSD>
0.4

> <PUBCHEM_CONFORMER_DIVERSEORDER>
1
2
3

> <PUBCHEM_MMFF94_PARTIAL_CHARGES>
19
1 -0.07
10 0.14
11 0.14
12 0.1
13 0.1
14 0.1
15 0.1
16 0.1
17 0.15
18 0.15
19 0.15
2 -0.2
3 -0.2
4 -0.03
5 -0.14
6 -0.15
7 -0.15
8 -0.15
9 -0.14

> <PUBCHEM_EFFECTIVE_ROTOR_COUNT>
1.6

> <PUBCHEM_PHARMACOPHORE_FEATURES>
1
6 4 5 6 7 8 9 rings

> <PUBCHEM_HEAVY_ATOM_COUNT>
11

> <PUBCHEM_ATOM_DEF_STEREO_COUNT>
0

> <PUBCHEM_ATOM_UDEF_STEREO_COUNT>
0

> <PUBCHEM_BOND_DEF_STEREO_COUNT>
0

> <PUBCHEM_BOND_UDEF_STEREO_COUNT>
0

> <PUBCHEM_ISOTOPIC_ATOM_COUNT>
0

> <PUBCHEM_COMPONENT_COUNT>
1

> <PUBCHEM_CACTVS_TAUTO_COUNT>
1

> <PUBCHEM_CONFORMER_ID>
0498FA4700000001

> <PUBCHEM_MMFF94_ENERGY>
29.9591

> <PUBCHEM_FEATURE_SELFOVERLAP>
5.074

> <PUBCHEM_SHAPE_FINGERPRINT>
10130415 120 18260548922107980443
10219947 1 18413392020784920907
10857977 72 18411973659311675648
12032990 46 18338525148647162111
12251169 10 18342731927716919906
12423570 1 18060423533824259919
12524768 44 18343866602078612806
13922767 16 18413107264812087233
14325111 11 18411982425197456337
14993402 34 18411984671507582887
16945 1 18411706490934331431
193761 8 17834677475739761327
20511035 2 18125162885862829693
207724 885 18408324397430539825
20871998 184 18270957925884740486
21501502 16 18123190370735030335
21501925 9 18268143335200397603
23402539 116 18200298944954961951
23402655 69 18124015855677623701
23463225 33 18336265648025543946
23552423 10 17974853074919384549
2748010 2 18051984614756585751
369184 2 18411412895491424018
7364860 26 18126570243656723568

> <PUBCHEM_SHAPE_MULTIPOLES>
226.37
4.75
1.78
0.7
0.64
0.65
0
-0.91
-0.93
-0.26
0.08
-0.12
-0.02
-0.08

> <PUBCHEM_SHAPE_SELFOVERLAP>
472.28

> <PUBCHEM_SHAPE_VOLUME>
127.4

> <PUBCHEM_COORDINATE_TYPE>
2
5
10

$$$$
