78351
  -OEChem-11012401063D

 18 18  0     0  0  0  0  0  0999 V2000
    1.0308   -0.4271    0.0001 O   0  0  0  0  0  0  0  0  0  0  0  0
   -0.2259    1.5113    0.0005 O   0  0  0  0  0  0  0  0  0  0  0  0
   -1.2981   -0.6444   -0.0003 C   0  0  0  0  0  0  0  0  0  0  0  0
   -2.5182   -0.2431   -0.7505 C   0  0  0  0  0  0  0  0  0  0  0  0
   -2.5188   -0.2447    0.7501 C   0  0  0  0  0  0  0  0  0  0  0  0
   -0.1278    0.2916    0.0003 C   0  0  0  0  0  0  0  0  0  0  0  0
    2.2346    0.3468    0.0000 C   0  0  0  0  0  0  0  0  0  0  0  0
    3.4234   -0.5904   -0.0002 C   0  0  0  0  0  0  0  0  0  0  0  0
   -1.0547   -1.7029   -0.0013 H   0  0  0  0  0  0  0  0  0  0  0  0
   -3.0808   -1.0198   -1.2547 H   0  0  0  0  0  0  0  0  0  0  0  0
   -2.5405    0.7160   -1.2530 H   0  0  0  0  0  0  0  0  0  0  0  0
   -2.5412    0.7133    1.2548 H   0  0  0  0  0  0  0  0  0  0  0  0
   -3.0816   -1.0225    1.2522 H   0  0  0  0  0  0  0  0  0  0  0  0
    2.2619    0.9796   -0.8941 H   0  0  0  0  0  0  0  0  0  0  0  0
    2.2621    0.9794    0.8943 H   0  0  0  0  0  0  0  0  0  0  0  0
    4.3628   -0.0305   -0.0004 H   0  0  0  0  0  0  0  0  0  0  0  0
    3.4003   -1.2424    0.8792 H   0  0  0  0  0  0  0  0  0  0  0  0
    3.4001   -1.2422   -0.8798 H   0  0  0  0  0  0  0  0  0  0  0  0
  1  6  1  0  0  0  0
  1  7  1  0  0  0  0
  2  6  2  0  0  0  0
  3  4  1  0  0  0  0
  3  5  1  0  0  0  0
  3  6  1  0  0  0  0
  3  9  1  0  0  0  0
  4  5  1  0  0  0  0
  4 10  1  0  0  0  0
  4 11  1  0  0  0  0
  5 12  1  0  0  0  0
  5 13  1  0  0  0  0
  7  8  1  0  0  0  0
  7 14  1  0  0  0  0
  7 15  1  0  0  0  0
  8 16  1  0  0  0  0
  8 17  1  0  0  0  0
  8 18  1  0  0  0  0
M  END
> <PUBCHEM_COMPOUND_CID>
78351

> <PUBCHEM_CONFORMER_RMSD>
0.6

> <PUBCHEM_CONFORMER_DIVERSEORDER>
1
15
5
7
8
11
12
9
10
3
6
14
4
2
13

> <PUBCHEM_MMFF94_PARTIAL_CHARGES>
12
1 -0.43
10 0.1
11 0.1
12 0.1
13 0.1
2 -0.57
3 -0.1
4 -0.2
5 -0.2
6 0.72
7 0.28
9 0.1

> <PUBCHEM_EFFECTIVE_ROTOR_COUNT>
3.6

> <PUBCHEM_PHARMACOPHORE_FEATURES>
1
1 2 acceptor

> <PUBCHEM_HEAVY_ATOM_COUNT>
8

> <PUBCHEM_ATOM_DEF_STEREO_COUNT>
0

> <PUBCHEM_ATOM_UDEF_STEREO_COUNT>
0

> <PUBCHEM_BOND_DEF_STEREO_COUNT>
0

> <PUBCHEM_BOND_UDEF_STEREO_COUNT>
0

> <PUBCHEM_ISOTOPIC_ATOM_COUNT>
0

> <PUBCHEM_COMPONENT_COUNT>
1

> <PUBCHEM_CACTVS_TAUTO_COUNT>
1

> <PUBCHEM_CONFORMER_ID>
0001320F00000001

> <PUBCHEM_MMFF94_ENERGY>
10.9151

> <PUBCHEM_FEATURE_SELFOVERLAP>
5.074

> <PUBCHEM_SHAPE_FINGERPRINT>
11062470 55 18411416211068903109
12897270 3 17749387061808974742
12932764 1 15719387360665552560
14390081 3 8286203837970396246
15310529 11 15719385135772357603
20653085 51 15068624842288005518
23552423 10 18116156575777406886
29004967 10 18334862744139421601
3248919 1 16271930427976946996
5460574 1 9295293836938190306

> <PUBCHEM_SHAPE_MULTIPOLES>
152.9
4.88
0.97
0.74
2.75
0.27
0
-1.15
0
0.07
0
-0.39
-0.04
0

> <PUBCHEM_SHAPE_SELFOVERLAP>
291.091

> <PUBCHEM_SHAPE_VOLUME>
95.8

> <PUBCHEM_COORDINATE_TYPE>
2
5
10

$$$$
