5356572
  -OEChem-11012400593D

 14 13  0     0  0  0  0  0  0999 V2000
    0.6036   -1.2796    0.2970 O   0  0  0  0  0  0  0  0  0  0  0  0
   -0.1862    0.9675    0.2598 C   0  0  0  0  0  0  0  0  0  0  0  0
    0.8441   -0.0930    0.0856 C   0  0  0  0  0  0  0  0  0  0  0  0
   -1.4831    0.6991    0.0600 C   0  0  0  0  0  0  0  0  0  0  0  0
    2.2122    0.3528   -0.3598 C   0  0  0  0  0  0  0  0  0  0  0  0
   -1.9906   -0.6468   -0.3426 C   0  0  0  0  0  0  0  0  0  0  0  0
    0.1460    1.9690    0.5073 H   0  0  0  0  0  0  0  0  0  0  0  0
   -2.2105    1.4956    0.1886 H   0  0  0  0  0  0  0  0  0  0  0  0
    2.5263   -0.2529   -1.2143 H   0  0  0  0  0  0  0  0  0  0  0  0
    2.9175    0.2320    0.4663 H   0  0  0  0  0  0  0  0  0  0  0  0
    2.2047    1.4012   -0.6707 H   0  0  0  0  0  0  0  0  0  0  0  0
   -1.4009   -1.1010   -1.1443 H   0  0  0  0  0  0  0  0  0  0  0  0
   -3.0068   -0.5376   -0.7385 H   0  0  0  0  0  0  0  0  0  0  0  0
   -2.0503   -1.3193    0.5184 H   0  0  0  0  0  0  0  0  0  0  0  0
  1  3  2  0  0  0  0
  2  3  1  0  0  0  0
  2  4  2  0  0  0  0
  2  7  1  0  0  0  0
  3  5  1  0  0  0  0
  4  6  1  0  0  0  0
  4  8  1  0  0  0  0
  5  9  1  0  0  0  0
  5 10  1  0  0  0  0
  5 11  1  0  0  0  0
  6 12  1  0  0  0  0
  6 13  1  0  0  0  0
  6 14  1  0  0  0  0
M  END
> <PUBCHEM_COMPOUND_CID>
5356572

> <PUBCHEM_CONFORMER_RMSD>
0.4

> <PUBCHEM_CONFORMER_DIVERSEORDER>
3
2
1
4

> <PUBCHEM_MMFF94_PARTIAL_CHARGES>
8
1 -0.57
2 -0.14
3 0.49
4 -0.29
5 0.06
6 0.14
7 0.15
8 0.15

> <PUBCHEM_EFFECTIVE_ROTOR_COUNT>
1

> <PUBCHEM_PHARMACOPHORE_FEATURES>
2
1 1 acceptor
1 6 hydrophobe

> <PUBCHEM_HEAVY_ATOM_COUNT>
6

> <PUBCHEM_ATOM_DEF_STEREO_COUNT>
0

> <PUBCHEM_ATOM_UDEF_STEREO_COUNT>
0

> <PUBCHEM_BOND_DEF_STEREO_COUNT>
1

> <PUBCHEM_BOND_UDEF_STEREO_COUNT>
0

> <PUBCHEM_ISOTOPIC_ATOM_COUNT>
0

> <PUBCHEM_COMPONENT_COUNT>
1

> <PUBCHEM_CACTVS_TAUTO_COUNT>
5

> <PUBCHEM_CONFORMER_ID>
0051BC1C00000003

> <PUBCHEM_MMFF94_ENERGY>
9.7329

> <PUBCHEM_FEATURE_SELFOVERLAP>
10.148

> <PUBCHEM_SHAPE_FINGERPRINT>
139733 1 7925914798423453609
16714656 1 18201442505593141863
18185500 45 18339074895923512203
20096714 4 18336834086968203592
21040471 1 18054505803314098025
23552423 10 18263930942703089366
24536 1 18195513810121014089
29004967 10 18040445377540853609
5460574 1 8935005866759132652

> <PUBCHEM_SHAPE_MULTIPOLES>
117.61
2.71
1.15
0.67
0.24
0.11
0.02
0.08
0.48
-0.14
-0.09
0.02
0
-0.15

> <PUBCHEM_SHAPE_SELFOVERLAP>
213.171

> <PUBCHEM_SHAPE_VOLUME>
76

> <PUBCHEM_COORDINATE_TYPE>
2
5
10

$$$$
