15653
  -OEChem-11012400483D

 24 24  0     0  0  0  0  0  0999 V2000
    0.6438    0.3336    0.2722 C   0  0  0  0  0  0  0  0  0  0  0  0
    0.6312   -1.0450    0.0603 C   0  0  0  0  0  0  0  0  0  0  0  0
    1.9223    1.0583    0.5375 C   0  0  0  0  0  0  0  0  0  0  0  0
   -0.5493    1.0553    0.2385 C   0  0  0  0  0  0  0  0  0  0  0  0
   -1.7551    0.3984   -0.0071 C   0  0  0  0  0  0  0  0  0  0  0  0
   -0.5746   -1.7020   -0.1855 C   0  0  0  0  0  0  0  0  0  0  0  0
   -1.7677   -0.9802   -0.2191 C   0  0  0  0  0  0  0  0  0  0  0  0
    1.8954   -1.8392    0.0919 C   0  0  0  0  0  0  0  0  0  0  0  0
    2.5850    1.5512   -0.7454 C   0  0  0  0  0  0  0  0  0  0  0  0
   -3.0310    1.1696   -0.0433 C   0  0  0  0  0  0  0  0  0  0  0  0
    1.7249    1.9221    1.1860 H   0  0  0  0  0  0  0  0  0  0  0  0
    2.6255    0.4410    1.1069 H   0  0  0  0  0  0  0  0  0  0  0  0
   -0.5418    2.1309    0.3995 H   0  0  0  0  0  0  0  0  0  0  0  0
   -0.6025   -2.7755   -0.3524 H   0  0  0  0  0  0  0  0  0  0  0  0
   -2.7004   -1.5033   -0.4130 H   0  0  0  0  0  0  0  0  0  0  0  0
    2.8282    0.7261   -1.4216 H   0  0  0  0  0  0  0  0  0  0  0  0
    3.5138    2.0805   -0.5095 H   0  0  0  0  0  0  0  0  0  0  0  0
    1.9306    2.2435   -1.2863 H   0  0  0  0  0  0  0  0  0  0  0  0
    2.6271   -1.4528   -0.6233 H   0  0  0  0  0  0  0  0  0  0  0  0
    2.3267   -1.8381    1.0982 H   0  0  0  0  0  0  0  0  0  0  0  0
    1.7174   -2.8864   -0.1785 H   0  0  0  0  0  0  0  0  0  0  0  0
   -3.0000    2.0151    0.6524 H   0  0  0  0  0  0  0  0  0  0  0  0
   -3.2106    1.5514   -1.0531 H   0  0  0  0  0  0  0  0  0  0  0  0
   -3.8810    0.5444    0.2508 H   0  0  0  0  0  0  0  0  0  0  0  0
  1  2  2  0  0  0  0
  1  3  1  0  0  0  0
  1  4  1  0  0  0  0
  2  6  1  0  0  0  0
  2  8  1  0  0  0  0
  3  9  1  0  0  0  0
  3 11  1  0  0  0  0
  3 12  1  0  0  0  0
  4  5  2  0  0  0  0
  4 13  1  0  0  0  0
  5  7  1  0  0  0  0
  5 10  1  0  0  0  0
  6  7  2  0  0  0  0
  6 14  1  0  0  0  0
  7 15  1  0  0  0  0
  8 19  1  0  0  0  0
  8 20  1  0  0  0  0
  8 21  1  0  0  0  0
  9 16  1  0  0  0  0
  9 17  1  0  0  0  0
  9 18  1  0  0  0  0
 10 22  1  0  0  0  0
 10 23  1  0  0  0  0
 10 24  1  0  0  0  0
M  END
> <PUBCHEM_COMPOUND_CID>
15653

> <PUBCHEM_CONFORMER_RMSD>
0.4

> <PUBCHEM_CONFORMER_DIVERSEORDER>
1
2
3

> <PUBCHEM_MMFF94_PARTIAL_CHARGES>
12
1 -0.14
10 0.14
13 0.15
14 0.15
15 0.15
2 -0.14
3 0.14
4 -0.15
5 -0.14
6 -0.15
7 -0.15
8 0.14

> <PUBCHEM_EFFECTIVE_ROTOR_COUNT>
1

> <PUBCHEM_PHARMACOPHORE_FEATURES>
2
1 9 hydrophobe
6 1 2 4 5 6 7 rings

> <PUBCHEM_HEAVY_ATOM_COUNT>
10

> <PUBCHEM_ATOM_DEF_STEREO_COUNT>
0

> <PUBCHEM_ATOM_UDEF_STEREO_COUNT>
0

> <PUBCHEM_BOND_DEF_STEREO_COUNT>
0

> <PUBCHEM_BOND_UDEF_STEREO_COUNT>
0

> <PUBCHEM_ISOTOPIC_ATOM_COUNT>
0

> <PUBCHEM_COMPONENT_COUNT>
1

> <PUBCHEM_CACTVS_TAUTO_COUNT>
1

> <PUBCHEM_CONFORMER_ID>
00003D2500000001

> <PUBCHEM_MMFF94_ENERGY>
22.7718

> <PUBCHEM_FEATURE_SELFOVERLAP>
10.148

> <PUBCHEM_SHAPE_FINGERPRINT>
11206711 2 18124869312079329989
12423570 1 10400199484123951786
12716758 59 18125446560121518424
13380535 21 18338811081973726523
13380535 76 18410566310092599899
16945 1 18124307465769096475
193761 8 18411416236960500355
20511035 2 18270951375854158274
20653085 51 18117012159074875940
21040471 1 18340761632528036809
21501502 16 18411415120448169543
23552423 10 18408318878287158282
241688 4 16972525738076946147
2748010 2 18411700989086675367
3071541 158 18047190748196278548
5084963 1 18057875840934009859
528862 383 18334572400086958178
68250623 7 18410293626982795267

> <PUBCHEM_SHAPE_MULTIPOLES>
205.8
3.7
2.08
0.72
0.74
0.54
-0.02
-1.61
-0.36
-0.71
-0.13
-0.19
-0.11
-0.27

> <PUBCHEM_SHAPE_SELFOVERLAP>
418.384

> <PUBCHEM_SHAPE_VOLUME>
117.8

> <PUBCHEM_COORDINATE_TYPE>
2
5
10

$$$$
