138113
  -OEChem-11012401023D

 18 18  0     0  0  0  0  0  0999 V2000
    1.0208    1.4424    0.0007 S   0  0  0  0  0  0  0  0  0  0  0  0
   -1.5293    0.3881    0.0002 C   0  0  0  0  0  0  0  0  0  0  0  0
   -0.0327    0.1179    0.0005 C   0  0  0  0  0  0  0  0  0  0  0  0
   -2.2019   -0.1585    1.2615 C   0  0  0  0  0  0  0  0  0  0  0  0
   -2.2016   -0.1568   -1.2620 C   0  0  0  0  0  0  0  0  0  0  0  0
    0.5783   -1.0883   -0.0004 C   0  0  0  0  0  0  0  0  0  0  0  0
    1.9947   -0.9348   -0.0005 C   0  0  0  0  0  0  0  0  0  0  0  0
    2.3716    0.3901    0.0000 C   0  0  0  0  0  0  0  0  0  0  0  0
   -1.6981    1.4741    0.0010 H   0  0  0  0  0  0  0  0  0  0  0  0
   -2.1263   -1.2500    1.3185 H   0  0  0  0  0  0  0  0  0  0  0  0
   -3.2648    0.1052    1.2790 H   0  0  0  0  0  0  0  0  0  0  0  0
   -1.7376    0.2553    2.1636 H   0  0  0  0  0  0  0  0  0  0  0  0
   -1.7370    0.2582   -2.1634 H   0  0  0  0  0  0  0  0  0  0  0  0
   -3.2645    0.1071   -1.2795 H   0  0  0  0  0  0  0  0  0  0  0  0
   -2.1260   -1.2483   -1.3205 H   0  0  0  0  0  0  0  0  0  0  0  0
    0.0679   -2.0427   -0.0009 H   0  0  0  0  0  0  0  0  0  0  0  0
    2.7015   -1.7545   -0.0011 H   0  0  0  0  0  0  0  0  0  0  0  0
    3.3756    0.7904    0.0000 H   0  0  0  0  0  0  0  0  0  0  0  0
  1  3  1  0  0  0  0
  1  8  1  0  0  0  0
  2  3  1  0  0  0  0
  2  4  1  0  0  0  0
  2  5  1  0  0  0  0
  2  9  1  0  0  0  0
  3  6  2  0  0  0  0
  4 10  1  0  0  0  0
  4 11  1  0  0  0  0
  4 12  1  0  0  0  0
  5 13  1  0  0  0  0
  5 14  1  0  0  0  0
  5 15  1  0  0  0  0
  6  7  1  0  0  0  0
  6 16  1  0  0  0  0
  7  8  2  0  0  0  0
  7 17  1  0  0  0  0
  8 18  1  0  0  0  0
M  END
> <PUBCHEM_COMPOUND_CID>
138113

> <PUBCHEM_CONFORMER_RMSD>
0.4

> <PUBCHEM_CONFORMER_DIVERSEORDER>
1
3
2

> <PUBCHEM_MMFF94_PARTIAL_CHARGES>
9
1 -0.08
16 0.15
17 0.15
18 0.15
2 0.18
3 -0.14
6 -0.15
7 -0.15
8 -0.11

> <PUBCHEM_EFFECTIVE_ROTOR_COUNT>
1

> <PUBCHEM_PHARMACOPHORE_FEATURES>
2
3 2 4 5 hydrophobe
5 1 3 6 7 8 rings

> <PUBCHEM_HEAVY_ATOM_COUNT>
8

> <PUBCHEM_ATOM_DEF_STEREO_COUNT>
0

> <PUBCHEM_ATOM_UDEF_STEREO_COUNT>
0

> <PUBCHEM_BOND_DEF_STEREO_COUNT>
0

> <PUBCHEM_BOND_UDEF_STEREO_COUNT>
0

> <PUBCHEM_ISOTOPIC_ATOM_COUNT>
0

> <PUBCHEM_COMPONENT_COUNT>
1

> <PUBCHEM_CACTVS_TAUTO_COUNT>
1

> <PUBCHEM_CONFORMER_ID>
00021B8100000001

> <PUBCHEM_MMFF94_ENERGY>
7.035

> <PUBCHEM_FEATURE_SELFOVERLAP>
10.148

> <PUBCHEM_SHAPE_FINGERPRINT>
10857977 72 17313673766379805081
12716758 59 16298378007593736353
12932741 1 17676204675749482247
18185500 45 18131626772840917365
21040471 1 18266741462180337504
24536 1 17967813838338293893
29004967 10 18334300837942219992
5084963 1 18130777992771768692

> <PUBCHEM_SHAPE_MULTIPOLES>
168.49
3.46
1.22
1.02
0.44
0.15
0
-0.14
0
-0.61
0
0.86
-0.05
0

> <PUBCHEM_SHAPE_SELFOVERLAP>
324.276

> <PUBCHEM_SHAPE_VOLUME>
104.2

> <PUBCHEM_COORDINATE_TYPE>
2
5
10

$$$$
