55300387
  -OEChem-11012401163D

 20 20  0     0  0  0  0  0  0999 V2000
   -0.1213    0.9941    0.1301 O   0  0  0  0  0  0  0  0  0  0  0  0
   -2.3702    1.1639    0.0057 O   0  0  0  0  0  0  0  0  0  0  0  0
   -1.4566   -0.9348   -0.0185 N   0  0  0  0  0  0  0  0  0  0  0  0
    1.0960    0.2127   -0.0032 C   0  0  0  0  0  0  0  0  0  0  0  0
    0.8910   -1.1821    0.5914 C   0  0  0  0  0  0  0  0  0  0  0  0
   -0.3254   -1.8344   -0.0287 C   0  0  0  0  0  0  0  0  0  0  0  0
    1.4786    0.1797   -1.4873 C   0  0  0  0  0  0  0  0  0  0  0  0
    2.1801    0.9565    0.7829 C   0  0  0  0  0  0  0  0  0  0  0  0
   -1.3724    0.4444    0.0277 C   0  0  0  0  0  0  0  0  0  0  0  0
    0.7155   -1.0931    1.6719 H   0  0  0  0  0  0  0  0  0  0  0  0
    1.7768   -1.8127    0.4554 H   0  0  0  0  0  0  0  0  0  0  0  0
   -0.1459   -2.1283   -1.0674 H   0  0  0  0  0  0  0  0  0  0  0  0
   -0.6090   -2.7344    0.5261 H   0  0  0  0  0  0  0  0  0  0  0  0
    2.3830   -0.4142   -1.6547 H   0  0  0  0  0  0  0  0  0  0  0  0
    0.6736   -0.2278   -2.1072 H   0  0  0  0  0  0  0  0  0  0  0  0
    1.6581    1.1942   -1.8622 H   0  0  0  0  0  0  0  0  0  0  0  0
    1.8986    1.0557    1.8375 H   0  0  0  0  0  0  0  0  0  0  0  0
    3.1442    0.4404    0.7276 H   0  0  0  0  0  0  0  0  0  0  0  0
    2.3090    1.9766    0.4032 H   0  0  0  0  0  0  0  0  0  0  0  0
   -2.3817   -1.3436   -0.1087 H   0  0  0  0  0  0  0  0  0  0  0  0
  1  4  1  0  0  0  0
  1  9  1  0  0  0  0
  2  9  2  0  0  0  0
  3  6  1  0  0  0  0
  3  9  1  0  0  0  0
  3 20  1  0  0  0  0
  4  5  1  0  0  0  0
  4  7  1  0  0  0  0
  4  8  1  0  0  0  0
  5  6  1  0  0  0  0
  5 10  1  0  0  0  0
  5 11  1  0  0  0  0
  6 12  1  0  0  0  0
  6 13  1  0  0  0  0
  7 14  1  0  0  0  0
  7 15  1  0  0  0  0
  7 16  1  0  0  0  0
  8 17  1  0  0  0  0
  8 18  1  0  0  0  0
  8 19  1  0  0  0  0
M  END
> <PUBCHEM_COMPOUND_CID>
55300387

> <PUBCHEM_CONFORMER_RMSD>
0.4

> <PUBCHEM_CONFORMER_DIVERSEORDER>
1
2

> <PUBCHEM_MMFF94_PARTIAL_CHARGES>
7
1 -0.43
2 -0.57
20 0.37
3 -0.73
4 0.28
6 0.3
9 0.78

> <PUBCHEM_EFFECTIVE_ROTOR_COUNT>
1

> <PUBCHEM_PHARMACOPHORE_FEATURES>
4
1 2 acceptor
1 3 donor
3 4 7 8 hydrophobe
6 1 3 4 5 6 9 rings

> <PUBCHEM_HEAVY_ATOM_COUNT>
9

> <PUBCHEM_ATOM_DEF_STEREO_COUNT>
0

> <PUBCHEM_ATOM_UDEF_STEREO_COUNT>
0

> <PUBCHEM_BOND_DEF_STEREO_COUNT>
0

> <PUBCHEM_BOND_UDEF_STEREO_COUNT>
0

> <PUBCHEM_ISOTOPIC_ATOM_COUNT>
0

> <PUBCHEM_COMPONENT_COUNT>
1

> <PUBCHEM_CACTVS_TAUTO_COUNT>
2

> <PUBCHEM_CONFORMER_ID>
034BD12300000001

> <PUBCHEM_MMFF94_ENERGY>
18.8484

> <PUBCHEM_FEATURE_SELFOVERLAP>
20.297

> <PUBCHEM_SHAPE_FINGERPRINT>
12716758 59 18340499949182625838
137420 1 12162766484077620766
16945 1 18052812834601062306
18185500 45 18043521926881238618
20653085 51 17172693273375772956
21040471 1 18408608058382106163
21922407 69 15719963560529785121
23211744 41 17916013749688763072
23552423 10 18187365462897806306
24536 1 17458349658019828091
5084963 1 17968099685538853923

> <PUBCHEM_SHAPE_MULTIPOLES>
168.5
2.6
1.59
0.97
0.3
0.53
-0.32
-1.03
0.14
0.42
0.17
-0.6
-0.04
0.06

> <PUBCHEM_SHAPE_SELFOVERLAP>
332.958

> <PUBCHEM_SHAPE_VOLUME>
100

> <PUBCHEM_COORDINATE_TYPE>
2
5
10

$$$$
