85339
  -OEChem-11012400583D

 39 39  0     0  0  0  0  0  0999 V2000
   -1.3075   -3.5434    0.0008 O   0  0  0  0  0  0  0  0  0  0  0  0
    0.9525   -3.7857   -0.0001 O   0  0  0  0  0  0  0  0  0  0  0  0
    2.5491    1.1904    0.0000 C   0  0  0  0  0  0  0  0  0  0  0  0
   -2.4489    1.2948    0.0000 C   0  0  0  0  0  0  0  0  0  0  0  0
    1.2017    0.4495    0.0001 C   0  0  0  0  0  0  0  0  0  0  0  0
   -1.1733    0.5221    0.0000 C   0  0  0  0  0  0  0  0  0  0  0  0
    0.0490    1.1942    0.0003 C   0  0  0  0  0  0  0  0  0  0  0  0
    3.3542    0.8039   -1.2594 C   0  0  0  0  0  0  0  0  0  0  0  0
    3.3560    0.8017    1.2578 C   0  0  0  0  0  0  0  0  0  0  0  0
    2.4157    2.7302    0.0016 C   0  0  0  0  0  0  0  0  0  0  0  0
   -3.3095    0.9657    1.2591 C   0  0  0  0  0  0  0  0  0  0  0  0
   -3.3106    0.9646   -1.2581 C   0  0  0  0  0  0  0  0  0  0  0  0
   -2.2909    2.8517   -0.0009 C   0  0  0  0  0  0  0  0  0  0  0  0
    1.2131   -0.9229   -0.0001 C   0  0  0  0  0  0  0  0  0  0  0  0
   -1.2023   -0.8725   -0.0004 C   0  0  0  0  0  0  0  0  0  0  0  0
   -0.0091   -1.5950   -0.0003 C   0  0  0  0  0  0  0  0  0  0  0  0
   -0.0392   -3.0493   -0.0003 C   0  0  0  0  0  0  0  0  0  0  0  0
    0.0701    2.2720    0.0006 H   0  0  0  0  0  0  0  0  0  0  0  0
    4.3018    1.3536   -1.3057 H   0  0  0  0  0  0  0  0  0  0  0  0
    3.6044   -0.2622   -1.2858 H   0  0  0  0  0  0  0  0  0  0  0  0
    2.7921    1.0328   -2.1727 H   0  0  0  0  0  0  0  0  0  0  0  0
    3.6068   -0.2643    1.2817 H   0  0  0  0  0  0  0  0  0  0  0  0
    4.3034    1.3516    1.3039 H   0  0  0  0  0  0  0  0  0  0  0  0
    2.7950    1.0287    2.1722 H   0  0  0  0  0  0  0  0  0  0  0  0
    3.4054    3.2043    0.0019 H   0  0  0  0  0  0  0  0  0  0  0  0
    1.8958    3.1000   -0.8902 H   0  0  0  0  0  0  0  0  0  0  0  0
    1.8962    3.0982    0.8944 H   0  0  0  0  0  0  0  0  0  0  0  0
   -4.2332    1.5559    1.2760 H   0  0  0  0  0  0  0  0  0  0  0  0
   -3.6008   -0.0898    1.2927 H   0  0  0  0  0  0  0  0  0  0  0  0
   -2.7535    1.1846    2.1784 H   0  0  0  0  0  0  0  0  0  0  0  0
   -3.6023   -0.0908   -1.2904 H   0  0  0  0  0  0  0  0  0  0  0  0
   -4.2340    1.5550   -1.2749 H   0  0  0  0  0  0  0  0  0  0  0  0
   -2.7551    1.1824   -2.1780 H   0  0  0  0  0  0  0  0  0  0  0  0
   -3.2700    3.3464   -0.0011 H   0  0  0  0  0  0  0  0  0  0  0  0
   -1.7573    3.2033    0.8900 H   0  0  0  0  0  0  0  0  0  0  0  0
   -1.7574    3.2024   -0.8921 H   0  0  0  0  0  0  0  0  0  0  0  0
    2.1398   -1.4874   -0.0003 H   0  0  0  0  0  0  0  0  0  0  0  0
   -2.1619   -1.3809   -0.0005 H   0  0  0  0  0  0  0  0  0  0  0  0
   -1.3170   -4.5244    0.0014 H   0  0  0  0  0  0  0  0  0  0  0  0
  1 17  1  0  0  0  0
  1 39  1  0  0  0  0
  2 17  2  0  0  0  0
  3  5  1  0  0  0  0
  3  8  1  0  0  0  0
  3  9  1  0  0  0  0
  3 10  1  0  0  0  0
  4  6  1  0  0  0  0
  4 11  1  0  0  0  0
  4 12  1  0  0  0  0
  4 13  1  0  0  0  0
  5  7  2  0  0  0  0
  5 14  1  0  0  0  0
  6  7  1  0  0  0  0
  6 15  2  0  0  0  0
  7 18  1  0  0  0  0
  8 19  1  0  0  0  0
  8 20  1  0  0  0  0
  8 21  1  0  0  0  0
  9 22  1  0  0  0  0
  9 23  1  0  0  0  0
  9 24  1  0  0  0  0
 10 25  1  0  0  0  0
 10 26  1  0  0  0  0
 10 27  1  0  0  0  0
 11 28  1  0  0  0  0
 11 29  1  0  0  0  0
 11 30  1  0  0  0  0
 12 31  1  0  0  0  0
 12 32  1  0  0  0  0
 12 33  1  0  0  0  0
 13 34  1  0  0  0  0
 13 35  1  0  0  0  0
 13 36  1  0  0  0  0
 14 16  2  0  0  0  0
 14 37  1  0  0  0  0
 15 16  1  0  0  0  0
 15 38  1  0  0  0  0
 16 17  1  0  0  0  0
M  END
> <PUBCHEM_COMPOUND_CID>
85339

> <PUBCHEM_CONFORMER_RMSD>
0.6

> <PUBCHEM_CONFORMER_DIVERSEORDER>
1
2
3

> <PUBCHEM_MMFF94_PARTIAL_CHARGES>
15
1 -0.65
14 -0.15
15 -0.15
16 0.09
17 0.63
18 0.15
2 -0.57
3 0.14
37 0.15
38 0.15
39 0.5
4 0.14
5 -0.14
6 -0.14
7 -0.15

> <PUBCHEM_EFFECTIVE_ROTOR_COUNT>
3

> <PUBCHEM_PHARMACOPHORE_FEATURES>
6
1 1 acceptor
1 2 acceptor
3 1 2 17 anion
4 3 8 9 10 hydrophobe
4 4 11 12 13 hydrophobe
6 5 6 7 14 15 16 rings

> <PUBCHEM_HEAVY_ATOM_COUNT>
17

> <PUBCHEM_ATOM_DEF_STEREO_COUNT>
0

> <PUBCHEM_ATOM_UDEF_STEREO_COUNT>
0

> <PUBCHEM_BOND_DEF_STEREO_COUNT>
0

> <PUBCHEM_BOND_UDEF_STEREO_COUNT>
0

> <PUBCHEM_ISOTOPIC_ATOM_COUNT>
0

> <PUBCHEM_COMPONENT_COUNT>
1

> <PUBCHEM_CACTVS_TAUTO_COUNT>
1

> <PUBCHEM_CONFORMER_ID>
00014D5B00000001

> <PUBCHEM_MMFF94_ENERGY>
66.8703

> <PUBCHEM_FEATURE_SELFOVERLAP>
30.503

> <PUBCHEM_SHAPE_FINGERPRINT>
1 1 18338518521443682468
10967382 1 17978509737018478725
11322862 65 18267603448878536286
116883 192 17837502108221510454
121448 382 18199727280618359461
12173636 292 18410298050762349645
12553582 1 17401487546996797754
12730499 353 18336268925808530781
13140716 1 18410856521048758146
13538477 17 18189324852821800888
13583140 156 17095792321669393057
14022347 108 17541961113917491778
14648413 74 17903360299494071137
15042514 8 18264490774431145690
15309172 13 18410017641169389865
15490181 7 18411145726945443719
15490181 8 18410847746383034259
16752209 62 18192979642004216610
16945 1 18410575084695110692
18186145 218 18201725032958672296
19591789 44 18338814350180451887
19868273 325 17545325640703725814
20510252 161 18053384584810552592
20645476 183 18115034103396722724
20645477 70 18118114772106662221
21041028 32 17330570743306149481
21160774 45 18264770046595762687
21524375 3 18409444778119823082
2255824 54 18051694343718722143
23184049 29 17906165510165108968
2334 1 18410575114743940598
23402539 116 18055620970197856039
23419403 2 16816644843881932714
23557571 272 17765441237492963036
23598291 2 17699283262061703485
23598294 1 18119532286816976104
257057 1 17257922127345139346
2748010 2 18337121102331497815
305870 269 18267297638617139136
3060560 45 18336541629723408724
3071541 12 18050851009372543156
3071541 158 17470170258448351140
3071541 236 18265881635180951658
3091708 16 9483169592068228698
34934 24 17186995939573221518
352729 6 18338514252225123523
43471831 8 18410009901601061347
458136 41 18194144961162781809
633830 44 18131358487873004669
6992083 37 18041827519718545572
7364860 26 18051689936770799593
74978 22 18337952415227803876
81228 2 17907301305233444634
84936 182 18057028117279707985

> <PUBCHEM_SHAPE_MULTIPOLES>
338.11
5.21
4.02
0.99
0.1
4.38
0
-4.19
0
-0.13
0
0
-0.33
0

> <PUBCHEM_SHAPE_SELFOVERLAP>
699.091

> <PUBCHEM_SHAPE_VOLUME>
197.3

> <PUBCHEM_COORDINATE_TYPE>
2
5
10

$$$$
