69840
  -OEChem-11012400373D

 17 17  0     0  0  0  0  0  0999 V2000
    1.4471    0.0002   -0.6168 O   0  0  0  0  0  0  0  0  0  0  0  0
    0.1191    0.0001   -0.3198 C   0  0  0  0  0  0  0  0  0  0  0  0
   -0.5617    1.2080   -0.1672 C   0  0  0  0  0  0  0  0  0  0  0  0
   -0.5613   -1.2081   -0.1673 C   0  0  0  0  0  0  0  0  0  0  0  0
   -1.9228    1.2079    0.1379 C   0  0  0  0  0  0  0  0  0  0  0  0
   -1.9224   -1.2081    0.1378 C   0  0  0  0  0  0  0  0  0  0  0  0
   -2.6031   -0.0001    0.2904 C   0  0  0  0  0  0  0  0  0  0  0  0
    2.3385    0.0000    0.4192 C   0  0  0  0  0  0  0  0  0  0  0  0
    3.6665    0.0000    0.2859 C   0  0  0  0  0  0  0  0  0  0  0  0
   -0.0386    2.1532   -0.2857 H   0  0  0  0  0  0  0  0  0  0  0  0
   -0.0380   -2.1530   -0.2858 H   0  0  0  0  0  0  0  0  0  0  0  0
   -2.4529    2.1484    0.2564 H   0  0  0  0  0  0  0  0  0  0  0  0
   -2.4524   -2.1487    0.2563 H   0  0  0  0  0  0  0  0  0  0  0  0
   -3.6629   -0.0002    0.5278 H   0  0  0  0  0  0  0  0  0  0  0  0
    1.8797   -0.0002    1.4001 H   0  0  0  0  0  0  0  0  0  0  0  0
    4.3091   -0.0002    1.1591 H   0  0  0  0  0  0  0  0  0  0  0  0
    4.1296    0.0003   -0.6944 H   0  0  0  0  0  0  0  0  0  0  0  0
  1  2  1  0  0  0  0
  1  8  1  0  0  0  0
  2  3  2  0  0  0  0
  2  4  1  0  0  0  0
  3  5  1  0  0  0  0
  3 10  1  0  0  0  0
  4  6  2  0  0  0  0
  4 11  1  0  0  0  0
  5  7  2  0  0  0  0
  5 12  1  0  0  0  0
  6  7  1  0  0  0  0
  6 13  1  0  0  0  0
  7 14  1  0  0  0  0
  8  9  2  0  0  0  0
  8 15  1  0  0  0  0
  9 16  1  0  0  0  0
  9 17  1  0  0  0  0
M  END
> <PUBCHEM_COMPOUND_CID>
69840

> <PUBCHEM_CONFORMER_RMSD>
0.4

> <PUBCHEM_CONFORMER_DIVERSEORDER>
1
5
4
3
2

> <PUBCHEM_MMFF94_PARTIAL_CHARGES>
17
1 -0.16
10 0.15
11 0.15
12 0.15
13 0.15
14 0.15
15 0.15
16 0.15
17 0.15
2 0.08
3 -0.15
4 -0.15
5 -0.15
6 -0.15
7 -0.15
8 -0.07
9 -0.3

> <PUBCHEM_EFFECTIVE_ROTOR_COUNT>
2

> <PUBCHEM_PHARMACOPHORE_FEATURES>
2
1 1 acceptor
6 2 3 4 5 6 7 rings

> <PUBCHEM_HEAVY_ATOM_COUNT>
9

> <PUBCHEM_ATOM_DEF_STEREO_COUNT>
0

> <PUBCHEM_ATOM_UDEF_STEREO_COUNT>
0

> <PUBCHEM_BOND_DEF_STEREO_COUNT>
0

> <PUBCHEM_BOND_UDEF_STEREO_COUNT>
0

> <PUBCHEM_ISOTOPIC_ATOM_COUNT>
0

> <PUBCHEM_COMPONENT_COUNT>
1

> <PUBCHEM_CACTVS_TAUTO_COUNT>
1

> <PUBCHEM_CONFORMER_ID>
000110D000000001

> <PUBCHEM_MMFF94_ENERGY>
25.96

> <PUBCHEM_FEATURE_SELFOVERLAP>
10.148

> <PUBCHEM_SHAPE_FINGERPRINT>
10857977 72 18341608256470894400
12932764 1 17603297142523540116
13024252 1 14634867531179738749
14325111 11 18411981326018150928
20645464 45 17989210330388282990
20653085 51 14117800227791879802
20871998 184 18200879594389852583
21040471 1 18266190422097388133
23402539 116 18272358772855801861
23552423 10 17755309203092638429
2748010 2 18049175366995527149
29004967 10 16773804692186787182
369184 2 18411695487032888250
75552 356 18409449206341868626

> <PUBCHEM_SHAPE_MULTIPOLES>
179.35
4.65
1.28
0.7
4.22
0
0
0
-0.82
-0.82
0.01
0.07
0
0

> <PUBCHEM_SHAPE_SELFOVERLAP>
366.358

> <PUBCHEM_SHAPE_VOLUME>
103.7

> <PUBCHEM_COORDINATE_TYPE>
2
5
10

$$$$
