5788
  -OEChem-11012401143D

 19 19  0     0  0  0  0  0  0999 V2000
    0.6758   -2.1811   -0.1866 O   0  0  0  0  0  0  0  0  0  0  0  0
    2.5640    1.4371   -0.4777 O   0  0  0  0  0  0  0  0  0  0  0  0
    2.8439   -0.6082    0.4738 O   0  0  0  0  0  0  0  0  0  0  0  0
   -2.1502    0.1251    0.0138 C   0  0  0  0  0  0  0  0  0  0  0  0
    0.6383    0.2074    0.0334 C   0  0  0  0  0  0  0  0  0  0  0  0
   -0.0226   -1.0155   -0.0817 C   0  0  0  0  0  0  0  0  0  0  0  0
   -1.4168   -1.0567   -0.0915 C   0  0  0  0  0  0  0  0  0  0  0  0
   -1.4894    1.3481    0.1289 C   0  0  0  0  0  0  0  0  0  0  0  0
   -0.0952    1.3893    0.1387 C   0  0  0  0  0  0  0  0  0  0  0  0
   -3.6409    0.0814    0.0028 C   0  0  0  0  0  0  0  0  0  0  0  0
    2.0931    0.2731    0.0459 C   0  0  0  0  0  0  0  0  0  0  0  0
   -1.9269   -2.0130   -0.1799 H   0  0  0  0  0  0  0  0  0  0  0  0
   -2.0500    2.2752    0.2162 H   0  0  0  0  0  0  0  0  0  0  0  0
    0.3903    2.3561    0.2430 H   0  0  0  0  0  0  0  0  0  0  0  0
   -4.0068   -0.7487   -0.6111 H   0  0  0  0  0  0  0  0  0  0  0  0
   -4.0206   -0.0415    1.0220 H   0  0  0  0  0  0  0  0  0  0  0  0
   -4.0608    1.0007   -0.4192 H   0  0  0  0  0  0  0  0  0  0  0  0
    1.6299   -2.0072   -0.2152 H   0  0  0  0  0  0  0  0  0  0  0  0
    3.5443    1.4727   -0.4656 H   0  0  0  0  0  0  0  0  0  0  0  0
  1  6  1  0  0  0  0
  1 18  1  0  0  0  0
  2 11  1  0  0  0  0
  2 19  1  0  0  0  0
  3 11  2  0  0  0  0
  4  7  2  0  0  0  0
  4  8  1  0  0  0  0
  4 10  1  0  0  0  0
  5  6  2  0  0  0  0
  5  9  1  0  0  0  0
  5 11  1  0  0  0  0
  6  7  1  0  0  0  0
  7 12  1  0  0  0  0
  8  9  2  0  0  0  0
  8 13  1  0  0  0  0
  9 14  1  0  0  0  0
 10 15  1  0  0  0  0
 10 16  1  0  0  0  0
 10 17  1  0  0  0  0
M  END
> <PUBCHEM_COMPOUND_CID>
5788

> <PUBCHEM_CONFORMER_RMSD>
0.4

> <PUBCHEM_CONFORMER_DIVERSEORDER>
1
3
2

> <PUBCHEM_MMFF94_PARTIAL_CHARGES>
16
1 -0.53
10 0.14
11 0.63
12 0.15
13 0.15
14 0.15
18 0.45
19 0.5
2 -0.65
3 -0.57
4 -0.14
5 0.09
6 0.08
7 -0.15
8 -0.15
9 -0.15

> <PUBCHEM_EFFECTIVE_ROTOR_COUNT>
1

> <PUBCHEM_PHARMACOPHORE_FEATURES>
5
1 1 donor
1 2 acceptor
1 3 acceptor
3 2 3 11 anion
6 4 5 6 7 8 9 rings

> <PUBCHEM_HEAVY_ATOM_COUNT>
11

> <PUBCHEM_ATOM_DEF_STEREO_COUNT>
0

> <PUBCHEM_ATOM_UDEF_STEREO_COUNT>
0

> <PUBCHEM_BOND_DEF_STEREO_COUNT>
0

> <PUBCHEM_BOND_UDEF_STEREO_COUNT>
0

> <PUBCHEM_ISOTOPIC_ATOM_COUNT>
0

> <PUBCHEM_COMPONENT_COUNT>
1

> <PUBCHEM_CACTVS_TAUTO_COUNT>
12

> <PUBCHEM_CONFORMER_ID>
0000169C00000001

> <PUBCHEM_MMFF94_ENERGY>
31.3526

> <PUBCHEM_FEATURE_SELFOVERLAP>
25.429

> <PUBCHEM_SHAPE_FINGERPRINT>
10219947 1 18335142003187450341
12032990 46 18411426106974486747
12423570 1 18263640658590030272
12897270 3 18410856546939673005
13380535 76 18410572877440714163
14325111 11 18410012156385142529
15775835 57 18337113461621614460
16945 1 18411422778247965471
193761 8 17763465015401756953
20645476 183 17823996712529505262
21040471 1 18340485676779408770
23235685 24 18410570704091966025
23402655 69 18197198275891093765
23463225 33 18335979783576302706
23552423 10 18265056825387702327
241688 4 17545325172467888258
2748010 2 18051691341488927397
369184 2 17240479221442009769
5084963 1 18201157663504502360
528886 8 18411978104629155265

> <PUBCHEM_SHAPE_MULTIPOLES>
208.77
4.28
1.69
0.63
0.86
0.34
0
-0.49
0.06
-0.37
-0.09
-0.04
-0.03
-0.2

> <PUBCHEM_SHAPE_SELFOVERLAP>
440.455

> <PUBCHEM_SHAPE_VOLUME>
117.4

> <PUBCHEM_COORDINATE_TYPE>
2
5
10

$$$$
