139832
  -OEChem-11012401123D

 41 43  0     1  0  0  0  0  0999 V2000
    1.6456   -1.4703   -0.1701 O   0  0  0  0  0  0  0  0  0  0  0  0
    3.4609   -2.5047   -1.1132 O   0  0  0  0  0  0  0  0  0  0  0  0
   -3.4661   -0.4754    0.6649 O   0  0  0  0  0  0  0  0  0  0  0  0
   -3.3764   -1.1934   -1.5613 O   0  0  0  0  0  0  0  0  0  0  0  0
    2.6987    0.4384    0.6830 C   0  0  1  0  0  0  0  0  0  0  0  0
    1.4415   -0.4201    0.7919 C   0  0  1  0  0  0  0  0  0  0  0  0
    3.7604   -0.6272    0.4146 C   0  0  1  0  0  0  0  0  0  0  0  0
    2.5580    1.4952   -0.4219 C   0  0  0  0  0  0  0  0  0  0  0  0
    0.1350    0.2757    0.5123 C   0  0  0  0  0  0  0  0  0  0  0  0
    1.3551    2.3949   -0.1515 C   0  0  0  0  0  0  0  0  0  0  0  0
    0.0911    1.6028    0.0514 C   0  0  0  0  0  0  0  0  0  0  0  0
    2.9861   -1.6412   -0.3919 C   0  0  0  0  0  0  0  0  0  0  0  0
    5.0192   -0.1532   -0.2888 C   0  0  0  0  0  0  0  0  0  0  0  0
   -1.0680   -0.4204    0.7116 C   0  0  0  0  0  0  0  0  0  0  0  0
   -1.1499    2.2166   -0.1750 C   0  0  0  0  0  0  0  0  0  0  0  0
   -2.2958    0.1950    0.4701 C   0  0  0  0  0  0  0  0  0  0  0  0
   -2.3366    1.5141    0.0292 C   0  0  0  0  0  0  0  0  0  0  0  0
   -1.0648   -1.8382    1.1970 C   0  0  0  0  0  0  0  0  0  0  0  0
   -1.2512    3.6381   -0.6295 C   0  0  0  0  0  0  0  0  0  0  0  0
   -3.9277   -1.1623   -0.4691 C   0  0  0  0  0  0  0  0  0  0  0  0
   -5.2152   -1.8644   -0.1539 C   0  0  0  0  0  0  0  0  0  0  0  0
    2.8972    0.9574    1.6294 H   0  0  0  0  0  0  0  0  0  0  0  0
    1.4180   -0.8706    1.7923 H   0  0  0  0  0  0  0  0  0  0  0  0
    4.0329   -1.1142    1.3599 H   0  0  0  0  0  0  0  0  0  0  0  0
    2.4413    1.0148   -1.4023 H   0  0  0  0  0  0  0  0  0  0  0  0
    3.4603    2.1156   -0.4732 H   0  0  0  0  0  0  0  0  0  0  0  0
    1.2630    3.0752   -1.0050 H   0  0  0  0  0  0  0  0  0  0  0  0
    1.5372    3.0012    0.7442 H   0  0  0  0  0  0  0  0  0  0  0  0
    4.8201    0.1741   -1.3147 H   0  0  0  0  0  0  0  0  0  0  0  0
    5.4868    0.6710    0.2588 H   0  0  0  0  0  0  0  0  0  0  0  0
    5.7475   -0.9692   -0.3543 H   0  0  0  0  0  0  0  0  0  0  0  0
   -3.2991    1.9877   -0.1497 H   0  0  0  0  0  0  0  0  0  0  0  0
   -0.7289   -2.5111    0.4017 H   0  0  0  0  0  0  0  0  0  0  0  0
   -0.4210   -1.9586    2.0735 H   0  0  0  0  0  0  0  0  0  0  0  0
   -2.0514   -2.1851    1.5197 H   0  0  0  0  0  0  0  0  0  0  0  0
   -2.2842    4.0024   -0.6024 H   0  0  0  0  0  0  0  0  0  0  0  0
   -0.6687    4.2981    0.0217 H   0  0  0  0  0  0  0  0  0  0  0  0
   -0.8971    3.7348   -1.6608 H   0  0  0  0  0  0  0  0  0  0  0  0
   -5.0536   -2.5872    0.6497 H   0  0  0  0  0  0  0  0  0  0  0  0
   -5.5628   -2.4006   -1.0415 H   0  0  0  0  0  0  0  0  0  0  0  0
   -5.9741   -1.1324    0.1324 H   0  0  0  0  0  0  0  0  0  0  0  0
  1  6  1  0  0  0  0
  1 12  1  0  0  0  0
  2 12  2  0  0  0  0
  3 16  1  0  0  0  0
  3 20  1  0  0  0  0
  4 20  2  0  0  0  0
  5  6  1  0  0  0  0
  5  7  1  0  0  0  0
  5  8  1  0  0  0  0
  5 22  1  0  0  0  0
  6  9  1  0  0  0  0
  6 23  1  0  0  0  0
  7 12  1  0  0  0  0
  7 13  1  0  0  0  0
  7 24  1  0  0  0  0
  8 10  1  0  0  0  0
  8 25  1  0  0  0  0
  8 26  1  0  0  0  0
  9 11  2  0  0  0  0
  9 14  1  0  0  0  0
 10 11  1  0  0  0  0
 10 27  1  0  0  0  0
 10 28  1  0  0  0  0
 11 15  1  0  0  0  0
 13 29  1  0  0  0  0
 13 30  1  0  0  0  0
 13 31  1  0  0  0  0
 14 16  2  0  0  0  0
 14 18  1  0  0  0  0
 15 17  2  0  0  0  0
 15 19  1  0  0  0  0
 16 17  1  0  0  0  0
 17 32  1  0  0  0  0
 18 33  1  0  0  0  0
 18 34  1  0  0  0  0
 18 35  1  0  0  0  0
 19 36  1  0  0  0  0
 19 37  1  0  0  0  0
 19 38  1  0  0  0  0
 20 21  1  0  0  0  0
 21 39  1  0  0  0  0
 21 40  1  0  0  0  0
 21 41  1  0  0  0  0
M  END
> <PUBCHEM_COMPOUND_CID>
139832

> <PUBCHEM_CONFORMER_RMSD>
0.6

> <PUBCHEM_CONFORMER_DIVERSEORDER>
3
47
12
36
11
16
18
46
51
37
15
48
52
22
28
33
19
53
38
17
26
59
1
49
55
42
6
23
20
24
45
50
8
39
30
2
25
27
32
58
29
31
56
7
13
44
34
54
10
21
5
40
4
35
14
57
41
9
43

> <PUBCHEM_MMFF94_PARTIAL_CHARGES>
19
1 -0.43
10 0.14
11 -0.14
12 0.66
14 -0.14
15 -0.14
16 0.08
17 -0.15
18 0.14
19 0.14
2 -0.57
20 0.66
21 0.06
3 -0.23
32 0.15
4 -0.57
6 0.42
7 0.06
9 -0.14

> <PUBCHEM_EFFECTIVE_ROTOR_COUNT>
2.8

> <PUBCHEM_PHARMACOPHORE_FEATURES>
5
1 2 acceptor
1 4 acceptor
5 1 5 6 7 12 rings
6 5 6 8 9 10 11 rings
6 9 11 14 15 16 17 rings

> <PUBCHEM_HEAVY_ATOM_COUNT>
21

> <PUBCHEM_ATOM_DEF_STEREO_COUNT>
0

> <PUBCHEM_ATOM_UDEF_STEREO_COUNT>
3

> <PUBCHEM_BOND_DEF_STEREO_COUNT>
0

> <PUBCHEM_BOND_UDEF_STEREO_COUNT>
0

> <PUBCHEM_ISOTOPIC_ATOM_COUNT>
0

> <PUBCHEM_COMPONENT_COUNT>
1

> <PUBCHEM_CACTVS_TAUTO_COUNT>
2

> <PUBCHEM_CONFORMER_ID>
0002223800000003

> <PUBCHEM_MMFF94_ENERGY>
56.7198

> <PUBCHEM_FEATURE_SELFOVERLAP>
25.547

> <PUBCHEM_SHAPE_FINGERPRINT>
10906281 52 18189627196791655328
10967382 1 18191590963076314832
11680986 33 18046911760090035033
116883 192 18410011018097476877
11806522 49 18409729573443896200
12403259 226 18411975832776312520
12403259 327 15769494339338216671
12553582 1 18336275633713802488
12788726 201 18334570222459483112
13140716 1 18191029112892724744
13583140 156 15625937582382354827
14790565 3 17761781658573679864
15196674 1 18408886235003619488
15848700 24 18410289246004961321
15848702 151 18343022198818534875
16752209 62 18113888334586157457
16945 1 18261117378499827104
17357779 13 18335128800178388469
1813 80 18341628026753938727
18186145 218 17749660870564461115
19141452 34 18200317619910556257
19591789 44 17400364442944840465
200 152 18273213127301987539
20510252 161 18338239241454236480
20645477 70 18263078993037415777
20871999 31 18334575698505900900
21267235 1 18410019865709105219
21285901 2 18114451366513203229
21501502 16 18409174289828237440
221357 26 18261659472730070407
221490 88 17973447895202372363
2334 1 18263362495328620968
23402539 116 18335414651779482066
23557571 272 18341894065069632561
23558518 356 18188497843667523712
23559900 14 18266173010142111024
2748010 2 18263923241937620928
2871803 45 18408317778712188082
3286 77 17560797775029855657
46194498 28 17606106523813558199
5104073 3 18270396080038640770
7364860 26 18268149932317994520
81228 2 18334017159500041937
9709674 26 18409456860337820914

> <PUBCHEM_SHAPE_MULTIPOLES>
408.69
8.24
3.12
0.99
1.29
2.09
0.08
-5.7
1.72
0.73
0.74
0.17
-0.35
0.25

> <PUBCHEM_SHAPE_SELFOVERLAP>
885.375

> <PUBCHEM_SHAPE_VOLUME>
224.1

> <PUBCHEM_COORDINATE_TYPE>
2
5
10

$$$$
