8488
  -OEChem-11012400303D

 23 23  0     0  0  0  0  0  0999 V2000
    1.9596   -0.2639    0.0064 N   0  0  0  0  0  0  0  0  0  0  0  0
    0.5967    0.0985   -0.0199 C   0  0  0  0  0  0  0  0  0  0  0  0
   -0.3883   -0.8818    0.1000 C   0  0  0  0  0  0  0  0  0  0  0  0
   -1.7360   -0.5228    0.0760 C   0  0  0  0  0  0  0  0  0  0  0  0
    0.2342    1.4377   -0.1639 C   0  0  0  0  0  0  0  0  0  0  0  0
   -2.0987    0.8164   -0.0679 C   0  0  0  0  0  0  0  0  0  0  0  0
   -1.1135    1.7966   -0.1879 C   0  0  0  0  0  0  0  0  0  0  0  0
    2.9535    0.6552    0.5240 C   0  0  0  0  0  0  0  0  0  0  0  0
    2.3821   -1.5657   -0.4709 C   0  0  0  0  0  0  0  0  0  0  0  0
   -2.7895   -1.5702    0.2041 C   0  0  0  0  0  0  0  0  0  0  0  0
   -0.1281   -1.9293    0.2276 H   0  0  0  0  0  0  0  0  0  0  0  0
    0.9756    2.2242   -0.2714 H   0  0  0  0  0  0  0  0  0  0  0  0
   -3.1449    1.1096   -0.0868 H   0  0  0  0  0  0  0  0  0  0  0  0
    3.2060    1.4149   -0.2231 H   0  0  0  0  0  0  0  0  0  0  0  0
    3.8794    0.1305    0.7852 H   0  0  0  0  0  0  0  0  0  0  0  0
    2.6047    1.1510    1.4370 H   0  0  0  0  0  0  0  0  0  0  0  0
    3.4532   -1.5726   -0.7021 H   0  0  0  0  0  0  0  0  0  0  0  0
    1.8601   -1.8444   -1.3932 H   0  0  0  0  0  0  0  0  0  0  0  0
    2.2046   -2.3342    0.2888 H   0  0  0  0  0  0  0  0  0  0  0  0
   -1.3962    2.8391   -0.3022 H   0  0  0  0  0  0  0  0  0  0  0  0
   -2.4867   -2.4944   -0.3000 H   0  0  0  0  0  0  0  0  0  0  0  0
   -2.9755   -1.7890    1.2603 H   0  0  0  0  0  0  0  0  0  0  0  0
   -3.7301   -1.2484   -0.2558 H   0  0  0  0  0  0  0  0  0  0  0  0
  1  2  1  0  0  0  0
  1  8  1  0  0  0  0
  1  9  1  0  0  0  0
  2  3  1  0  0  0  0
  2  5  2  0  0  0  0
  3  4  2  0  0  0  0
  3 11  1  0  0  0  0
  4  6  1  0  0  0  0
  4 10  1  0  0  0  0
  5  7  1  0  0  0  0
  5 12  1  0  0  0  0
  6  7  2  0  0  0  0
  6 13  1  0  0  0  0
  7 20  1  0  0  0  0
  8 14  1  0  0  0  0
  8 15  1  0  0  0  0
  8 16  1  0  0  0  0
  9 17  1  0  0  0  0
  9 18  1  0  0  0  0
  9 19  1  0  0  0  0
 10 21  1  0  0  0  0
 10 22  1  0  0  0  0
 10 23  1  0  0  0  0
M  END
> <PUBCHEM_COMPOUND_CID>
8488

> <PUBCHEM_CONFORMER_RMSD>
0.4

> <PUBCHEM_CONFORMER_DIVERSEORDER>
1
2

> <PUBCHEM_MMFF94_PARTIAL_CHARGES>
14
1 -0.84
10 0.14
11 0.15
12 0.15
13 0.15
2 0.1
20 0.15
3 -0.15
4 -0.14
5 -0.15
6 -0.15
7 -0.15
8 0.37
9 0.37

> <PUBCHEM_EFFECTIVE_ROTOR_COUNT>
1

> <PUBCHEM_PHARMACOPHORE_FEATURES>
2
1 1 cation
6 2 3 4 5 6 7 rings

> <PUBCHEM_HEAVY_ATOM_COUNT>
10

> <PUBCHEM_ATOM_DEF_STEREO_COUNT>
0

> <PUBCHEM_ATOM_UDEF_STEREO_COUNT>
0

> <PUBCHEM_BOND_DEF_STEREO_COUNT>
0

> <PUBCHEM_BOND_UDEF_STEREO_COUNT>
0

> <PUBCHEM_ISOTOPIC_ATOM_COUNT>
0

> <PUBCHEM_COMPONENT_COUNT>
1

> <PUBCHEM_CACTVS_TAUTO_COUNT>
1

> <PUBCHEM_CONFORMER_ID>
0000212800000001

> <PUBCHEM_MMFF94_ENERGY>
39.5881

> <PUBCHEM_FEATURE_SELFOVERLAP>
10.148

> <PUBCHEM_SHAPE_FINGERPRINT>
10857977 72 18338505443321156688
12524768 44 18340204085712006654
12716758 59 18192148200643701739
12897270 3 18410856538412964022
12932764 1 17677333792829507072
14128692 85 18263091048910466925
16945 1 18340769367811648565
18380122 1 18342450482757539856
193761 8 14663860132264430240
19973954 147 18340487772850303096
20201158 50 18335979882350221843
20871998 184 18272089409254472615
20871998 22 18338810016864366379
21040471 1 17975693892082431365
23552423 10 18187652370823354702
23559900 14 17837492948006373118
241688 4 18407760343786866953
2748010 2 18411418380027407223
29004967 10 18411983602102950074
369184 2 18342172224342114200
5084963 1 18341616983912927122

> <PUBCHEM_SHAPE_MULTIPOLES>
200.81
4.12
1.88
0.67
1.22
0.1
0
-1.25
0.33
-0.45
-0.14
0.11
-0.01
0.43

> <PUBCHEM_SHAPE_SELFOVERLAP>
406.714

> <PUBCHEM_SHAPE_VOLUME>
119.6

> <PUBCHEM_COORDINATE_TYPE>
2
5
10

$$$$
