8390
  -OEChem-11012400303D

 19 19  0     0  0  0  0  0  0999 V2000
    1.8498   -2.0575    0.0000 O   0  5  0  0  0  0  0  0  0  0  0  0
    2.7728   -0.0657   -0.0003 O   0  0  0  0  0  0  0  0  0  0  0  0
    1.7617   -0.8070    0.0001 N   0  3  0  0  0  0  0  0  0  0  0  0
   -3.0713   -1.2953   -0.0002 N   0  0  0  0  0  0  0  0  0  0  0  0
    0.3234    1.1780    0.0001 C   0  0  0  0  0  0  0  0  0  0  0  0
    0.4712   -0.2090    0.0002 C   0  0  0  0  0  0  0  0  0  0  0  0
   -0.6560   -1.0305    0.0001 C   0  0  0  0  0  0  0  0  0  0  0  0
   -0.9517    1.7435    0.0000 C   0  0  0  0  0  0  0  0  0  0  0  0
   -1.9311   -0.4650    0.0000 C   0  0  0  0  0  0  0  0  0  0  0  0
   -2.0791    0.9220   -0.0001 C   0  0  0  0  0  0  0  0  0  0  0  0
    1.5103    2.0865    0.0000 C   0  0  0  0  0  0  0  0  0  0  0  0
   -0.5696   -2.1151    0.0001 H   0  0  0  0  0  0  0  0  0  0  0  0
   -1.0870    2.8219   -0.0001 H   0  0  0  0  0  0  0  0  0  0  0  0
   -3.0673    1.3746   -0.0002 H   0  0  0  0  0  0  0  0  0  0  0  0
    2.1096    1.9794    0.9101 H   0  0  0  0  0  0  0  0  0  0  0  0
    2.1093    1.9794   -0.9105 H   0  0  0  0  0  0  0  0  0  0  0  0
    1.1851    3.1353    0.0000 H   0  0  0  0  0  0  0  0  0  0  0  0
   -3.9958   -0.8852    0.0004 H   0  0  0  0  0  0  0  0  0  0  0  0
   -2.9657   -2.3010    0.0005 H   0  0  0  0  0  0  0  0  0  0  0  0
  1  3  1  0  0  0  0
  2  3  2  0  0  0  0
  3  6  1  0  0  0  0
  4  9  1  0  0  0  0
  4 18  1  0  0  0  0
  4 19  1  0  0  0  0
  5  6  2  0  0  0  0
  5  8  1  0  0  0  0
  5 11  1  0  0  0  0
  6  7  1  0  0  0  0
  7  9  2  0  0  0  0
  7 12  1  0  0  0  0
  8 10  2  0  0  0  0
  8 13  1  0  0  0  0
  9 10  1  0  0  0  0
 10 14  1  0  0  0  0
 11 15  1  0  0  0  0
 11 16  1  0  0  0  0
 11 17  1  0  0  0  0
M  CHG  2   1  -1   3   1
M  END
> <PUBCHEM_COMPOUND_CID>
8390

> <PUBCHEM_CONFORMER_RMSD>
0.4

> <PUBCHEM_CONFORMER_DIVERSEORDER>
1

> <PUBCHEM_MMFF94_PARTIAL_CHARGES>
16
1 -0.52
10 -0.15
11 0.14
12 0.15
13 0.15
14 0.15
18 0.4
19 0.4
2 -0.52
3 0.91
4 -0.9
5 -0.14
6 0.13
7 -0.15
8 -0.15
9 0.1

> <PUBCHEM_EFFECTIVE_ROTOR_COUNT>
1

> <PUBCHEM_PHARMACOPHORE_FEATURES>
6
1 1 acceptor
1 1 anion
1 2 acceptor
1 4 cation
1 4 donor
6 5 6 7 8 9 10 rings

> <PUBCHEM_HEAVY_ATOM_COUNT>
11

> <PUBCHEM_ATOM_DEF_STEREO_COUNT>
0

> <PUBCHEM_ATOM_UDEF_STEREO_COUNT>
0

> <PUBCHEM_BOND_DEF_STEREO_COUNT>
0

> <PUBCHEM_BOND_UDEF_STEREO_COUNT>
0

> <PUBCHEM_ISOTOPIC_ATOM_COUNT>
0

> <PUBCHEM_COMPONENT_COUNT>
1

> <PUBCHEM_CACTVS_TAUTO_COUNT>
1

> <PUBCHEM_CONFORMER_ID>
000020C600000001

> <PUBCHEM_MMFF94_ENERGY>
49.0625

> <PUBCHEM_FEATURE_SELFOVERLAP>
30.527

> <PUBCHEM_SHAPE_FINGERPRINT>
10857977 72 18339910559130884168
12423570 1 10277762636668709833
12524768 44 18054791680505524190
14128692 85 18412269444992919892
161256 15 18338517546549682533
16945 1 18410573998078661477
18185500 45 18264490585378361106
193761 8 18410575071989647813
19973954 147 18411138017552896465
20201158 50 18335979848053735011
20645477 70 18268143335612341759
21040471 1 17762055436952112929
21501502 16 18410296929965464217
23552423 10 18334860536526361277
241688 4 18335981978357592041
2748010 2 18267863878552244126
29004967 10 18410294704992816634
369184 2 18265894648852691683
5084963 1 18201439207174303091

> <PUBCHEM_SHAPE_MULTIPOLES>
204.67
3.54
2.15
0.58
0.55
0.25
0
-1.04
0
-0.61
0
0.03
0.04
0

> <PUBCHEM_SHAPE_SELFOVERLAP>
430.159

> <PUBCHEM_SHAPE_VOLUME>
116.6

> <PUBCHEM_COORDINATE_TYPE>
2
5
10

$$$$
