12549956
  -OEChem-11012400543D

 44 43  0     0  0  0  0  0  0999 V2000
   -0.1606    1.9707   -1.0563 O   0  0  0  0  0  0  0  0  0  0  0  0
    2.3948    0.1350    0.3945 O   0  0  0  0  0  0  0  0  0  0  0  0
   -2.3720   -0.1067    0.4592 O   0  0  0  0  0  0  0  0  0  0  0  0
   -0.0252    2.3531    1.2064 O   0  0  0  0  0  0  0  0  0  0  0  0
    1.4008   -0.9022    2.1912 O   0  0  0  0  0  0  0  0  0  0  0  0
   -1.2263   -1.0252    2.2275 O   0  0  0  0  0  0  0  0  0  0  0  0
    0.0105    0.0493    0.3953 C   0  0  0  0  0  0  0  0  0  0  0  0
    0.0091   -0.6671   -0.9887 C   0  0  0  0  0  0  0  0  0  0  0  0
    0.0968   -2.2002   -0.9194 C   0  0  0  0  0  0  0  0  0  0  0  0
    0.1532   -2.8109   -2.3211 C   0  0  0  0  0  0  0  0  0  0  0  0
   -0.0407    1.5892    0.2464 C   0  0  0  0  0  0  0  0  0  0  0  0
    1.3246   -0.3124    1.1214 C   0  0  0  0  0  0  0  0  0  0  0  0
   -1.2416   -0.4223    1.1617 C   0  0  0  0  0  0  0  0  0  0  0  0
    0.2762   -4.3254   -2.2644 C   0  0  0  0  0  0  0  0  0  0  0  0
   -0.2749    3.3790   -1.2839 C   0  0  0  0  0  0  0  0  0  0  0  0
    3.6821   -0.1262    0.9622 C   0  0  0  0  0  0  0  0  0  0  0  0
   -3.6063   -0.5299    1.0470 C   0  0  0  0  0  0  0  0  0  0  0  0
   -0.3989    3.6296   -2.7717 C   0  0  0  0  0  0  0  0  0  0  0  0
    4.7486    0.4282    0.0420 C   0  0  0  0  0  0  0  0  0  0  0  0
   -4.7502   -0.1056    0.1508 C   0  0  0  0  0  0  0  0  0  0  0  0
   -0.8941   -0.4015   -1.5548 H   0  0  0  0  0  0  0  0  0  0  0  0
    0.8526   -0.3049   -1.5926 H   0  0  0  0  0  0  0  0  0  0  0  0
    0.9916   -2.5024   -0.3635 H   0  0  0  0  0  0  0  0  0  0  0  0
   -0.7701   -2.6039   -0.3840 H   0  0  0  0  0  0  0  0  0  0  0  0
    1.0090   -2.4033   -2.8717 H   0  0  0  0  0  0  0  0  0  0  0  0
   -0.7507   -2.5429   -2.8803 H   0  0  0  0  0  0  0  0  0  0  0  0
    0.3131   -4.7408   -3.2763 H   0  0  0  0  0  0  0  0  0  0  0  0
   -0.5795   -4.7691   -1.7457 H   0  0  0  0  0  0  0  0  0  0  0  0
    1.1894   -4.6256   -1.7404 H   0  0  0  0  0  0  0  0  0  0  0  0
   -1.1635    3.7609   -0.7690 H   0  0  0  0  0  0  0  0  0  0  0  0
    0.6164    3.8849   -0.8963 H   0  0  0  0  0  0  0  0  0  0  0  0
    3.7528    0.3559    1.9436 H   0  0  0  0  0  0  0  0  0  0  0  0
    3.8176   -1.2074    1.0767 H   0  0  0  0  0  0  0  0  0  0  0  0
   -3.6045   -1.6204    1.1534 H   0  0  0  0  0  0  0  0  0  0  0  0
   -3.7182   -0.0675    2.0340 H   0  0  0  0  0  0  0  0  0  0  0  0
   -1.2759    3.1143   -3.1772 H   0  0  0  0  0  0  0  0  0  0  0  0
    0.4743    3.2362   -3.3026 H   0  0  0  0  0  0  0  0  0  0  0  0
   -0.4885    4.6989   -2.9823 H   0  0  0  0  0  0  0  0  0  0  0  0
    4.6148    1.5060   -0.0973 H   0  0  0  0  0  0  0  0  0  0  0  0
    4.6785   -0.0313   -0.9495 H   0  0  0  0  0  0  0  0  0  0  0  0
    5.7480    0.2455    0.4465 H   0  0  0  0  0  0  0  0  0  0  0  0
   -4.6420   -0.5456   -0.8461 H   0  0  0  0  0  0  0  0  0  0  0  0
   -4.7537    0.9816    0.0194 H   0  0  0  0  0  0  0  0  0  0  0  0
   -5.7116   -0.4140    0.5709 H   0  0  0  0  0  0  0  0  0  0  0  0
  1 11  1  0  0  0  0
  1 15  1  0  0  0  0
  2 12  1  0  0  0  0
  2 16  1  0  0  0  0
  3 13  1  0  0  0  0
  3 17  1  0  0  0  0
  4 11  2  0  0  0  0
  5 12  2  0  0  0  0
  6 13  2  0  0  0  0
  7  8  1  0  0  0  0
  7 11  1  0  0  0  0
  7 12  1  0  0  0  0
  7 13  1  0  0  0  0
  8  9  1  0  0  0  0
  8 21  1  0  0  0  0
  8 22  1  0  0  0  0
  9 10  1  0  0  0  0
  9 23  1  0  0  0  0
  9 24  1  0  0  0  0
 10 14  1  0  0  0  0
 10 25  1  0  0  0  0
 10 26  1  0  0  0  0
 14 27  1  0  0  0  0
 14 28  1  0  0  0  0
 14 29  1  0  0  0  0
 15 18  1  0  0  0  0
 15 30  1  0  0  0  0
 15 31  1  0  0  0  0
 16 19  1  0  0  0  0
 16 32  1  0  0  0  0
 16 33  1  0  0  0  0
 17 20  1  0  0  0  0
 17 34  1  0  0  0  0
 17 35  1  0  0  0  0
 18 36  1  0  0  0  0
 18 37  1  0  0  0  0
 18 38  1  0  0  0  0
 19 39  1  0  0  0  0
 19 40  1  0  0  0  0
 19 41  1  0  0  0  0
 20 42  1  0  0  0  0
 20 43  1  0  0  0  0
 20 44  1  0  0  0  0
M  END
> <PUBCHEM_COMPOUND_CID>
12549956

> <PUBCHEM_CONFORMER_RMSD>
1

> <PUBCHEM_CONFORMER_DIVERSEORDER>
1
23
42
9
40
35
52
45
13
46
11
31
20
41
10
32
14
16
43
48
22
30
21
51
24
49
29
7
26
17
37
38
50
18
28
44
27
39
36
12
19
2
6
47
34
5
4
15
3
8
25
33

> <PUBCHEM_MMFF94_PARTIAL_CHARGES>
13
1 -0.43
11 0.66
12 0.66
13 0.66
15 0.28
16 0.28
17 0.28
2 -0.43
3 -0.43
4 -0.57
5 -0.57
6 -0.57
7 0.18

> <PUBCHEM_EFFECTIVE_ROTOR_COUNT>
12

> <PUBCHEM_PHARMACOPHORE_FEATURES>
5
1 14 hydrophobe
1 4 acceptor
1 5 acceptor
1 6 acceptor
4 7 8 9 10 hydrophobe

> <PUBCHEM_HEAVY_ATOM_COUNT>
20

> <PUBCHEM_ATOM_DEF_STEREO_COUNT>
0

> <PUBCHEM_ATOM_UDEF_STEREO_COUNT>
0

> <PUBCHEM_BOND_DEF_STEREO_COUNT>
0

> <PUBCHEM_BOND_UDEF_STEREO_COUNT>
0

> <PUBCHEM_ISOTOPIC_ATOM_COUNT>
0

> <PUBCHEM_COMPONENT_COUNT>
1

> <PUBCHEM_CACTVS_TAUTO_COUNT>
1

> <PUBCHEM_CONFORMER_ID>
00BF7F4400000001

> <PUBCHEM_MMFF94_ENERGY>
25.6181

> <PUBCHEM_FEATURE_SELFOVERLAP>
25.383

> <PUBCHEM_SHAPE_FINGERPRINT>
10756046 70 18121786289853971127
11578080 2 17626129463040957580
13083527 12 18055630608031245047
13132413 78 17967533458847496553
14817 1 17536576427450052711
14863182 85 17988659514113469175
14943834 7 17620471754140023302
15048467 5 16443062815617514474
16945 1 18113337517867770728
20344682 1 18412263925938767707
20511035 2 18048886483031562457
20600515 1 18042425606466872521
21285901 2 18265052423420634111
21330990 113 18130235852072014094
23419403 2 17552081693037722677
23526113 38 17188693048323410039
23598288 3 18046875266143518970
3250762 1 17623863322320440930
3493558 16 16009022869627670126
68419 9 17335347515532452511
81228 2 17829639191560505153
9925002 15 17839171162556154693
9999458 23 17489584593205865379

> <PUBCHEM_SHAPE_MULTIPOLES>
376.37
5.29
4.3
2.53
0.22
0.69
1.11
-0.01
-2.71
-0.09
5.77
-0.11
0.21
0.65

> <PUBCHEM_SHAPE_SELFOVERLAP>
725.061

> <PUBCHEM_SHAPE_VOLUME>
228.9

> <PUBCHEM_COORDINATE_TYPE>
2
5
10

$$$$
