13158141
  -OEChem-11012400393D

 39 39  0     0  0  0  0  0  0999 V2000
    0.7159    1.1366   -1.9869 S   0  0  0  0  0  0  0  0  0  0  0  0
    2.5422    0.3786   -0.0815 N   0  0  0  0  0  0  0  0  0  0  0  0
    0.4926   -0.8191   -0.0721 N   0  0  0  0  0  0  0  0  0  0  0  0
   -1.4136   -2.2185    0.0385 N   0  0  0  0  0  0  0  0  0  0  0  0
    3.0001   -0.4366    1.0455 C   0  0  0  0  0  0  0  0  0  0  0  0
    3.4931    1.4072   -0.5079 C   0  0  0  0  0  0  0  0  0  0  0  0
    1.2636    0.2134   -0.6826 C   0  0  0  0  0  0  0  0  0  0  0  0
    3.6832   -1.7031    0.5729 C   0  0  0  0  0  0  0  0  0  0  0  0
    3.2733    2.7084    0.2357 C   0  0  0  0  0  0  0  0  0  0  0  0
   -0.8972   -1.0394    0.0388 C   0  0  0  0  0  0  0  0  0  0  0  0
   -1.6559    0.2243    0.1489 C   0  0  0  0  0  0  0  0  0  0  0  0
   -2.9455    0.2813   -0.3476 C   0  0  0  0  0  0  0  0  0  0  0  0
   -1.0576    1.3192    0.7455 C   0  0  0  0  0  0  0  0  0  0  0  0
   -0.5610   -3.3914   -0.0760 C   0  0  0  0  0  0  0  0  0  0  0  0
   -3.6614    1.4741   -0.2441 C   0  0  0  0  0  0  0  0  0  0  0  0
   -1.7734    2.5119    0.8492 C   0  0  0  0  0  0  0  0  0  0  0  0
   -3.0752    2.5893    0.3544 C   0  0  0  0  0  0  0  0  0  0  0  0
   -1.4231   -4.6363   -0.0306 C   0  0  0  0  0  0  0  0  0  0  0  0
    3.6907    0.1528    1.6600 H   0  0  0  0  0  0  0  0  0  0  0  0
    2.1580   -0.6853    1.6994 H   0  0  0  0  0  0  0  0  0  0  0  0
    4.5128    1.0427   -0.3365 H   0  0  0  0  0  0  0  0  0  0  0  0
    3.4134    1.5804   -1.5848 H   0  0  0  0  0  0  0  0  0  0  0  0
    3.0302   -2.3180   -0.0533 H   0  0  0  0  0  0  0  0  0  0  0  0
    4.5745   -1.4689   -0.0188 H   0  0  0  0  0  0  0  0  0  0  0  0
    3.9977   -2.3064    1.4302 H   0  0  0  0  0  0  0  0  0  0  0  0
    2.2666    3.1051    0.0715 H   0  0  0  0  0  0  0  0  0  0  0  0
    3.4014    2.5748    1.3148 H   0  0  0  0  0  0  0  0  0  0  0  0
    3.9929    3.4623   -0.0984 H   0  0  0  0  0  0  0  0  0  0  0  0
    1.0511   -1.6174    0.2043 H   0  0  0  0  0  0  0  0  0  0  0  0
   -3.4139   -0.5771   -0.8204 H   0  0  0  0  0  0  0  0  0  0  0  0
   -0.0802    1.2857    1.2167 H   0  0  0  0  0  0  0  0  0  0  0  0
   -0.0036   -3.3765   -1.0196 H   0  0  0  0  0  0  0  0  0  0  0  0
    0.1507   -3.4394    0.7563 H   0  0  0  0  0  0  0  0  0  0  0  0
   -4.6750    1.5346   -0.6296 H   0  0  0  0  0  0  0  0  0  0  0  0
   -1.3240    3.3754    1.3312 H   0  0  0  0  0  0  0  0  0  0  0  0
   -3.6339    3.5168    0.4387 H   0  0  0  0  0  0  0  0  0  0  0  0
   -0.8048   -5.5353   -0.1128 H   0  0  0  0  0  0  0  0  0  0  0  0
   -1.9848   -4.6897    0.9079 H   0  0  0  0  0  0  0  0  0  0  0  0
   -2.1470   -4.6406   -0.8523 H   0  0  0  0  0  0  0  0  0  0  0  0
  1  7  2  0  0  0  0
  2  5  1  0  0  0  0
  2  6  1  0  0  0  0
  2  7  1  0  0  0  0
  3  7  1  0  0  0  0
  3 10  1  0  0  0  0
  3 29  1  0  0  0  0
  4 10  2  0  0  0  0
  4 14  1  0  0  0  0
  5  8  1  0  0  0  0
  5 19  1  0  0  0  0
  5 20  1  0  0  0  0
  6  9  1  0  0  0  0
  6 21  1  0  0  0  0
  6 22  1  0  0  0  0
  8 23  1  0  0  0  0
  8 24  1  0  0  0  0
  8 25  1  0  0  0  0
  9 26  1  0  0  0  0
  9 27  1  0  0  0  0
  9 28  1  0  0  0  0
 10 11  1  0  0  0  0
 11 12  2  0  0  0  0
 11 13  1  0  0  0  0
 12 15  1  0  0  0  0
 12 30  1  0  0  0  0
 13 16  2  0  0  0  0
 13 31  1  0  0  0  0
 14 18  1  0  0  0  0
 14 32  1  0  0  0  0
 14 33  1  0  0  0  0
 15 17  2  0  0  0  0
 15 34  1  0  0  0  0
 16 17  1  0  0  0  0
 16 35  1  0  0  0  0
 17 36  1  0  0  0  0
 18 37  1  0  0  0  0
 18 38  1  0  0  0  0
 18 39  1  0  0  0  0
M  END
> <PUBCHEM_COMPOUND_CID>
13158141

> <PUBCHEM_CONFORMER_RMSD>
0.8

> <PUBCHEM_CONFORMER_DIVERSEORDER>
1
25
9
46
16
15
6
55
18
14
39
50
52
35
21
10
24
43
12
34
49
8
45
3
37
22
23
40
51
54
48
47
20
7
38
41
28
17
5
13
26
36
11
42
31
53
44
2
27
4
32
29
56
33
30
19

> <PUBCHEM_MMFF94_PARTIAL_CHARGES>
21
1 -0.38
10 0.42
11 0.09
12 -0.15
13 -0.15
14 0.25
15 -0.15
16 -0.15
17 -0.15
2 -0.66
29 0.37
3 -0.49
30 0.15
31 0.15
34 0.15
35 0.15
36 0.15
4 -0.7
5 0.3
6 0.3
7 0.5

> <PUBCHEM_EFFECTIVE_ROTOR_COUNT>
7

> <PUBCHEM_PHARMACOPHORE_FEATURES>
4
1 1 acceptor
1 3 donor
3 3 4 10 cation
6 11 12 13 15 16 17 rings

> <PUBCHEM_HEAVY_ATOM_COUNT>
18

> <PUBCHEM_ATOM_DEF_STEREO_COUNT>
0

> <PUBCHEM_ATOM_UDEF_STEREO_COUNT>
0

> <PUBCHEM_BOND_DEF_STEREO_COUNT>
0

> <PUBCHEM_BOND_UDEF_STEREO_COUNT>
0

> <PUBCHEM_ISOTOPIC_ATOM_COUNT>
0

> <PUBCHEM_COMPONENT_COUNT>
1

> <PUBCHEM_CACTVS_TAUTO_COUNT>
3

> <PUBCHEM_CONFORMER_ID>
00C8C6FD00000001

> <PUBCHEM_MMFF94_ENERGY>
64.7699

> <PUBCHEM_FEATURE_SELFOVERLAP>
20.297

> <PUBCHEM_SHAPE_FINGERPRINT>
11370993 70 18339633434882334104
12173636 292 18411133645439927605
12251169 10 18336540539239376584
12500047 106 18409729586413395572
12507560 14 18120927309712247866
12553582 1 17762335116717578698
12788726 201 18267861872840011927
13140716 1 18268719324553619873
14081887 123 18124586746233810128
14178342 30 18191292987399287616
16945 1 18341619217259030112
192875 21 18199735960542172848
20510252 161 18342465884468013497
20600515 1 17051080853029589139
20645476 183 18409733967016137468
21330990 113 17545044801814964430
21524375 3 18261676956803440763
23184049 59 18042123163528348660
23419403 2 16968546060166898109
23557571 272 17985001532984407956
23558518 356 18189334735642009850
23559900 14 18130793313516258332
305870 269 18051695438803292819
3091708 16 8981016030636058923
3187 122 17403427050721559257
352729 6 18411704270526267411
474 4 18195811756513829857
6443956 14 17689157807730780142
6992083 37 18186519895273933950
7364860 26 17693375538761810259
74978 22 18410577279934679628
81228 2 17981916303578609195
9709674 26 18343588473066165614

> <PUBCHEM_SHAPE_MULTIPOLES>
359.34
6.11
4.58
1.09
2.73
5.89
0.41
-3.6
-0.84
-1.95
-0.36
0.37
-0.46
-0.79

> <PUBCHEM_SHAPE_SELFOVERLAP>
707.159

> <PUBCHEM_SHAPE_VOLUME>
217

> <PUBCHEM_COORDINATE_TYPE>
2
5
10

$$$$
