138474
  -OEChem-11012401253D

 11 11  0     0  0  0  0  0  0999 V2000
   -1.5349   -0.5918    0.0001 O   0  0  0  0  0  0  0  0  0  0  0  0
    1.7857   -0.4089   -0.0001 N   0  0  0  0  0  0  0  0  0  0  0  0
    0.6889   -1.1794   -0.0001 N   0  0  0  0  0  0  0  0  0  0  0  0
    0.2553    1.0432    0.0003 N   0  0  0  0  0  0  0  0  0  0  0  0
    1.5765    0.9149   -0.0002 N   0  0  0  0  0  0  0  0  0  0  0  0
   -0.2452   -0.2249    0.0003 C   0  0  0  0  0  0  0  0  0  0  0  0
   -2.5264    0.4470   -0.0002 C   0  0  0  0  0  0  0  0  0  0  0  0
    2.7198   -0.8045   -0.0004 H   0  0  0  0  0  0  0  0  0  0  0  0
   -2.4287    1.0630   -0.8996 H   0  0  0  0  0  0  0  0  0  0  0  0
   -2.4292    1.0631    0.8992 H   0  0  0  0  0  0  0  0  0  0  0  0
   -3.5126   -0.0249   -0.0004 H   0  0  0  0  0  0  0  0  0  0  0  0
  1  6  1  0  0  0  0
  1  7  1  0  0  0  0
  2  3  1  0  0  0  0
  2  5  1  0  0  0  0
  2  8  1  0  0  0  0
  3  6  2  0  0  0  0
  4  5  2  0  0  0  0
  4  6  1  0  0  0  0
  7  9  1  0  0  0  0
  7 10  1  0  0  0  0
  7 11  1  0  0  0  0
M  END
> <PUBCHEM_COMPOUND_CID>
138474

> <PUBCHEM_CONFORMER_RMSD>
0.4

> <PUBCHEM_CONFORMER_DIVERSEORDER>
1

> <PUBCHEM_MMFF94_PARTIAL_CHARGES>
8
1 -0.34
2 0.57
3 -0.71
4 -0.23
5 -0.42
6 0.58
7 0.28
8 0.27

> <PUBCHEM_EFFECTIVE_ROTOR_COUNT>
1

> <PUBCHEM_PHARMACOPHORE_FEATURES>
2
3 3 4 6 cation
5 2 3 4 5 6 rings

> <PUBCHEM_HEAVY_ATOM_COUNT>
7

> <PUBCHEM_ATOM_DEF_STEREO_COUNT>
0

> <PUBCHEM_ATOM_UDEF_STEREO_COUNT>
0

> <PUBCHEM_BOND_DEF_STEREO_COUNT>
0

> <PUBCHEM_BOND_UDEF_STEREO_COUNT>
0

> <PUBCHEM_ISOTOPIC_ATOM_COUNT>
0

> <PUBCHEM_COMPONENT_COUNT>
1

> <PUBCHEM_CACTVS_TAUTO_COUNT>
2

> <PUBCHEM_CONFORMER_ID>
00021CEA00000001

> <PUBCHEM_MMFF94_ENERGY>
7.9042

> <PUBCHEM_FEATURE_SELFOVERLAP>
10.148

> <PUBCHEM_SHAPE_FINGERPRINT>
20096714 4 18339924925738499169
21040471 1 18266458887385966020
29004967 10 18260835873215453331
5460574 1 9223231849470380995

> <PUBCHEM_SHAPE_MULTIPOLES>
118.26
2.77
1.09
0.55
1.4
0.03
0
0.29
0
-0.25
0
0.04
0
0

> <PUBCHEM_SHAPE_SELFOVERLAP>
235.124

> <PUBCHEM_SHAPE_VOLUME>
71.8

> <PUBCHEM_COORDINATE_TYPE>
2
5
10

$$$$
