143178
  -OEChem-11012400523D

 33 33  0     1  0  0  0  0  0999 V2000
   -1.1217    1.1282    0.0002 C   0  0  2  0  0  0  0  0  0  0  0  0
   -1.8461   -0.1136    0.5707 C   0  0  0  0  0  0  0  0  0  0  0  0
   -3.1157   -0.5632   -0.1817 C   0  0  0  0  0  0  0  0  0  0  0  0
    0.1883    1.4128    0.7730 C   0  0  0  0  0  0  0  0  0  0  0  0
   -2.0098    2.3763    0.0535 C   0  0  0  0  0  0  0  0  0  0  0  0
   -2.8439   -0.8664   -1.6555 C   0  0  0  0  0  0  0  0  0  0  0  0
   -3.7051   -1.8027    0.4990 C   0  0  0  0  0  0  0  0  0  0  0  0
    1.3488    0.5379    0.3640 C   0  0  0  0  0  0  0  0  0  0  0  0
    1.5533   -0.6677    1.0162 C   0  0  0  0  0  0  0  0  0  0  0  0
    2.1881    0.9560   -0.6565 C   0  0  0  0  0  0  0  0  0  0  0  0
    2.6253   -1.4762    0.6383 C   0  0  0  0  0  0  0  0  0  0  0  0
    3.2600    0.1474   -1.0344 C   0  0  0  0  0  0  0  0  0  0  0  0
    3.4785   -1.0687   -0.3870 C   0  0  0  0  0  0  0  0  0  0  0  0
   -0.8658    0.9485   -1.0508 H   0  0  0  0  0  0  0  0  0  0  0  0
   -2.1064    0.0779    1.6202 H   0  0  0  0  0  0  0  0  0  0  0  0
   -1.1519   -0.9613    0.5774 H   0  0  0  0  0  0  0  0  0  0  0  0
   -3.8697    0.2304   -0.1249 H   0  0  0  0  0  0  0  0  0  0  0  0
    0.0198    1.3245    1.8548 H   0  0  0  0  0  0  0  0  0  0  0  0
    0.4919    2.4578    0.6208 H   0  0  0  0  0  0  0  0  0  0  0  0
   -2.3243    2.5945    1.0796 H   0  0  0  0  0  0  0  0  0  0  0  0
   -1.4764    3.2523   -0.3314 H   0  0  0  0  0  0  0  0  0  0  0  0
   -2.9070    2.2534   -0.5603 H   0  0  0  0  0  0  0  0  0  0  0  0
   -2.5667    0.0383   -2.2045 H   0  0  0  0  0  0  0  0  0  0  0  0
   -2.0364   -1.5978   -1.7686 H   0  0  0  0  0  0  0  0  0  0  0  0
   -3.7382   -1.2739   -2.1394 H   0  0  0  0  0  0  0  0  0  0  0  0
   -3.9366   -1.5964    1.5494 H   0  0  0  0  0  0  0  0  0  0  0  0
   -3.0074   -2.6465    0.4640 H   0  0  0  0  0  0  0  0  0  0  0  0
   -4.6342   -2.1112    0.0082 H   0  0  0  0  0  0  0  0  0  0  0  0
    0.9024   -0.9914    1.8231 H   0  0  0  0  0  0  0  0  0  0  0  0
    2.0247    1.8998   -1.1686 H   0  0  0  0  0  0  0  0  0  0  0  0
    2.7968   -2.4220    1.1439 H   0  0  0  0  0  0  0  0  0  0  0  0
    3.9241    0.4643   -1.8332 H   0  0  0  0  0  0  0  0  0  0  0  0
    4.3134   -1.6981   -0.6810 H   0  0  0  0  0  0  0  0  0  0  0  0
  1  2  1  0  0  0  0
  1  4  1  0  0  0  0
  1  5  1  0  0  0  0
  1 14  1  0  0  0  0
  2  3  1  0  0  0  0
  2 15  1  0  0  0  0
  2 16  1  0  0  0  0
  3  6  1  0  0  0  0
  3  7  1  0  0  0  0
  3 17  1  0  0  0  0
  4  8  1  0  0  0  0
  4 18  1  0  0  0  0
  4 19  1  0  0  0  0
  5 20  1  0  0  0  0
  5 21  1  0  0  0  0
  5 22  1  0  0  0  0
  6 23  1  0  0  0  0
  6 24  1  0  0  0  0
  6 25  1  0  0  0  0
  7 26  1  0  0  0  0
  7 27  1  0  0  0  0
  7 28  1  0  0  0  0
  8  9  2  0  0  0  0
  8 10  1  0  0  0  0
  9 11  1  0  0  0  0
  9 29  1  0  0  0  0
 10 12  2  0  0  0  0
 10 30  1  0  0  0  0
 11 13  2  0  0  0  0
 11 31  1  0  0  0  0
 12 13  1  0  0  0  0
 12 32  1  0  0  0  0
 13 33  1  0  0  0  0
M  END
> <PUBCHEM_COMPOUND_CID>
143178

> <PUBCHEM_CONFORMER_RMSD>
0.6

> <PUBCHEM_CONFORMER_DIVERSEORDER>
1
7
6
4
2
5
3

> <PUBCHEM_MMFF94_PARTIAL_CHARGES>
12
10 -0.15
11 -0.15
12 -0.15
13 -0.15
29 0.15
30 0.15
31 0.15
32 0.15
33 0.15
4 0.14
8 -0.14
9 -0.15

> <PUBCHEM_EFFECTIVE_ROTOR_COUNT>
4

> <PUBCHEM_PHARMACOPHORE_FEATURES>
4
1 5 hydrophobe
3 3 6 7 hydrophobe
4 1 2 3 4 hydrophobe
6 8 9 10 11 12 13 rings

> <PUBCHEM_HEAVY_ATOM_COUNT>
13

> <PUBCHEM_ATOM_DEF_STEREO_COUNT>
0

> <PUBCHEM_ATOM_UDEF_STEREO_COUNT>
1

> <PUBCHEM_BOND_DEF_STEREO_COUNT>
0

> <PUBCHEM_BOND_UDEF_STEREO_COUNT>
0

> <PUBCHEM_ISOTOPIC_ATOM_COUNT>
0

> <PUBCHEM_COMPONENT_COUNT>
1

> <PUBCHEM_CACTVS_TAUTO_COUNT>
1

> <PUBCHEM_CONFORMER_ID>
00022F4A00000001

> <PUBCHEM_MMFF94_ENERGY>
26.8982

> <PUBCHEM_FEATURE_SELFOVERLAP>
20.51

> <PUBCHEM_SHAPE_FINGERPRINT>
10618630 7 18411699919718816475
11769659 78 18338233761228505354
12202030 40 16988567840533284796
12346177 29 16845566514024588901
12553582 1 18271523195152409831
12696612 119 12103555407593939642
12932764 1 18341337703765160416
13296908 3 17774714290674826712
13705890 14 17822008739761406314
14115302 16 18195808457810336192
15239191 94 17989490740092012447
15276787 5 14476695108380783835
16752209 62 18270103618614629333
18186145 218 16950281793118065873
18522851 268 17313377963466353559
18981168 100 11675723196748563301
19107657 9 11242245204332551975
19422 9 18339655489502404241
19766037 51 18410294756812076883
20279233 1 16987988389257528580
20281407 28 18060699502631648401
20291156 8 18270682099011855783
20361792 2 18200868578035699269
20645477 70 18128524058955462687
20671657 53 18114179726837370804
21634736 98 18335425715842206814
21713013 43 17822009852190097863
21731516 1 18201712994270284639
22169311 14 14261361266487095303
230 275 11025782181071069592
23402539 116 18261959536267293446
23402655 69 17896043156779682548
23500284 214 11241969252804785053
23557571 272 18201429238819317272
23559900 14 17984413050246964490
23598291 2 17970632874540706144
305870 269 9727642691190172292
3082319 5 18187649067914395844
57096353 35 18261123984275417132
58051976 100 18337677407996925205
603831 33 18409448102730426556
6333272 397 9511469926741125557
8030462 33 18260546710236908616
81228 2 18339062831867507865
94968 8 18266179607248664347
9939556 21 18116720608052095784

> <PUBCHEM_SHAPE_MULTIPOLES>
267.53
6.69
2.02
1.17
0.65
0.56
0.3
-3.4
1.34
1.13
-0.24
0.12
-0.22
-0.36

> <PUBCHEM_SHAPE_SELFOVERLAP>
528.833

> <PUBCHEM_SHAPE_VOLUME>
157.6

> <PUBCHEM_COORDINATE_TYPE>
2
5
10

$$$$
