67767
  -OEChem-11012400593D

 14 14  0     0  0  0  0  0  0999 V2000
    1.3479   -2.0154   -0.0001 F   0  0  0  0  0  0  0  0  0  0  0  0
   -2.9773    1.3332    0.0005 F   0  0  0  0  0  0  0  0  0  0  0  0
    1.9309    1.9882   -0.0005 O   0  5  0  0  0  0  0  0  0  0  0  0
    2.7728   -0.0392    0.0005 O   0  0  0  0  0  0  0  0  0  0  0  0
    1.7905    0.7414   -0.0001 N   0  3  0  0  0  0  0  0  0  0  0  0
    0.4789    0.1967    0.0002 C   0  0  0  0  0  0  0  0  0  0  0  0
    0.2943   -1.1858    0.0002 C   0  0  0  0  0  0  0  0  0  0  0  0
   -0.6262    1.0479    0.0000 C   0  0  0  0  0  0  0  0  0  0  0  0
   -1.9159    0.5164   -0.0003 C   0  0  0  0  0  0  0  0  0  0  0  0
   -0.9953   -1.7173    0.0000 C   0  0  0  0  0  0  0  0  0  0  0  0
   -2.1005   -0.8662   -0.0004 C   0  0  0  0  0  0  0  0  0  0  0  0
   -0.5216    2.1298    0.0002 H   0  0  0  0  0  0  0  0  0  0  0  0
   -1.1387   -2.7937   -0.0001 H   0  0  0  0  0  0  0  0  0  0  0  0
   -3.1046   -1.2798   -0.0005 H   0  0  0  0  0  0  0  0  0  0  0  0
  1  7  1  0  0  0  0
  2  9  1  0  0  0  0
  3  5  1  0  0  0  0
  4  5  2  0  0  0  0
  5  6  1  0  0  0  0
  6  7  2  0  0  0  0
  6  8  1  0  0  0  0
  7 10  1  0  0  0  0
  8  9  2  0  0  0  0
  8 12  1  0  0  0  0
  9 11  1  0  0  0  0
 10 11  2  0  0  0  0
 10 13  1  0  0  0  0
 11 14  1  0  0  0  0
M  CHG  2   3  -1   5   1
M  END
> <PUBCHEM_COMPOUND_CID>
67767

> <PUBCHEM_CONFORMER_RMSD>
0.4

> <PUBCHEM_CONFORMER_DIVERSEORDER>
1

> <PUBCHEM_MMFF94_PARTIAL_CHARGES>
14
1 -0.19
10 -0.15
11 -0.15
12 0.15
13 0.15
14 0.15
2 -0.19
3 -0.52
4 -0.52
5 0.91
6 0.13
7 0.19
8 -0.15
9 0.19

> <PUBCHEM_EFFECTIVE_ROTOR_COUNT>
1

> <PUBCHEM_PHARMACOPHORE_FEATURES>
4
1 3 acceptor
1 3 anion
1 4 acceptor
6 6 7 8 9 10 11 rings

> <PUBCHEM_HEAVY_ATOM_COUNT>
11

> <PUBCHEM_ATOM_DEF_STEREO_COUNT>
0

> <PUBCHEM_ATOM_UDEF_STEREO_COUNT>
0

> <PUBCHEM_BOND_DEF_STEREO_COUNT>
0

> <PUBCHEM_BOND_UDEF_STEREO_COUNT>
0

> <PUBCHEM_ISOTOPIC_ATOM_COUNT>
0

> <PUBCHEM_COMPONENT_COUNT>
1

> <PUBCHEM_CACTVS_TAUTO_COUNT>
1

> <PUBCHEM_CONFORMER_ID>
000108B700000001

> <PUBCHEM_MMFF94_ENERGY>
26.4493

> <PUBCHEM_FEATURE_SELFOVERLAP>
20.379

> <PUBCHEM_SHAPE_FINGERPRINT>
12423570 1 14165886939668151959
13380535 76 18410288095233515111
14325111 11 18410574028222722720
16945 1 18410575076147081799
193761 8 18410855473229783239
19973954 147 18266180715239333380
21040471 1 18410574002431540609
23552423 10 18334857272435683782
23559900 14 18343312457778696540
241688 4 16827563909004983627
2748010 2 18266459986834413836
369184 2 18199187475974592873
5084963 1 18130230487589348170

> <PUBCHEM_SHAPE_MULTIPOLES>
195.11
3.44
1.99
0.57
0.31
0.28
0
-1.1
0
0.09
0
-0.05
0.02
0

> <PUBCHEM_SHAPE_SELFOVERLAP>
414.88

> <PUBCHEM_SHAPE_VOLUME>
109.1

> <PUBCHEM_COORDINATE_TYPE>
2
5
10

$$$$
