137174
  -OEChem-11012400433D

 37 38  0     0  0  0  0  0  0999 V2000
    0.0063   -0.4397   -0.5536 C   0  0  0  0  0  0  0  0  0  0  0  0
    0.8620   -1.5974    0.0225 C   0  0  0  0  0  0  0  0  0  0  0  0
    2.3170   -1.5578   -0.4650 C   0  0  0  0  0  0  0  0  0  0  0  0
    0.5260    0.9450   -0.1881 C   0  0  0  0  0  0  0  0  0  0  0  0
   -1.4788   -0.5750   -0.2309 C   0  0  0  0  0  0  0  0  0  0  0  0
    3.1320   -2.7052    0.1327 C   0  0  0  0  0  0  0  0  0  0  0  0
    0.3066    1.9899   -1.0613 C   0  0  0  0  0  0  0  0  0  0  0  0
   -2.3995   -0.0594   -1.1174 C   0  0  0  0  0  0  0  0  0  0  0  0
    1.1989    1.1100    1.0045 C   0  0  0  0  0  0  0  0  0  0  0  0
   -1.8492   -1.2084    0.9356 C   0  0  0  0  0  0  0  0  0  0  0  0
    4.5816   -2.6547   -0.3230 C   0  0  0  0  0  0  0  0  0  0  0  0
    0.7822    3.2577   -0.7267 C   0  0  0  0  0  0  0  0  0  0  0  0
   -3.7573   -0.1832   -0.8226 C   0  0  0  0  0  0  0  0  0  0  0  0
    1.6743    2.3780    1.3390 C   0  0  0  0  0  0  0  0  0  0  0  0
   -3.2070   -1.3321    1.2301 C   0  0  0  0  0  0  0  0  0  0  0  0
    1.4659    3.4518    0.4734 C   0  0  0  0  0  0  0  0  0  0  0  0
   -4.1610   -0.8195    0.3509 C   0  0  0  0  0  0  0  0  0  0  0  0
    0.1025   -0.5434   -1.6461 H   0  0  0  0  0  0  0  0  0  0  0  0
    0.4227   -2.5527   -0.2980 H   0  0  0  0  0  0  0  0  0  0  0  0
    0.8652   -1.6246    1.1171 H   0  0  0  0  0  0  0  0  0  0  0  0
    2.3336   -1.6318   -1.5594 H   0  0  0  0  0  0  0  0  0  0  0  0
    2.8050   -0.6138   -0.2057 H   0  0  0  0  0  0  0  0  0  0  0  0
    3.1002   -2.6545    1.2272 H   0  0  0  0  0  0  0  0  0  0  0  0
    2.6941   -3.6661   -0.1614 H   0  0  0  0  0  0  0  0  0  0  0  0
   -0.2101    1.8526   -2.0055 H   0  0  0  0  0  0  0  0  0  0  0  0
   -2.1023    0.4248   -2.0417 H   0  0  0  0  0  0  0  0  0  0  0  0
    1.3586    0.3126    1.7201 H   0  0  0  0  0  0  0  0  0  0  0  0
   -1.1439   -1.6013    1.6572 H   0  0  0  0  0  0  0  0  0  0  0  0
    5.0589   -1.7200   -0.0118 H   0  0  0  0  0  0  0  0  0  0  0  0
    4.6530   -2.7312   -1.4128 H   0  0  0  0  0  0  0  0  0  0  0  0
    5.1453   -3.4853    0.1135 H   0  0  0  0  0  0  0  0  0  0  0  0
    0.6227    4.0934   -1.4020 H   0  0  0  0  0  0  0  0  0  0  0  0
   -4.5003    0.2132   -1.5086 H   0  0  0  0  0  0  0  0  0  0  0  0
    2.2013    2.5312    2.2763 H   0  0  0  0  0  0  0  0  0  0  0  0
   -3.5221   -1.8231    2.1462 H   0  0  0  0  0  0  0  0  0  0  0  0
    1.8354    4.4392    0.7343 H   0  0  0  0  0  0  0  0  0  0  0  0
   -5.2182   -0.9154    0.5806 H   0  0  0  0  0  0  0  0  0  0  0  0
  1  2  1  0  0  0  0
  1  4  1  0  0  0  0
  1  5  1  0  0  0  0
  1 18  1  0  0  0  0
  2  3  1  0  0  0  0
  2 19  1  0  0  0  0
  2 20  1  0  0  0  0
  3  6  1  0  0  0  0
  3 21  1  0  0  0  0
  3 22  1  0  0  0  0
  4  7  2  0  0  0  0
  4  9  1  0  0  0  0
  5  8  2  0  0  0  0
  5 10  1  0  0  0  0
  6 11  1  0  0  0  0
  6 23  1  0  0  0  0
  6 24  1  0  0  0  0
  7 12  1  0  0  0  0
  7 25  1  0  0  0  0
  8 13  1  0  0  0  0
  8 26  1  0  0  0  0
  9 14  2  0  0  0  0
  9 27  1  0  0  0  0
 10 15  2  0  0  0  0
 10 28  1  0  0  0  0
 11 29  1  0  0  0  0
 11 30  1  0  0  0  0
 11 31  1  0  0  0  0
 12 16  2  0  0  0  0
 12 32  1  0  0  0  0
 13 17  2  0  0  0  0
 13 33  1  0  0  0  0
 14 16  1  0  0  0  0
 14 34  1  0  0  0  0
 15 17  1  0  0  0  0
 15 35  1  0  0  0  0
 16 36  1  0  0  0  0
 17 37  1  0  0  0  0
M  END
> <PUBCHEM_COMPOUND_CID>
137174

> <PUBCHEM_CONFORMER_RMSD>
0.6

> <PUBCHEM_CONFORMER_DIVERSEORDER>
1
14
13
17
8
15
3
11
7
10
16
6
12
2
9
4
5

> <PUBCHEM_MMFF94_PARTIAL_CHARGES>
23
1 0.29
10 -0.15
12 -0.15
13 -0.15
14 -0.15
15 -0.15
16 -0.15
17 -0.15
25 0.15
26 0.15
27 0.15
28 0.15
32 0.15
33 0.15
34 0.15
35 0.15
36 0.15
37 0.15
4 -0.14
5 -0.14
7 -0.15
8 -0.15
9 -0.15

> <PUBCHEM_EFFECTIVE_ROTOR_COUNT>
5

> <PUBCHEM_PHARMACOPHORE_FEATURES>
4
1 11 hydrophobe
4 1 2 3 6 hydrophobe
6 4 7 9 12 14 16 rings
6 5 8 10 13 15 17 rings

> <PUBCHEM_HEAVY_ATOM_COUNT>
17

> <PUBCHEM_ATOM_DEF_STEREO_COUNT>
0

> <PUBCHEM_ATOM_UDEF_STEREO_COUNT>
0

> <PUBCHEM_BOND_DEF_STEREO_COUNT>
0

> <PUBCHEM_BOND_UDEF_STEREO_COUNT>
0

> <PUBCHEM_ISOTOPIC_ATOM_COUNT>
0

> <PUBCHEM_COMPONENT_COUNT>
1

> <PUBCHEM_CACTVS_TAUTO_COUNT>
1

> <PUBCHEM_CONFORMER_ID>
000217D600000001

> <PUBCHEM_MMFF94_ENERGY>
44.7654

> <PUBCHEM_FEATURE_SELFOVERLAP>
20.298

> <PUBCHEM_SHAPE_FINGERPRINT>
1100329 8 18050290262785447560
12251169 10 17099446115204957329
12788726 201 17831291701438792074
12839892 36 17617931878127844715
13134695 92 18413105052402516845
13140716 1 17908704278107809360
136203 1 17834680387870006418
13681431 1 18270415931029342006
14181834 199 18131066077713808127
15309172 13 17761491791551729725
16945 1 18269832167490311200
17980427 23 17489030340761905849
1813 80 17987532437048003646
18785283 64 18118409676944928096
20097449 115 18339645538174072562
20510252 161 18049721815674632138
20600515 1 18191887650848443078
20671657 1 18340494490110556439
20671657 53 18341056228751500291
21029758 11 18337951177765441815
21029758 27 18340491066990167958
21041028 32 18341903935178915465
21061003 4 18338239271519007007
21524375 3 17553208005182401717
21731228 192 17687739854147695505
23175994 123 18337397032700783639
23419403 2 18197474282482769212
23526113 38 17895486902569408610
23557571 272 17982172210899934814
23558518 356 16969414120096837719
23559900 14 17822577213391306983
2748010 2 18192967396941536836
283562 15 18120379744343016362
305870 269 18053663856532506073
3091708 16 9069360703332295866
3729539 64 17975166372116271004
458136 41 17904503026918930817
4663303 62 18337949099185711419
6049 1 18113340842868750679
6442390 28 17258237674271100619
68521 5 18122065304073137150
7364860 26 18339644558900254695
81228 2 17835818390889200510
84936 31 18201433743886413654

> <PUBCHEM_SHAPE_MULTIPOLES>
349.85
6.34
4.03
1.2
1.84
2.82
-0.14
-6.46
-0.06
-5.27
-0.21
0.37
0.35
1.09

> <PUBCHEM_SHAPE_SELFOVERLAP>
732.846

> <PUBCHEM_SHAPE_VOLUME>
189.9

> <PUBCHEM_COORDINATE_TYPE>
2
5
10

$$$$
