12060
  -OEChem-11012401143D

 15 15  0     0  0  0  0  0  0999 V2000
   -3.3557    1.6326   -0.0007 I   0  0  0  0  0  0  0  0  0  0  0  0
    2.9443   -0.5080   -0.0007 O   0  0  0  0  0  0  0  0  0  0  0  0
    2.3134    1.6756    0.0000 O   0  0  0  0  0  0  0  0  0  0  0  0
    0.6495   -0.0435    0.0009 C   0  0  0  0  0  0  0  0  0  0  0  0
   -0.4366    0.8318    0.0009 C   0  0  0  0  0  0  0  0  0  0  0  0
    0.4346   -1.4218    0.0003 C   0  0  0  0  0  0  0  0  0  0  0  0
   -1.7377    0.3287    0.0003 C   0  0  0  0  0  0  0  0  0  0  0  0
   -0.8663   -1.9248   -0.0002 C   0  0  0  0  0  0  0  0  0  0  0  0
   -1.9524   -1.0496   -0.0003 C   0  0  0  0  0  0  0  0  0  0  0  0
    2.0068    0.4790   -0.0004 C   0  0  0  0  0  0  0  0  0  0  0  0
   -0.2680    1.9065    0.0009 H   0  0  0  0  0  0  0  0  0  0  0  0
    1.2505   -2.1390   -0.0001 H   0  0  0  0  0  0  0  0  0  0  0  0
   -1.0342   -2.9980   -0.0008 H   0  0  0  0  0  0  0  0  0  0  0  0
   -2.9579   -1.4628   -0.0009 H   0  0  0  0  0  0  0  0  0  0  0  0
    3.8559   -0.1454   -0.0010 H   0  0  0  0  0  0  0  0  0  0  0  0
  1  7  1  0  0  0  0
  2 10  1  0  0  0  0
  2 15  1  0  0  0  0
  3 10  2  0  0  0  0
  4  5  2  0  0  0  0
  4  6  1  0  0  0  0
  4 10  1  0  0  0  0
  5  7  1  0  0  0  0
  5 11  1  0  0  0  0
  6  8  2  0  0  0  0
  6 12  1  0  0  0  0
  7  9  2  0  0  0  0
  8  9  1  0  0  0  0
  8 13  1  0  0  0  0
  9 14  1  0  0  0  0
M  END
> <PUBCHEM_COMPOUND_CID>
12060

> <PUBCHEM_CONFORMER_RMSD>
0.4

> <PUBCHEM_CONFORMER_DIVERSEORDER>
1
2

> <PUBCHEM_MMFF94_PARTIAL_CHARGES>
15
1 -0.08
10 0.63
11 0.15
12 0.15
13 0.15
14 0.15
15 0.5
2 -0.65
3 -0.57
4 0.09
5 -0.15
6 -0.15
7 0.08
8 -0.15
9 -0.15

> <PUBCHEM_EFFECTIVE_ROTOR_COUNT>
1

> <PUBCHEM_PHARMACOPHORE_FEATURES>
5
1 1 hydrophobe
1 2 acceptor
1 3 acceptor
3 2 3 10 anion
6 4 5 6 7 8 9 rings

> <PUBCHEM_HEAVY_ATOM_COUNT>
10

> <PUBCHEM_ATOM_DEF_STEREO_COUNT>
0

> <PUBCHEM_ATOM_UDEF_STEREO_COUNT>
0

> <PUBCHEM_BOND_DEF_STEREO_COUNT>
0

> <PUBCHEM_BOND_UDEF_STEREO_COUNT>
0

> <PUBCHEM_ISOTOPIC_ATOM_COUNT>
0

> <PUBCHEM_COMPONENT_COUNT>
1

> <PUBCHEM_CACTVS_TAUTO_COUNT>
1

> <PUBCHEM_CONFORMER_ID>
00002F1C00000001

> <PUBCHEM_MMFF94_ENERGY>
25.9337

> <PUBCHEM_FEATURE_SELFOVERLAP>
25.429

> <PUBCHEM_SHAPE_FINGERPRINT>
13380535 76 18338795607386036951
14325111 11 18410292523207536801
15775835 57 18261116248722941932
16945 1 18338797793128647783
19973954 147 18266179607190518524
20653085 51 18409457989486756953
20871998 184 18055642956167313519
21028194 46 18335988584201785873
21040471 1 18410856555497881027
21524375 3 18410570644136432237
23235685 24 18338792308666485313
23402655 69 18125143950201958653
23552423 10 18188770685992103814
23559900 14 18272376352658065300
241688 4 16610825960829566867
2748010 2 18411423942057482765
369184 2 18269837673680615226
5084963 1 18273215326135364962
528886 8 18339074891681344553

> <PUBCHEM_SHAPE_MULTIPOLES>
205.99
4.59
2
0.63
1.26
0.4
0
-2.58
0
0.19
0
0.16
-0.02
0

> <PUBCHEM_SHAPE_SELFOVERLAP>
410.067

> <PUBCHEM_SHAPE_VOLUME>
125.5

> <PUBCHEM_COORDINATE_TYPE>
2
5
10

$$$$
