70717
  -OEChem-11012401183D

 15 15  0     0  0  0  0  0  0999 V2000
   -2.3105   -0.2983    0.0101 O   0  0  0  0  0  0  0  0  0  0  0  0
    2.3102   -0.2784    0.0110 O   0  0  0  0  0  0  0  0  0  0  0  0
    0.0019   -0.6474   -0.0086 N   0  0  0  0  0  0  0  0  0  0  0  0
   -0.7680    1.5512   -0.0018 C   0  0  0  0  0  0  0  0  0  0  0  0
    0.7515    1.5588   -0.0047 C   0  0  0  0  0  0  0  0  0  0  0  0
   -1.1539    0.1001   -0.0006 C   0  0  0  0  0  0  0  0  0  0  0  0
    1.1508    0.1116   -0.0004 C   0  0  0  0  0  0  0  0  0  0  0  0
    0.0180   -2.0977   -0.0051 C   0  0  0  0  0  0  0  0  0  0  0  0
   -1.1714    2.0404   -0.8933 H   0  0  0  0  0  0  0  0  0  0  0  0
   -1.1673    2.0403    0.8916 H   0  0  0  0  0  0  0  0  0  0  0  0
    1.1497    2.0550    0.8853 H   0  0  0  0  0  0  0  0  0  0  0  0
    1.1465    2.0483   -0.8997 H   0  0  0  0  0  0  0  0  0  0  0  0
    0.7031   -2.4497   -0.7817 H   0  0  0  0  0  0  0  0  0  0  0  0
   -0.9832   -2.5020   -0.1723 H   0  0  0  0  0  0  0  0  0  0  0  0
    0.3956   -2.4347    0.9649 H   0  0  0  0  0  0  0  0  0  0  0  0
  1  6  2  0  0  0  0
  2  7  2  0  0  0  0
  3  6  1  0  0  0  0
  3  7  1  0  0  0  0
  3  8  1  0  0  0  0
  4  5  1  0  0  0  0
  4  6  1  0  0  0  0
  4  9  1  0  0  0  0
  4 10  1  0  0  0  0
  5  7  1  0  0  0  0
  5 11  1  0  0  0  0
  5 12  1  0  0  0  0
  8 13  1  0  0  0  0
  8 14  1  0  0  0  0
  8 15  1  0  0  0  0
M  END
> <PUBCHEM_COMPOUND_CID>
70717

> <PUBCHEM_CONFORMER_RMSD>
0.4

> <PUBCHEM_CONFORMER_DIVERSEORDER>
1

> <PUBCHEM_MMFF94_PARTIAL_CHARGES>
8
1 -0.57
2 -0.57
3 -0.42
4 0.06
5 0.06
6 0.57
7 0.57
8 0.3

> <PUBCHEM_EFFECTIVE_ROTOR_COUNT>
0.6

> <PUBCHEM_PHARMACOPHORE_FEATURES>
3
1 1 acceptor
1 2 acceptor
5 3 4 5 6 7 rings

> <PUBCHEM_HEAVY_ATOM_COUNT>
8

> <PUBCHEM_ATOM_DEF_STEREO_COUNT>
0

> <PUBCHEM_ATOM_UDEF_STEREO_COUNT>
0

> <PUBCHEM_BOND_DEF_STEREO_COUNT>
0

> <PUBCHEM_BOND_UDEF_STEREO_COUNT>
0

> <PUBCHEM_ISOTOPIC_ATOM_COUNT>
0

> <PUBCHEM_COMPONENT_COUNT>
1

> <PUBCHEM_CACTVS_TAUTO_COUNT>
3

> <PUBCHEM_CONFORMER_ID>
0001143D00000001

> <PUBCHEM_MMFF94_ENERGY>
5.2841

> <PUBCHEM_FEATURE_SELFOVERLAP>
15.223

> <PUBCHEM_SHAPE_FINGERPRINT>
16714656 1 18410298007996630044
18185500 45 18340201882478205743
21040471 1 18122626321048610437
23552423 10 17973455303820322222
29004967 10 18336272270849114961

> <PUBCHEM_SHAPE_MULTIPOLES>
147.92
2.17
1.93
0.58
0
0.4
0
0.07
0.01
-0.01
0
0
-0.02
0

> <PUBCHEM_SHAPE_SELFOVERLAP>
299.837

> <PUBCHEM_SHAPE_VOLUME>
89.2

> <PUBCHEM_COORDINATE_TYPE>
2
5
10

$$$$
