11095633
  -OEChem-11012400543D

 30 30  0     1  0  0  0  0  0999 V2000
    1.4017    0.9252    0.3022 O   0  0  0  0  0  0  0  0  0  0  0  0
   -1.4098    0.9139   -0.2993 O   0  0  0  0  0  0  0  0  0  0  0  0
    3.1926    0.7088   -1.1409 O   0  0  0  0  0  0  0  0  0  0  0  0
   -3.2051    0.7008    1.1388 O   0  0  0  0  0  0  0  0  0  0  0  0
    0.7167   -0.1986   -0.2487 C   0  0  2  0  0  0  0  0  0  0  0  0
   -0.7291   -0.2117    0.2524 C   0  0  2  0  0  0  0  0  0  0  0  0
    1.4692   -1.4611    0.1657 C   0  0  0  0  0  0  0  0  0  0  0  0
   -1.4583   -1.4882   -0.1645 C   0  0  0  0  0  0  0  0  0  0  0  0
    0.7350   -2.7268   -0.2613 C   0  0  0  0  0  0  0  0  0  0  0  0
   -0.6997   -2.7410    0.2582 C   0  0  0  0  0  0  0  0  0  0  0  0
    2.7061    1.0648   -0.0762 C   0  0  0  0  0  0  0  0  0  0  0  0
   -2.7149    1.0564    0.0756 C   0  0  0  0  0  0  0  0  0  0  0  0
    3.4812    1.7316    1.0196 C   0  0  0  0  0  0  0  0  0  0  0  0
   -3.4855    1.7260   -1.0215 C   0  0  0  0  0  0  0  0  0  0  0  0
    0.7115   -0.0939   -1.3422 H   0  0  0  0  0  0  0  0  0  0  0  0
   -0.7257   -0.1085    1.3460 H   0  0  0  0  0  0  0  0  0  0  0  0
    1.6087   -1.4664    1.2552 H   0  0  0  0  0  0  0  0  0  0  0  0
    2.4775   -1.4942   -0.2599 H   0  0  0  0  0  0  0  0  0  0  0  0
   -1.5995   -1.4924   -1.2536 H   0  0  0  0  0  0  0  0  0  0  0  0
   -2.4655   -1.5348    0.2630 H   0  0  0  0  0  0  0  0  0  0  0  0
    1.2696   -3.6079    0.1112 H   0  0  0  0  0  0  0  0  0  0  0  0
    0.7288   -2.7947   -1.3561 H   0  0  0  0  0  0  0  0  0  0  0  0
   -1.2179   -3.6309   -0.1166 H   0  0  0  0  0  0  0  0  0  0  0  0
   -0.6922   -2.8120    1.3529 H   0  0  0  0  0  0  0  0  0  0  0  0
    3.4473    1.1178    1.9231 H   0  0  0  0  0  0  0  0  0  0  0  0
    3.0697    2.7254    1.2129 H   0  0  0  0  0  0  0  0  0  0  0  0
    4.5249    1.8403    0.7112 H   0  0  0  0  0  0  0  0  0  0  0  0
   -3.4507    1.1130   -1.9256 H   0  0  0  0  0  0  0  0  0  0  0  0
   -3.0712    2.7190   -1.2129 H   0  0  0  0  0  0  0  0  0  0  0  0
   -4.5298    1.8368   -0.7158 H   0  0  0  0  0  0  0  0  0  0  0  0
  1  5  1  0  0  0  0
  1 11  1  0  0  0  0
  2  6  1  0  0  0  0
  2 12  1  0  0  0  0
  3 11  2  0  0  0  0
  4 12  2  0  0  0  0
  5  6  1  0  0  0  0
  5  7  1  0  0  0  0
  5 15  1  0  0  0  0
  6  8  1  0  0  0  0
  6 16  1  0  0  0  0
  7  9  1  0  0  0  0
  7 17  1  0  0  0  0
  7 18  1  0  0  0  0
  8 10  1  0  0  0  0
  8 19  1  0  0  0  0
  8 20  1  0  0  0  0
  9 10  1  0  0  0  0
  9 21  1  0  0  0  0
  9 22  1  0  0  0  0
 10 23  1  0  0  0  0
 10 24  1  0  0  0  0
 11 13  1  0  0  0  0
 12 14  1  0  0  0  0
 13 25  1  0  0  0  0
 13 26  1  0  0  0  0
 13 27  1  0  0  0  0
 14 28  1  0  0  0  0
 14 29  1  0  0  0  0
 14 30  1  0  0  0  0
M  END
> <PUBCHEM_COMPOUND_CID>
11095633

> <PUBCHEM_CONFORMER_RMSD>
0.6

> <PUBCHEM_CONFORMER_DIVERSEORDER>
1
22
27
18
21
15
4
9
5
25
2
29
19
26
7
17
14
31
24
3
20
23
12
28
30
16
10
6
8
13
11

> <PUBCHEM_MMFF94_PARTIAL_CHARGES>
10
1 -0.43
11 0.66
12 0.66
13 0.06
14 0.06
2 -0.43
3 -0.57
4 -0.57
5 0.28
6 0.28

> <PUBCHEM_EFFECTIVE_ROTOR_COUNT>
5.2

> <PUBCHEM_PHARMACOPHORE_FEATURES>
3
1 3 acceptor
1 4 acceptor
6 5 6 7 8 9 10 rings

> <PUBCHEM_HEAVY_ATOM_COUNT>
14

> <PUBCHEM_ATOM_DEF_STEREO_COUNT>
2

> <PUBCHEM_ATOM_UDEF_STEREO_COUNT>
0

> <PUBCHEM_BOND_DEF_STEREO_COUNT>
0

> <PUBCHEM_BOND_UDEF_STEREO_COUNT>
0

> <PUBCHEM_ISOTOPIC_ATOM_COUNT>
0

> <PUBCHEM_COMPONENT_COUNT>
1

> <PUBCHEM_CACTVS_TAUTO_COUNT>
1

> <PUBCHEM_CONFORMER_ID>
00A94E5100000001

> <PUBCHEM_MMFF94_ENERGY>
24.3554

> <PUBCHEM_FEATURE_SELFOVERLAP>
15.223

> <PUBCHEM_SHAPE_FINGERPRINT>
1 1 18338234843207024574
12500047 106 18340202003333544836
12532896 13 18340766039333397958
13380535 21 18338531788576885415
13380535 76 18410568491888617346
13380536 305 18195251009662463823
14123255 52 18410849962570536101
14614273 12 18263632013031762671
14648413 74 17830172407465827065
14897335 6 18411689989458918566
16945 1 18410572889934927076
17134986 127 18407760322232915812
1741750 31 18342173414338257784
18186145 218 18273502268753428696
193761 8 18410856563935555878
20510252 161 18054791955483599706
20645477 56 18268154334648754368
20645477 70 18196083336386764829
20671657 1 18270399369524905934
21499 59 18411127026984858829
21501502 16 18410853265416262947
21524375 3 18410571790423500691
21639500 275 18194953059496836213
220403 375 18409158918066237107
22096605 113 18266166254553972341
2334 1 18410575119028475319
23402539 116 17911227644293070247
25 1 18271254828320668132
2748010 2 18337684060859152935
305870 269 18335975402809907106
3071541 12 18124597483303747114
3071541 158 17902234407945009174
458136 41 18194427548562395891
6333449 129 18340767168751463233
7364860 26 18197213642228679606
81228 2 17906172102507365803
81539 233 18188207602799491061
84936 182 18128806444006947337
88987 49 18265053729233389724

> <PUBCHEM_SHAPE_MULTIPOLES>
264.64
5.48
2.88
0.93
0.05
2.14
0
-5.12
0
-0.02
0
0
-0.31
0.57

> <PUBCHEM_SHAPE_SELFOVERLAP>
524.885

> <PUBCHEM_SHAPE_VOLUME>
155.1

> <PUBCHEM_COORDINATE_TYPE>
2
5
10

$$$$
