521062
  -OEChem-11012401103D

 31 31  0     1  0  0  0  0  0999 V2000
    0.8687    0.0000   -0.0927 O   0  0  0  0  0  0  0  0  0  0  0  0
   -0.1589   -0.9818   -0.0894 C   0  0  2  0  0  0  0  0  0  0  0  0
    3.2088    0.5072   -0.1067 C   0  0  0  0  0  0  0  0  0  0  0  0
    2.1590   -0.5949   -0.1036 C   0  0  0  0  0  0  0  0  0  0  0  0
   -1.5036   -0.2946   -0.0778 C   0  0  0  0  0  0  0  0  0  0  0  0
    4.6241   -0.0626   -0.1344 C   0  0  0  0  0  0  0  0  0  0  0  0
    0.0218   -1.9056    1.1100 C   0  0  0  0  0  0  0  0  0  0  0  0
   -2.5807   -0.9001   -0.7051 C   0  0  0  0  0  0  0  0  0  0  0  0
   -1.6356    0.9284    0.5602 C   0  0  0  0  0  0  0  0  0  0  0  0
    5.6684    1.0412   -0.1809 C   0  0  0  0  0  0  0  0  0  0  0  0
   -3.8228   -0.2656   -0.6943 C   0  0  0  0  0  0  0  0  0  0  0  0
   -2.8778    1.5628    0.5710 C   0  0  0  0  0  0  0  0  0  0  0  0
   -3.9714    0.9657   -0.0563 C   0  0  0  0  0  0  0  0  0  0  0  0
   -0.0763   -1.5626   -1.0178 H   0  0  0  0  0  0  0  0  0  0  0  0
    3.0723    1.1449    0.7758 H   0  0  0  0  0  0  0  0  0  0  0  0
    3.0455    1.1585   -0.9745 H   0  0  0  0  0  0  0  0  0  0  0  0
    2.2700   -1.2280   -0.9915 H   0  0  0  0  0  0  0  0  0  0  0  0
    2.3353   -1.1935    0.7944 H   0  0  0  0  0  0  0  0  0  0  0  0
    4.7485   -0.7098   -1.0104 H   0  0  0  0  0  0  0  0  0  0  0  0
    4.7941   -0.6824    0.7536 H   0  0  0  0  0  0  0  0  0  0  0  0
   -0.8768   -2.5097    1.2815 H   0  0  0  0  0  0  0  0  0  0  0  0
    0.2269   -1.3414    2.0272 H   0  0  0  0  0  0  0  0  0  0  0  0
    0.8404   -2.6174    0.9619 H   0  0  0  0  0  0  0  0  0  0  0  0
   -2.4758   -1.8599   -1.2027 H   0  0  0  0  0  0  0  0  0  0  0  0
   -0.8026    1.4067    1.0669 H   0  0  0  0  0  0  0  0  0  0  0  0
    5.5472    1.6587   -1.0767 H   0  0  0  0  0  0  0  0  0  0  0  0
    5.5922    1.6905    0.6972 H   0  0  0  0  0  0  0  0  0  0  0  0
    6.6745    0.6107   -0.1988 H   0  0  0  0  0  0  0  0  0  0  0  0
   -4.6745   -0.7307   -1.1820 H   0  0  0  0  0  0  0  0  0  0  0  0
   -2.9947    2.5201    1.0705 H   0  0  0  0  0  0  0  0  0  0  0  0
   -4.9388    1.4593   -0.0470 H   0  0  0  0  0  0  0  0  0  0  0  0
  1  2  1  0  0  0  0
  1  4  1  0  0  0  0
  2  5  1  0  0  0  0
  2  7  1  0  0  0  0
  2 14  1  0  0  0  0
  3  4  1  0  0  0  0
  3  6  1  0  0  0  0
  3 15  1  0  0  0  0
  3 16  1  0  0  0  0
  4 17  1  0  0  0  0
  4 18  1  0  0  0  0
  5  8  2  0  0  0  0
  5  9  1  0  0  0  0
  6 10  1  0  0  0  0
  6 19  1  0  0  0  0
  6 20  1  0  0  0  0
  7 21  1  0  0  0  0
  7 22  1  0  0  0  0
  7 23  1  0  0  0  0
  8 11  1  0  0  0  0
  8 24  1  0  0  0  0
  9 12  2  0  0  0  0
  9 25  1  0  0  0  0
 10 26  1  0  0  0  0
 10 27  1  0  0  0  0
 10 28  1  0  0  0  0
 11 13  2  0  0  0  0
 11 29  1  0  0  0  0
 12 13  1  0  0  0  0
 12 30  1  0  0  0  0
 13 31  1  0  0  0  0
M  END
> <PUBCHEM_COMPOUND_CID>
521062

> <PUBCHEM_CONFORMER_RMSD>
0.6

> <PUBCHEM_CONFORMER_DIVERSEORDER>
1
9
25
50
13
42
43
16
20
8
31
49
35
28
40
53
26
2
19
47
29
3
46
17
4
51
32
23
41
21
38
44
10
12
33
18
39
24
34
52
36
14
6
37
30
5
22
15
11
48
27
45
7

> <PUBCHEM_MMFF94_PARTIAL_CHARGES>
14
1 -0.56
11 -0.15
12 -0.15
13 -0.15
2 0.42
24 0.15
25 0.15
29 0.15
30 0.15
31 0.15
4 0.28
5 -0.14
8 -0.15
9 -0.15

> <PUBCHEM_EFFECTIVE_ROTOR_COUNT>
5

> <PUBCHEM_PHARMACOPHORE_FEATURES>
3
1 1 acceptor
1 10 hydrophobe
6 5 8 9 11 12 13 rings

> <PUBCHEM_HEAVY_ATOM_COUNT>
13

> <PUBCHEM_ATOM_DEF_STEREO_COUNT>
0

> <PUBCHEM_ATOM_UDEF_STEREO_COUNT>
1

> <PUBCHEM_BOND_DEF_STEREO_COUNT>
0

> <PUBCHEM_BOND_UDEF_STEREO_COUNT>
0

> <PUBCHEM_ISOTOPIC_ATOM_COUNT>
0

> <PUBCHEM_COMPONENT_COUNT>
1

> <PUBCHEM_CACTVS_TAUTO_COUNT>
1

> <PUBCHEM_CONFORMER_ID>
0007F36600000001

> <PUBCHEM_MMFF94_ENERGY>
27.6304

> <PUBCHEM_FEATURE_SELFOVERLAP>
15.223

> <PUBCHEM_SHAPE_FINGERPRINT>
10014705 185 18410292497300778029
114248 4 17203608198816784772
12119455 92 16950277407993574610
12251169 10 11314309446926891970
12346645 44 18335701598544638203
13214271 11 17894917313139690829
13675066 3 15068336822424720134
15775835 57 18410293566889767113
18186145 218 18261394399606040182
200 152 13901912202452873566
20300324 65 18059855081975462733
204376 136 17676210177882423274
20645464 45 14923950016248153891
20645477 56 18202285805241790148
20645477 70 17417823795000076366
20671657 53 15123512514760977298
20871999 31 17632002118523177311
21524375 3 18335139791100055274
23402539 116 18342450465440533918
23402655 69 18202000993239248220
23557571 272 17418098736482151101
23559900 14 18273495668163829930
351380 180 18272930540335143336
351380 3 11024113140222831036
366044 4 18260829310653520802
42 15 11097855185778716204
474 4 18259989275216576700
83771 10 10159696889331546794

> <PUBCHEM_SHAPE_MULTIPOLES>
261.66
9.99
1.51
0.84
12.9
0.16
-0.08
-4.3
1.59
-0.54
-0.38
-0.33
0.16
-0.53

> <PUBCHEM_SHAPE_SELFOVERLAP>
519.437

> <PUBCHEM_SHAPE_VOLUME>
156.6

> <PUBCHEM_COORDINATE_TYPE>
2
5
10

$$$$
