139704
  -OEChem-11012400483D

 18 17  0     0  0  0  0  0  0999 V2000
    0.7780   -1.6004    0.1483 F   0  0  0  0  0  0  0  0  0  0  0  0
    2.1679    1.5009   -0.0542 O   0  5  0  0  0  0  0  0  0  0  0  0
    3.0232   -0.5304    0.0764 O   0  0  0  0  0  0  0  0  0  0  0  0
    0.8334   -0.2829   -0.2577 N   0  0  0  0  0  0  0  0  0  0  0  0
    2.0889    0.2674   -0.0555 N   0  3  0  0  0  0  0  0  0  0  0  0
   -1.6084   -0.2370   -0.1571 C   0  0  0  0  0  0  0  0  0  0  0  0
   -2.8487    0.5552    0.2637 C   0  0  0  0  0  0  0  0  0  0  0  0
   -0.3064    0.4770    0.1961 C   0  0  0  0  0  0  0  0  0  0  0  0
   -4.1280   -0.1499   -0.1599 C   0  0  0  0  0  0  0  0  0  0  0  0
   -1.6381   -1.2228    0.3244 H   0  0  0  0  0  0  0  0  0  0  0  0
   -1.6456   -0.4112   -1.2405 H   0  0  0  0  0  0  0  0  0  0  0  0
   -2.8235    1.5535   -0.1885 H   0  0  0  0  0  0  0  0  0  0  0  0
   -2.8509    0.6906    1.3513 H   0  0  0  0  0  0  0  0  0  0  0  0
   -0.2587    0.6216    1.2826 H   0  0  0  0  0  0  0  0  0  0  0  0
   -0.3239    1.4700   -0.2701 H   0  0  0  0  0  0  0  0  0  0  0  0
   -4.1987   -1.1420    0.2972 H   0  0  0  0  0  0  0  0  0  0  0  0
   -5.0016    0.4310    0.1521 H   0  0  0  0  0  0  0  0  0  0  0  0
   -4.1696   -0.2683   -1.2474 H   0  0  0  0  0  0  0  0  0  0  0  0
  1  4  1  0  0  0  0
  2  5  1  0  0  0  0
  3  5  2  0  0  0  0
  4  5  1  0  0  0  0
  4  8  1  0  0  0  0
  6  7  1  0  0  0  0
  6  8  1  0  0  0  0
  6 10  1  0  0  0  0
  6 11  1  0  0  0  0
  7  9  1  0  0  0  0
  7 12  1  0  0  0  0
  7 13  1  0  0  0  0
  8 14  1  0  0  0  0
  8 15  1  0  0  0  0
  9 16  1  0  0  0  0
  9 17  1  0  0  0  0
  9 18  1  0  0  0  0
M  CHG  2   2  -1   5   1
M  END
> <PUBCHEM_COMPOUND_CID>
139704

> <PUBCHEM_CONFORMER_RMSD>
0.6

> <PUBCHEM_CONFORMER_DIVERSEORDER>
1
45
44
29
37
35
17
25
26
50
40
18
47
38
42
5
36
32
27
34
23
30
16
15
41
14
3
7
20
43
33
31
12
8
19
39
2
22
13
11
46
4
6
28
21
10
9
49
48
24
51

> <PUBCHEM_MMFF94_PARTIAL_CHARGES>
6
1 -0.06
2 -0.52
3 -0.52
4 -0.2
5 1.03
8 0.27

> <PUBCHEM_EFFECTIVE_ROTOR_COUNT>
4

> <PUBCHEM_PHARMACOPHORE_FEATURES>
3
1 2 acceptor
1 3 acceptor
1 9 hydrophobe

> <PUBCHEM_HEAVY_ATOM_COUNT>
9

> <PUBCHEM_ATOM_DEF_STEREO_COUNT>
0

> <PUBCHEM_ATOM_UDEF_STEREO_COUNT>
0

> <PUBCHEM_BOND_DEF_STEREO_COUNT>
0

> <PUBCHEM_BOND_UDEF_STEREO_COUNT>
0

> <PUBCHEM_ISOTOPIC_ATOM_COUNT>
0

> <PUBCHEM_COMPONENT_COUNT>
1

> <PUBCHEM_CACTVS_TAUTO_COUNT>
1

> <PUBCHEM_CONFORMER_ID>
000221B800000001

> <PUBCHEM_MMFF94_ENERGY>
4.062

> <PUBCHEM_FEATURE_SELFOVERLAP>
15.3

> <PUBCHEM_SHAPE_FINGERPRINT>
10219947 1 18040156223030651445
11062470 55 11458425739046602895
12932764 1 17313093164174029091
14325111 11 18410575115065499081
14390081 3 18412545418496429905
190213 19 17704354359975619861
3248919 1 17560808718849072975
5460574 1 8358257042841690021

> <PUBCHEM_SHAPE_MULTIPOLES>
156.24
5.98
1.11
0.59
3.34
0.03
0
-0.2
-0.14
-0.64
0.04
0.14
-0.01
-0.14

> <PUBCHEM_SHAPE_SELFOVERLAP>
283.474

> <PUBCHEM_SHAPE_VOLUME>
101.3

> <PUBCHEM_COORDINATE_TYPE>
2
5
10

$$$$
