269923
  -OEChem-11012401163D

 41 40  0     0  0  0  0  0  0999 V2000
   -0.0305   -0.8668   -0.5662 Si  0  0  0  0  0  0  0  0  0  0  0  0
    1.4865   -1.3229    0.4034 C   0  0  0  0  0  0  0  0  0  0  0  0
    0.0043    0.9261   -1.0499 C   0  0  0  0  0  0  0  0  0  0  0  0
   -1.5729   -1.2456    0.4216 C   0  0  0  0  0  0  0  0  0  0  0  0
    2.8196   -1.1021   -0.3201 C   0  0  0  0  0  0  0  0  0  0  0  0
    0.0436    1.9203    0.1158 C   0  0  0  0  0  0  0  0  0  0  0  0
   -2.8978   -0.9458   -0.2883 C   0  0  0  0  0  0  0  0  0  0  0  0
    4.0044   -1.4620    0.5777 C   0  0  0  0  0  0  0  0  0  0  0  0
    0.1180    3.3629   -0.3875 C   0  0  0  0  0  0  0  0  0  0  0  0
   -4.0940   -1.3333    0.5825 C   0  0  0  0  0  0  0  0  0  0  0  0
    5.3306   -1.2060   -0.1205 C   0  0  0  0  0  0  0  0  0  0  0  0
    0.1987    4.3516    0.7648 C   0  0  0  0  0  0  0  0  0  0  0  0
   -5.4106   -1.0763   -0.1331 C   0  0  0  0  0  0  0  0  0  0  0  0
   -0.0607   -1.6861   -1.8045 H   0  0  0  0  0  0  0  0  0  0  0  0
    1.4112   -2.3787    0.6904 H   0  0  0  0  0  0  0  0  0  0  0  0
    1.4880   -0.7503    1.3386 H   0  0  0  0  0  0  0  0  0  0  0  0
   -0.8738    1.1403   -1.6709 H   0  0  0  0  0  0  0  0  0  0  0  0
    0.8776    1.0944   -1.6914 H   0  0  0  0  0  0  0  0  0  0  0  0
   -1.5331   -0.6819    1.3613 H   0  0  0  0  0  0  0  0  0  0  0  0
   -1.5463   -2.3073    0.6949 H   0  0  0  0  0  0  0  0  0  0  0  0
    2.8564   -1.7071   -1.2352 H   0  0  0  0  0  0  0  0  0  0  0  0
    2.9111   -0.0530   -0.6291 H   0  0  0  0  0  0  0  0  0  0  0  0
   -0.8476    1.8009    0.7451 H   0  0  0  0  0  0  0  0  0  0  0  0
    0.9130    1.7180    0.7543 H   0  0  0  0  0  0  0  0  0  0  0  0
   -2.9609    0.1215   -0.5357 H   0  0  0  0  0  0  0  0  0  0  0  0
   -2.9463   -1.4953   -1.2373 H   0  0  0  0  0  0  0  0  0  0  0  0
    3.9457   -2.5181    0.8656 H   0  0  0  0  0  0  0  0  0  0  0  0
    3.9665   -0.8711    1.5002 H   0  0  0  0  0  0  0  0  0  0  0  0
   -0.7642    3.5900   -0.9973 H   0  0  0  0  0  0  0  0  0  0  0  0
    0.9979    3.4891   -1.0290 H   0  0  0  0  0  0  0  0  0  0  0  0
   -4.0737   -0.7621    1.5178 H   0  0  0  0  0  0  0  0  0  0  0  0
   -4.0332   -2.3950    0.8486 H   0  0  0  0  0  0  0  0  0  0  0  0
    5.4347   -0.1502   -0.3905 H   0  0  0  0  0  0  0  0  0  0  0  0
    6.1632   -1.4718    0.5383 H   0  0  0  0  0  0  0  0  0  0  0  0
    5.4151   -1.8044   -1.0332 H   0  0  0  0  0  0  0  0  0  0  0  0
    1.0903    4.1722    1.3742 H   0  0  0  0  0  0  0  0  0  0  0  0
    0.2492    5.3759    0.3825 H   0  0  0  0  0  0  0  0  0  0  0  0
   -0.6813    4.2730    1.4112 H   0  0  0  0  0  0  0  0  0  0  0  0
   -5.4761   -1.6606   -1.0566 H   0  0  0  0  0  0  0  0  0  0  0  0
   -6.2517   -1.3586    0.5078 H   0  0  0  0  0  0  0  0  0  0  0  0
   -5.5182   -0.0172   -0.3879 H   0  0  0  0  0  0  0  0  0  0  0  0
  1  2  1  0  0  0  0
  1  3  1  0  0  0  0
  1  4  1  0  0  0  0
  1 14  1  0  0  0  0
  2  5  1  0  0  0  0
  2 15  1  0  0  0  0
  2 16  1  0  0  0  0
  3  6  1  0  0  0  0
  3 17  1  0  0  0  0
  3 18  1  0  0  0  0
  4  7  1  0  0  0  0
  4 19  1  0  0  0  0
  4 20  1  0  0  0  0
  5  8  1  0  0  0  0
  5 21  1  0  0  0  0
  5 22  1  0  0  0  0
  6  9  1  0  0  0  0
  6 23  1  0  0  0  0
  6 24  1  0  0  0  0
  7 10  1  0  0  0  0
  7 25  1  0  0  0  0
  7 26  1  0  0  0  0
  8 11  1  0  0  0  0
  8 27  1  0  0  0  0
  8 28  1  0  0  0  0
  9 12  1  0  0  0  0
  9 29  1  0  0  0  0
  9 30  1  0  0  0  0
 10 13  1  0  0  0  0
 10 31  1  0  0  0  0
 10 32  1  0  0  0  0
 11 33  1  0  0  0  0
 11 34  1  0  0  0  0
 11 35  1  0  0  0  0
 12 36  1  0  0  0  0
 12 37  1  0  0  0  0
 12 38  1  0  0  0  0
 13 39  1  0  0  0  0
 13 40  1  0  0  0  0
 13 41  1  0  0  0  0
M  END
> <PUBCHEM_COMPOUND_CID>
269923

> <PUBCHEM_CONFORMER_RMSD>
0.8

> <PUBCHEM_CONFORMER_DIVERSEORDER>
1
48
71
52
4
50
73
26
29
79
25
69
23
66
67
72
65
3
6
38
5
70
58
46
49
78
63
54
15
56
2
53
47
77
60
80
24
76
61
75
39
82
9
74
21
83
19
44
12
31
43
33
51
57
37
68
14
32
55
81
11
35
41
64
8
34
16
20
10
28
13
30
62
59
17
40
18
7
27
45
36
42
22

> <PUBCHEM_MMFF94_PARTIAL_CHARGES>
5
1 0.44
14 -0.2
2 -0.08
3 -0.08
4 -0.08

> <PUBCHEM_EFFECTIVE_ROTOR_COUNT>
9

> <PUBCHEM_PHARMACOPHORE_FEATURES>
3
1 11 hydrophobe
1 12 hydrophobe
1 13 hydrophobe

> <PUBCHEM_HEAVY_ATOM_COUNT>
13

> <PUBCHEM_ATOM_DEF_STEREO_COUNT>
0

> <PUBCHEM_ATOM_UDEF_STEREO_COUNT>
0

> <PUBCHEM_BOND_DEF_STEREO_COUNT>
0

> <PUBCHEM_BOND_UDEF_STEREO_COUNT>
0

> <PUBCHEM_ISOTOPIC_ATOM_COUNT>
0

> <PUBCHEM_COMPONENT_COUNT>
1

> <PUBCHEM_CACTVS_TAUTO_COUNT>
1

> <PUBCHEM_CONFORMER_ID>
00041E6300000001

> <PUBCHEM_MMFF94_ENERGY>
-5.3493

> <PUBCHEM_FEATURE_SELFOVERLAP>
15.223

> <PUBCHEM_SHAPE_FINGERPRINT>
10756046 70 17915736672837828335
10922049 32 10303812090023422143
11265709 11 18410017623804468977
12788726 201 18261672563321409898
13134695 92 18410572933264246223
13294875 104 17768816707735190985
136203 1 18122343475919284296
13899415 154 18337404832398037022
17041 49 18340220652023482947
17980427 23 17775297053713343889
18006028 8 18409445882095717094
18410436 195 18409733979922021461
18785283 64 17828483900949856129
20097449 115 18410572898556380261
20510252 161 18263077726291407066
20600515 1 18130238115467349927
20671657 1 18195251250628739503
20711985 327 18412832399526398479
21029758 11 18407759239885319527
21041028 32 18411700989218680717
21304253 13 18343021090347844113
21524375 3 17191799684510862917
22182937 141 17983011155604738704
2297311 6 18339370669437721542
23352939 185 18272377494623682400
23402539 116 18342732996995653615
23419403 2 18116691058518831557
23557571 272 18338521829059565758
23558518 356 17830183411124832938
305870 269 17762338424126583517
3250762 1 17612039569407743306
57672749 33 18340484594273817344
58734985 188 18410012177728077847
58734987 110 18411144614875649899
58734987 43 18410015480494657439
621550 34 18131627860222563110
68521 5 18336548205244134758
69474 34 18340480157662121938
7364860 26 18194967563564432317
81228 2 18045799895978092182

> <PUBCHEM_SHAPE_MULTIPOLES>
285.75
8.7
4.13
0.92
0.96
8.57
0.09
-9.24
-0.98
-0.66
-0.86
0
0.11
0.03

> <PUBCHEM_SHAPE_SELFOVERLAP>
494.704

> <PUBCHEM_SHAPE_VOLUME>
189.6

> <PUBCHEM_COORDINATE_TYPE>
2
5
10

$$$$
