18639728
  -OEChem-11012401263D

 29 30  0     1  0  0  0  0  0999 V2000
   -2.5760    0.3325   -0.1924 O   0  0  0  0  0  0  0  0  0  0  0  0
   -0.1800    0.6869    0.3211 C   0  0  1  0  0  0  0  0  0  0  0  0
    1.1083    0.0438   -0.2763 C   0  0  0  0  0  0  0  0  0  0  0  0
    0.4407   -1.3570   -0.3074 C   0  0  2  0  0  0  0  0  0  0  0  0
   -1.2646    0.2961   -0.7279 C   0  0  1  0  0  0  0  0  0  0  0  0
   -0.4269   -0.1636    1.5994 C   0  0  0  0  0  0  0  0  0  0  0  0
   -0.8509   -1.1317   -1.1302 C   0  0  0  0  0  0  0  0  0  0  0  0
   -0.0083   -1.5752    1.1549 C   0  0  0  0  0  0  0  0  0  0  0  0
   -0.1400    2.1755    0.6112 C   0  0  0  0  0  0  0  0  0  0  0  0
    1.5306    0.5705   -1.6629 C   0  0  0  0  0  0  0  0  0  0  0  0
    2.3671    0.1222    0.6105 C   0  0  0  0  0  0  0  0  0  0  0  0
    1.0612   -2.1689   -0.6937 H   0  0  0  0  0  0  0  0  0  0  0  0
   -1.2487    0.9668   -1.5938 H   0  0  0  0  0  0  0  0  0  0  0  0
   -1.4666   -0.1400    1.9411 H   0  0  0  0  0  0  0  0  0  0  0  0
    0.1881    0.1737    2.4412 H   0  0  0  0  0  0  0  0  0  0  0  0
   -0.6345   -1.1804   -2.2028 H   0  0  0  0  0  0  0  0  0  0  0  0
   -1.6220   -1.8790   -0.9149 H   0  0  0  0  0  0  0  0  0  0  0  0
    0.8123   -1.9514    1.7748 H   0  0  0  0  0  0  0  0  0  0  0  0
   -0.8349   -2.2888    1.2378 H   0  0  0  0  0  0  0  0  0  0  0  0
   -1.0905    2.5170    1.0349 H   0  0  0  0  0  0  0  0  0  0  0  0
    0.6500    2.4208    1.3284 H   0  0  0  0  0  0  0  0  0  0  0  0
    0.0448    2.7536   -0.2999 H   0  0  0  0  0  0  0  0  0  0  0  0
    1.9034    1.5985   -1.5883 H   0  0  0  0  0  0  0  0  0  0  0  0
    2.3385   -0.0467   -2.0733 H   0  0  0  0  0  0  0  0  0  0  0  0
    0.7358    0.5787   -2.4112 H   0  0  0  0  0  0  0  0  0  0  0  0
    2.7466    1.1494    0.6529 H   0  0  0  0  0  0  0  0  0  0  0  0
    2.2153   -0.1978    1.6434 H   0  0  0  0  0  0  0  0  0  0  0  0
    3.1626   -0.5098    0.1988 H   0  0  0  0  0  0  0  0  0  0  0  0
   -3.1793   -0.0048   -0.8762 H   0  0  0  0  0  0  0  0  0  0  0  0
  1  5  1  0  0  0  0
  1 29  1  0  0  0  0
  2  3  1  0  0  0  0
  2  5  1  0  0  0  0
  2  6  1  0  0  0  0
  2  9  1  0  0  0  0
  3  4  1  0  0  0  0
  3 10  1  0  0  0  0
  3 11  1  0  0  0  0
  4  7  1  0  0  0  0
  4  8  1  0  0  0  0
  4 12  1  0  0  0  0
  5  7  1  0  0  0  0
  5 13  1  0  0  0  0
  6  8  1  0  0  0  0
  6 14  1  0  0  0  0
  6 15  1  0  0  0  0
  7 16  1  0  0  0  0
  7 17  1  0  0  0  0
  8 18  1  0  0  0  0
  8 19  1  0  0  0  0
  9 20  1  0  0  0  0
  9 21  1  0  0  0  0
  9 22  1  0  0  0  0
 10 23  1  0  0  0  0
 10 24  1  0  0  0  0
 10 25  1  0  0  0  0
 11 26  1  0  0  0  0
 11 27  1  0  0  0  0
 11 28  1  0  0  0  0
M  END
> <PUBCHEM_COMPOUND_CID>
18639728

> <PUBCHEM_CONFORMER_RMSD>
0.4

> <PUBCHEM_CONFORMER_DIVERSEORDER>
1
2

> <PUBCHEM_MMFF94_PARTIAL_CHARGES>
3
1 -0.68
29 0.4
5 0.28

> <PUBCHEM_EFFECTIVE_ROTOR_COUNT>
1

> <PUBCHEM_PHARMACOPHORE_FEATURES>
4
1 1 acceptor
1 1 donor
3 3 10 11 hydrophobe
7 2 3 4 5 6 7 8 rings

> <PUBCHEM_HEAVY_ATOM_COUNT>
11

> <PUBCHEM_ATOM_DEF_STEREO_COUNT>
1

> <PUBCHEM_ATOM_UDEF_STEREO_COUNT>
2

> <PUBCHEM_BOND_DEF_STEREO_COUNT>
0

> <PUBCHEM_BOND_UDEF_STEREO_COUNT>
0

> <PUBCHEM_ISOTOPIC_ATOM_COUNT>
0

> <PUBCHEM_COMPONENT_COUNT>
1

> <PUBCHEM_CACTVS_TAUTO_COUNT>
1

> <PUBCHEM_CONFORMER_ID>
011C6B7000000001

> <PUBCHEM_MMFF94_ENERGY>
54.8769

> <PUBCHEM_FEATURE_SELFOVERLAP>
20.297

> <PUBCHEM_SHAPE_FINGERPRINT>
12423570 1 12215649033039363630
13024252 1 18113890576970340946
137420 1 9815742623775719182
15557651 10 18042662027205044853
16945 1 17896299381532643142
21040471 1 18409449197646478071
241688 4 17175741939688160498
369184 2 18270668866243646354
5084963 1 18043540421089367740
528886 8 17988065755826422261
68250623 7 17551486161272528486

> <PUBCHEM_SHAPE_MULTIPOLES>
220.51
2.16
1.67
1.5
0.12
0.33
-0.03
0.28
-0.35
-0.15
0.31
0.15
-0.15
-0.13

> <PUBCHEM_SHAPE_SELFOVERLAP>
464.138

> <PUBCHEM_SHAPE_VOLUME>
131.2

> <PUBCHEM_COORDINATE_TYPE>
2
5
10

$$$$
