141490
  -OEChem-11012401243D

 28 28  0     1  0  0  0  0  0999 V2000
    0.8884    1.2931   -1.2362 O   0  0  0  0  0  0  0  0  0  0  0  0
   -1.0419    2.0447    0.6862 O   0  0  0  0  0  0  0  0  0  0  0  0
    1.6477   -1.3480    1.1134 O   0  0  0  0  0  0  0  0  0  0  0  0
   -2.8137   -0.2707    0.3422 O   0  0  0  0  0  0  0  0  0  0  0  0
    3.0711    1.3272   -0.9065 O   0  5  0  0  0  0  0  0  0  0  0  0
    0.3141    2.1303    2.4281 O   0  5  0  0  0  0  0  0  0  0  0  0
    2.3177    1.3205   -3.0050 O   0  0  0  0  0  0  0  0  0  0  0  0
   -0.0905    4.0147    1.3072 O   0  0  0  0  0  0  0  0  0  0  0  0
    2.7487   -2.8943   -0.0204 O   0  5  0  0  0  0  0  0  0  0  0  0
   -3.7549   -0.5831   -1.6318 O   0  5  0  0  0  0  0  0  0  0  0  0
    1.9965   -3.4060    2.0153 O   0  0  0  0  0  0  0  0  0  0  0  0
   -4.6342   -1.6180    0.1368 O   0  0  0  0  0  0  0  0  0  0  0  0
    2.2005    1.3153   -1.7774 N   0  3  0  0  0  0  0  0  0  0  0  0
   -0.2029    2.8090    1.5398 N   0  3  0  0  0  0  0  0  0  0  0  0
    2.1715   -2.6671    1.0436 N   0  3  0  0  0  0  0  0  0  0  0  0
   -3.8280   -0.8842   -0.4397 N   0  3  0  0  0  0  0  0  0  0  0  0
    0.8107    0.6324    0.0286 C   0  0  1  0  0  0  0  0  0  0  0  0
   -0.6285    0.6847    0.5573 C   0  0  2  0  0  0  0  0  0  0  0  0
    1.2774   -0.8176   -0.1568 C   0  0  2  0  0  0  0  0  0  0  0  0
   -1.6054   -0.0350   -0.3827 C   0  0  1  0  0  0  0  0  0  0  0  0
    0.2209   -1.7036   -0.7593 C   0  0  0  0  0  0  0  0  0  0  0  0
   -1.0652   -1.3444   -0.8829 C   0  0  0  0  0  0  0  0  0  0  0  0
    1.4882    1.1270    0.7305 H   0  0  0  0  0  0  0  0  0  0  0  0
   -0.6971    0.1980    1.5415 H   0  0  0  0  0  0  0  0  0  0  0  0
    2.1415   -0.8634   -0.8247 H   0  0  0  0  0  0  0  0  0  0  0  0
   -1.8137    0.6334   -1.2293 H   0  0  0  0  0  0  0  0  0  0  0  0
    0.5128   -2.6665   -1.1698 H   0  0  0  0  0  0  0  0  0  0  0  0
   -1.7182   -2.0473   -1.3918 H   0  0  0  0  0  0  0  0  0  0  0  0
  1 13  1  0  0  0  0
  1 17  1  0  0  0  0
  2 14  1  0  0  0  0
  2 18  1  0  0  0  0
  3 15  1  0  0  0  0
  3 19  1  0  0  0  0
  4 16  1  0  0  0  0
  4 20  1  0  0  0  0
  5 13  1  0  0  0  0
  6 14  1  0  0  0  0
  7 13  2  0  0  0  0
  8 14  2  0  0  0  0
  9 15  1  0  0  0  0
 10 16  1  0  0  0  0
 11 15  2  0  0  0  0
 12 16  2  0  0  0  0
 17 18  1  0  0  0  0
 17 19  1  0  0  0  0
 17 23  1  0  0  0  0
 18 20  1  0  0  0  0
 18 24  1  0  0  0  0
 19 21  1  0  0  0  0
 19 25  1  0  0  0  0
 20 22  1  0  0  0  0
 20 26  1  0  0  0  0
 21 22  2  0  0  0  0
 21 27  1  0  0  0  0
 22 28  1  0  0  0  0
M  CHG  8   5  -1   6  -1   9  -1  10  -1  13   1  14   1  15   1  16   1
M  END
> <PUBCHEM_COMPOUND_CID>
141490

> <PUBCHEM_CONFORMER_RMSD>
0.8

> <PUBCHEM_CONFORMER_DIVERSEORDER>
2
17
37
128
86
1
60
21
84
126
115
44
68
6
100
142
23
96
74
132
10
118
4
80
75
62
12
143
63
76
14
116
99
83
119
135
42
73
22
133
65
136
11
120
122
127
125
85
130
57
64
124
50
121
104
113
92
7
78
82
123
48
79
26
97
55
110
46
134
24
106
52
139
107
29
41
102
88
87
112
77
43
40
89
49
137
105
38
114
94
34
67
3
39
59
69
61
47
129
45
103
91
93
72
95
71
81
109
138
101
30
51
20
141
90
98
131
56
35
16
58
66
54
111
70
140
108
28
18
19
33
53
36
9
32
117
31
8
13
27
5
25
15

> <PUBCHEM_MMFF94_PARTIAL_CHARGES>
24
1 -0.27
10 -0.52
11 -0.52
12 -0.52
13 1.03
14 1.03
15 1.03
16 1.03
17 0.28
18 0.28
19 0.42
2 -0.27
20 0.42
21 -0.29
22 -0.29
27 0.15
28 0.15
3 -0.27
4 -0.27
5 -0.52
6 -0.52
7 -0.52
8 -0.52
9 -0.52

> <PUBCHEM_EFFECTIVE_ROTOR_COUNT>
8.8

> <PUBCHEM_PHARMACOPHORE_FEATURES>
9
1 10 acceptor
1 11 acceptor
1 12 acceptor
1 5 acceptor
1 6 acceptor
1 7 acceptor
1 8 acceptor
1 9 acceptor
6 17 18 19 20 21 22 rings

> <PUBCHEM_HEAVY_ATOM_COUNT>
22

> <PUBCHEM_ATOM_DEF_STEREO_COUNT>
0

> <PUBCHEM_ATOM_UDEF_STEREO_COUNT>
4

> <PUBCHEM_BOND_DEF_STEREO_COUNT>
0

> <PUBCHEM_BOND_UDEF_STEREO_COUNT>
0

> <PUBCHEM_ISOTOPIC_ATOM_COUNT>
0

> <PUBCHEM_COMPONENT_COUNT>
1

> <PUBCHEM_CACTVS_TAUTO_COUNT>
1

> <PUBCHEM_CONFORMER_ID>
000228B200000002

> <PUBCHEM_MMFF94_ENERGY>
82.8071

> <PUBCHEM_FEATURE_SELFOVERLAP>
45.961

> <PUBCHEM_SHAPE_FINGERPRINT>
11578080 2 18121190157137006860
12293681 160 18196955463429324364
12716301 132 17396979535999794603
13009979 54 18195532489008066282
13134695 92 18125127555778467999
13140716 1 17765985482815791971
13149001 5 17621342541679982876
13294875 104 18125988601831082553
133893 2 17533527593559879446
14817 1 13264960859911346124
14943834 7 18121801446836016228
15502722 9 17894633681572758159
16945 1 18187659049412974221
19784866 9 18262234533536639719
20600515 1 17975673027242226759
20671657 53 17750507378095347935
21524375 3 16836822334050937713
22112679 90 18059024886461802187
23402539 116 17774459246948305836
23419403 2 17401145267851222308
23526113 38 17550695621413529580
266924 1 18265636306686187348
266924 78 17461475509643238453
298252 57 16880764242913455748
68419 9 17982195343087180596
6992083 37 17615695029210743898
81228 2 17617088110433132239

> <PUBCHEM_SHAPE_MULTIPOLES>
362.39
4.97
3.87
2.05
5.62
1.11
0.41
-3.31
1.6
-2.29
-2.66
-1.47
0.89
-1.98

> <PUBCHEM_SHAPE_SELFOVERLAP>
743.036

> <PUBCHEM_SHAPE_VOLUME>
206.3

> <PUBCHEM_COORDINATE_TYPE>
2
5
10

$$$$
