137582
  -OEChem-11012400403D

 18 18  0     0  0  0  0  0  0999 V2000
    2.8991    1.3187    0.0006 O   0  0  0  0  0  0  0  0  0  0  0  0
   -3.4681   -0.3790    0.0007 O   0  0  0  0  0  0  0  0  0  0  0  0
    2.9301   -0.9606    0.0000 O   0  0  0  0  0  0  0  0  0  0  0  0
   -2.1081    1.4503   -0.0009 O   0  0  0  0  0  0  0  0  0  0  0  0
    0.7663    0.2304   -0.0005 C   0  0  0  0  0  0  0  0  0  0  0  0
   -1.0879   -0.8125    0.0003 C   0  0  0  0  0  0  0  0  0  0  0  0
    0.0074   -0.5896    1.0638 C   0  0  0  0  0  0  0  0  0  0  0  0
    0.0073   -0.5910   -1.0635 C   0  0  0  0  0  0  0  0  0  0  0  0
    2.3151    0.0954   -0.0004 C   0  0  0  0  0  0  0  0  0  0  0  0
   -2.2612    0.2379   -0.0001 C   0  0  0  0  0  0  0  0  0  0  0  0
    0.4598    1.2864   -0.0011 H   0  0  0  0  0  0  0  0  0  0  0  0
   -1.4705   -1.8412    0.0009 H   0  0  0  0  0  0  0  0  0  0  0  0
    0.5082   -1.5119    1.3811 H   0  0  0  0  0  0  0  0  0  0  0  0
   -0.2953   -0.0328    1.9552 H   0  0  0  0  0  0  0  0  0  0  0  0
   -0.2954   -0.0353   -1.9556 H   0  0  0  0  0  0  0  0  0  0  0  0
    0.5081   -1.5137   -1.3796 H   0  0  0  0  0  0  0  0  0  0  0  0
    3.8781    1.2572    0.0011 H   0  0  0  0  0  0  0  0  0  0  0  0
   -4.2084    0.2645    0.0004 H   0  0  0  0  0  0  0  0  0  0  0  0
  1  9  1  0  0  0  0
  1 17  1  0  0  0  0
  2 10  1  0  0  0  0
  2 18  1  0  0  0  0
  3  9  2  0  0  0  0
  4 10  2  0  0  0  0
  5  7  1  0  0  0  0
  5  8  1  0  0  0  0
  5  9  1  0  0  0  0
  5 11  1  0  0  0  0
  6  7  1  0  0  0  0
  6  8  1  0  0  0  0
  6 10  1  0  0  0  0
  6 12  1  0  0  0  0
  7 13  1  0  0  0  0
  7 14  1  0  0  0  0
  8 15  1  0  0  0  0
  8 16  1  0  0  0  0
M  END
> <PUBCHEM_COMPOUND_CID>
137582

> <PUBCHEM_CONFORMER_RMSD>
0.6

> <PUBCHEM_CONFORMER_DIVERSEORDER>
1
3
2
4

> <PUBCHEM_MMFF94_PARTIAL_CHARGES>
10
1 -0.65
10 0.67
17 0.5
18 0.5
2 -0.65
3 -0.57
4 -0.57
5 0.05
6 0.05
9 0.67

> <PUBCHEM_EFFECTIVE_ROTOR_COUNT>
2.8

> <PUBCHEM_PHARMACOPHORE_FEATURES>
7
1 1 acceptor
1 2 acceptor
1 3 acceptor
1 4 acceptor
3 1 3 9 anion
3 2 4 10 anion
4 5 6 7 8 rings

> <PUBCHEM_HEAVY_ATOM_COUNT>
10

> <PUBCHEM_ATOM_DEF_STEREO_COUNT>
0

> <PUBCHEM_ATOM_UDEF_STEREO_COUNT>
0

> <PUBCHEM_BOND_DEF_STEREO_COUNT>
0

> <PUBCHEM_BOND_UDEF_STEREO_COUNT>
0

> <PUBCHEM_ISOTOPIC_ATOM_COUNT>
0

> <PUBCHEM_COMPONENT_COUNT>
1

> <PUBCHEM_CACTVS_TAUTO_COUNT>
1

> <PUBCHEM_CONFORMER_ID>
0002196E00000001

> <PUBCHEM_MMFF94_ENERGY>
14.6437

> <PUBCHEM_FEATURE_SELFOVERLAP>
35.634

> <PUBCHEM_SHAPE_FINGERPRINT>
10857977 72 14851607691099737221
11062470 55 8862941684473487699
12932764 1 17632290207211433522
14128692 85 10303511936312770225
14325111 11 18410573976672357793
14390081 3 18409446994344209280
15310529 11 18272367602707272846
19973954 147 18410296916943444744
20653085 51 18270413701746201441
20711983 171 18271811189752345269
21028194 46 18411420591972552709
21293036 1 16415481601010841088
23402539 116 18271515442994565791
29004967 10 10591755497977248302
3248919 1 17603870043626029366
369184 2 18410011056683506794
5084963 1 18341894078091678121

> <PUBCHEM_SHAPE_MULTIPOLES>
182.32
4.66
1.14
0.83
0.02
0.28
0
0.66
0
-0.14
0
0
-0.16
0

> <PUBCHEM_SHAPE_SELFOVERLAP>
363.793

> <PUBCHEM_SHAPE_VOLUME>
107.4

> <PUBCHEM_COORDINATE_TYPE>
2
5
10

$$$$
