12695436
  -OEChem-11012401083D

 28 27  0     0  0  0  0  0  0999 V2000
   -1.5615   -0.2757   -0.1112 O   0  0  0  0  0  0  0  0  0  0  0  0
   -0.5101    1.4014    1.0620 O   0  0  0  0  0  0  0  0  0  0  0  0
    1.9087    0.4840    0.0355 N   0  0  0  0  0  0  0  0  0  0  0  0
    0.7922   -0.4601    0.1558 C   0  0  0  0  0  0  0  0  0  0  0  0
    0.6595   -1.2207   -1.1651 C   0  0  0  0  0  0  0  0  0  0  0  0
    1.0868   -1.4111    1.3175 C   0  0  0  0  0  0  0  0  0  0  0  0
   -0.4750    0.3485    0.4365 C   0  0  0  0  0  0  0  0  0  0  0  0
    1.6638    1.4213   -1.0580 C   0  0  0  0  0  0  0  0  0  0  0  0
    3.1615   -0.2371   -0.1753 C   0  0  0  0  0  0  0  0  0  0  0  0
   -2.8177    0.3821    0.0824 C   0  0  0  0  0  0  0  0  0  0  0  0
   -3.9082   -0.4326   -0.5802 C   0  0  0  0  0  0  0  0  0  0  0  0
    1.5514   -1.7729   -1.4714 H   0  0  0  0  0  0  0  0  0  0  0  0
   -0.1080   -2.0013   -1.0634 H   0  0  0  0  0  0  0  0  0  0  0  0
    0.3243   -0.6002   -2.0035 H   0  0  0  0  0  0  0  0  0  0  0  0
    1.4309   -0.8732    2.2094 H   0  0  0  0  0  0  0  0  0  0  0  0
    1.8148   -2.1907    1.0691 H   0  0  0  0  0  0  0  0  0  0  0  0
    0.1694   -1.9348    1.6153 H   0  0  0  0  0  0  0  0  0  0  0  0
    1.7598    0.9749   -2.0542 H   0  0  0  0  0  0  0  0  0  0  0  0
    2.4223    2.2133   -1.0106 H   0  0  0  0  0  0  0  0  0  0  0  0
    0.7075    1.9492   -1.0077 H   0  0  0  0  0  0  0  0  0  0  0  0
    3.9779    0.4980   -0.1901 H   0  0  0  0  0  0  0  0  0  0  0  0
    3.2420   -0.7742   -1.1242 H   0  0  0  0  0  0  0  0  0  0  0  0
    3.4303   -0.9057    0.6472 H   0  0  0  0  0  0  0  0  0  0  0  0
   -3.0218    0.4707    1.1552 H   0  0  0  0  0  0  0  0  0  0  0  0
   -2.7788    1.3816   -0.3647 H   0  0  0  0  0  0  0  0  0  0  0  0
   -4.8847    0.0428   -0.4517 H   0  0  0  0  0  0  0  0  0  0  0  0
   -3.7079   -0.5457   -1.6508 H   0  0  0  0  0  0  0  0  0  0  0  0
   -3.9471   -1.4413   -0.1560 H   0  0  0  0  0  0  0  0  0  0  0  0
  1  7  1  0  0  0  0
  1 10  1  0  0  0  0
  2  7  2  0  0  0  0
  3  4  1  0  0  0  0
  3  8  1  0  0  0  0
  3  9  1  0  0  0  0
  4  5  1  0  0  0  0
  4  6  1  0  0  0  0
  4  7  1  0  0  0  0
  5 12  1  0  0  0  0
  5 13  1  0  0  0  0
  5 14  1  0  0  0  0
  6 15  1  0  0  0  0
  6 16  1  0  0  0  0
  6 17  1  0  0  0  0
  8 18  1  0  0  0  0
  8 19  1  0  0  0  0
  8 20  1  0  0  0  0
  9 21  1  0  0  0  0
  9 22  1  0  0  0  0
  9 23  1  0  0  0  0
 10 11  1  0  0  0  0
 10 24  1  0  0  0  0
 10 25  1  0  0  0  0
 11 26  1  0  0  0  0
 11 27  1  0  0  0  0
 11 28  1  0  0  0  0
M  END
> <PUBCHEM_COMPOUND_CID>
12695436

> <PUBCHEM_CONFORMER_RMSD>
0.6

> <PUBCHEM_CONFORMER_DIVERSEORDER>
1
3
8
24
29
9
15
17
14
26
10
13
20
16
27
30
35
33
21
5
31
19
12
23
28
11
22
7
6
2
34
18
25
32
4

> <PUBCHEM_MMFF94_PARTIAL_CHARGES>
8
1 -0.43
10 0.28
2 -0.57
3 -0.81
4 0.33
7 0.66
8 0.27
9 0.27

> <PUBCHEM_EFFECTIVE_ROTOR_COUNT>
4

> <PUBCHEM_PHARMACOPHORE_FEATURES>
3
1 2 acceptor
1 3 cation
3 4 5 6 hydrophobe

> <PUBCHEM_HEAVY_ATOM_COUNT>
11

> <PUBCHEM_ATOM_DEF_STEREO_COUNT>
0

> <PUBCHEM_ATOM_UDEF_STEREO_COUNT>
0

> <PUBCHEM_BOND_DEF_STEREO_COUNT>
0

> <PUBCHEM_BOND_UDEF_STEREO_COUNT>
0

> <PUBCHEM_ISOTOPIC_ATOM_COUNT>
0

> <PUBCHEM_COMPONENT_COUNT>
1

> <PUBCHEM_CACTVS_TAUTO_COUNT>
1

> <PUBCHEM_CONFORMER_ID>
00C1B78C00000001

> <PUBCHEM_MMFF94_ENERGY>
31.3493

> <PUBCHEM_FEATURE_SELFOVERLAP>
15.223

> <PUBCHEM_SHAPE_FINGERPRINT>
10219947 1 15864072065731590838
11062470 55 15068341211301067439
12423570 1 15690115320624299094
12897270 3 17988932153825142821
12932764 1 17894916179204956271
14993402 34 18261683622972492486
16945 1 18333739013301852634
23402539 116 17632571635080816572
23552333 60 18336261254168297571
23552423 10 18127703621222662103
5084963 1 18408047307816086664

> <PUBCHEM_SHAPE_MULTIPOLES>
209.66
4.83
1.37
1.13
4.22
0.05
0.03
0.02
1.03
-0.68
-0.09
-0.1
-0.11
-0.44

> <PUBCHEM_SHAPE_SELFOVERLAP>
397.127

> <PUBCHEM_SHAPE_VOLUME>
131.8

> <PUBCHEM_COORDINATE_TYPE>
2
5
10

$$$$
