136051
  -OEChem-11012401253D

 27 30  0     0  0  0  0  0  0999 V2000
   -1.1368    1.5924    0.0000 O   0  0  0  0  0  0  0  0  0  0  0  0
    0.4122   -0.3191    0.0001 C   0  0  0  0  0  0  0  0  0  0  0  0
    1.8597   -0.4884    0.0000 C   0  0  0  0  0  0  0  0  0  0  0  0
    0.1451    1.1051    0.0001 C   0  0  0  0  0  0  0  0  0  0  0  0
    2.3829    0.8228   -0.0001 C   0  0  0  0  0  0  0  0  0  0  0  0
    1.2910    1.8041   -0.0001 C   0  0  0  0  0  0  0  0  0  0  0  0
   -0.5631   -1.2306    0.0001 C   0  0  0  0  0  0  0  0  0  0  0  0
   -1.9371   -0.7212    0.0001 C   0  0  0  0  0  0  0  0  0  0  0  0
   -2.1666    0.6684    0.0002 C   0  0  0  0  0  0  0  0  0  0  0  0
    2.6829   -1.5986    0.0001 C   0  0  0  0  0  0  0  0  0  0  0  0
    3.7499    1.0386    0.0000 C   0  0  0  0  0  0  0  0  0  0  0  0
   -3.0289   -1.5939    0.0000 C   0  0  0  0  0  0  0  0  0  0  0  0
    4.0631   -1.3823   -0.0002 C   0  0  0  0  0  0  0  0  0  0  0  0
   -3.4672    1.1735    0.0000 C   0  0  0  0  0  0  0  0  0  0  0  0
    4.5911   -0.0782    0.0000 C   0  0  0  0  0  0  0  0  0  0  0  0
   -4.3299   -1.0857   -0.0002 C   0  0  0  0  0  0  0  0  0  0  0  0
   -4.5481    0.2930   -0.0002 C   0  0  0  0  0  0  0  0  0  0  0  0
    1.4165    2.8736   -0.0002 H   0  0  0  0  0  0  0  0  0  0  0  0
   -0.3796   -2.2979    0.0000 H   0  0  0  0  0  0  0  0  0  0  0  0
    2.2831   -2.6064    0.0002 H   0  0  0  0  0  0  0  0  0  0  0  0
    4.1658    2.0404    0.0000 H   0  0  0  0  0  0  0  0  0  0  0  0
   -2.8816   -2.6711    0.0000 H   0  0  0  0  0  0  0  0  0  0  0  0
   -3.6449    2.2453   -0.0001 H   0  0  0  0  0  0  0  0  0  0  0  0
    4.7404   -2.2324   -0.0003 H   0  0  0  0  0  0  0  0  0  0  0  0
    5.6691    0.0614    0.0000 H   0  0  0  0  0  0  0  0  0  0  0  0
   -5.1762   -1.7670   -0.0003 H   0  0  0  0  0  0  0  0  0  0  0  0
   -5.5629    0.6805   -0.0003 H   0  0  0  0  0  0  0  0  0  0  0  0
  1  4  1  0  0  0  0
  1  9  1  0  0  0  0
  2  3  1  0  0  0  0
  2  4  1  0  0  0  0
  2  7  2  0  0  0  0
  3  5  1  0  0  0  0
  3 10  2  0  0  0  0
  4  6  2  0  0  0  0
  5  6  1  0  0  0  0
  5 11  2  0  0  0  0
  6 18  1  0  0  0  0
  7  8  1  0  0  0  0
  7 19  1  0  0  0  0
  8  9  1  0  0  0  0
  8 12  2  0  0  0  0
  9 14  2  0  0  0  0
 10 13  1  0  0  0  0
 10 20  1  0  0  0  0
 11 15  1  0  0  0  0
 11 21  1  0  0  0  0
 12 16  1  0  0  0  0
 12 22  1  0  0  0  0
 13 15  2  0  0  0  0
 13 24  1  0  0  0  0
 14 17  1  0  0  0  0
 14 23  1  0  0  0  0
 15 25  1  0  0  0  0
 16 17  2  0  0  0  0
 16 26  1  0  0  0  0
 17 27  1  0  0  0  0
M  END
> <PUBCHEM_COMPOUND_CID>
136051

> <PUBCHEM_CONFORMER_RMSD>
0.4

> <PUBCHEM_CONFORMER_DIVERSEORDER>
1

> <PUBCHEM_MMFF94_PARTIAL_CHARGES>
27
1 -0.16
10 -0.15
11 -0.15
12 -0.15
13 -0.15
14 -0.15
15 -0.15
16 -0.15
17 -0.15
18 0.15
19 0.15
2 -0.03
20 0.15
21 0.15
22 0.15
23 0.15
24 0.15
25 0.15
26 0.15
27 0.15
3 0.03
4 0.08
5 0.03
6 -0.18
7 -0.18
8 0.03
9 0.08

> <PUBCHEM_EFFECTIVE_ROTOR_COUNT>
0

> <PUBCHEM_PHARMACOPHORE_FEATURES>
5
1 1 acceptor
5 2 3 4 5 6 rings
6 1 2 4 7 8 9 rings
6 3 5 10 11 13 15 rings
6 8 9 12 14 16 17 rings

> <PUBCHEM_HEAVY_ATOM_COUNT>
17

> <PUBCHEM_ATOM_DEF_STEREO_COUNT>
0

> <PUBCHEM_ATOM_UDEF_STEREO_COUNT>
0

> <PUBCHEM_BOND_DEF_STEREO_COUNT>
0

> <PUBCHEM_BOND_UDEF_STEREO_COUNT>
0

> <PUBCHEM_ISOTOPIC_ATOM_COUNT>
0

> <PUBCHEM_COMPONENT_COUNT>
1

> <PUBCHEM_CACTVS_TAUTO_COUNT>
1

> <PUBCHEM_CONFORMER_ID>
0002137300000001

> <PUBCHEM_MMFF94_ENERGY>
65.7342

> <PUBCHEM_FEATURE_SELFOVERLAP>
25.598

> <PUBCHEM_SHAPE_FINGERPRINT>
10062212 137 18342170072922435439
10608611 8 18410852178836840945
10616163 171 18340771554013923079
10967382 1 18410573989652341638
11132069 177 18410569578541437800
11471102 20 18410290324273757268
11806522 49 18408885161250914558
12032990 46 18410577283691622214
12107183 9 17763183535903187435
13221675 6 18409728465010056891
13288520 33 18412829058052125390
13675066 3 18413105095315266281
13690532 89 18410292497289845097
13862211 1 18410568483325179946
14115302 16 17749400290202991838
14252887 29 17846787291087415110
14866123 147 17047683980912402442
15196674 1 18410573985151451139
15442244 35 18339362963606547984
15536298 74 18341894103988004360
16945 1 18194401314759668484
17804303 29 18412829092353873821
1813 80 17312823770987821460
18186145 218 17676481757011708675
18522853 276 18341894095129148448
19141452 34 18342176683161914679
200 152 18060134358271750727
20510252 161 18200876171316631609
20645477 70 18413108333895194086
21267235 1 18410865360065085602
21421861 104 17752198397145958826
21501925 9 18411132546022829434
221490 88 18263370359170912875
23402539 116 18201431476644666013
23402655 69 18411417293453584773
23463225 33 18410012134714951980
23559900 14 18413385441190624080
2871803 45 18333445430749297310
3004659 81 18260268508790298414
335352 9 18338516309873200349
34934 24 18412256268376069066
3545911 37 18410857667751907949
42 15 18408887334340920454
4214541 1 18410573959656213793
474 4 17241617298082589252
4921388 177 16153719764232880515
5104073 3 18411418414381839120
633830 44 17167865265962212477
69090 78 18341890801037113815
7364860 26 18268992158198451512
77779 3 18410294713498257583
8809292 202 18261115200835480371
9709674 26 18410580603791629966
9981440 41 17327175958016444449

> <PUBCHEM_SHAPE_MULTIPOLES>
343.98
9
1.84
0.61
0.81
0.03
0
-1.49
0
-0.14
0
-0.01
-0.01
0

> <PUBCHEM_SHAPE_SELFOVERLAP>
793.732

> <PUBCHEM_SHAPE_VOLUME>
177.4

> <PUBCHEM_COORDINATE_TYPE>
2
5
10

$$$$
