143570
  -OEChem-11012400363D

 19 19  0     1  0  0  0  0  0999 V2000
    0.0119    2.7321   -0.0036 O   0  0  0  0  0  0  0  0  0  0  0  0
    1.7288    0.2788   -0.5280 O   0  0  0  0  0  0  0  0  0  0  0  0
   -1.7359    0.2910    0.5183 O   0  0  0  0  0  0  0  0  0  0  0  0
    1.2639   -1.8819   -0.4190 O   0  5  0  0  0  0  0  0  0  0  0  0
   -1.2757   -1.8723    0.4397 O   0  5  0  0  0  0  0  0  0  0  0  0
    3.0980   -1.1376    0.6074 O   0  0  0  0  0  0  0  0  0  0  0  0
   -3.0910   -1.1335   -0.6236 O   0  0  0  0  0  0  0  0  0  0  0  0
    2.0719   -1.0218   -0.0666 N   0  3  0  0  0  0  0  0  0  0  0  0
   -2.0754   -1.0136    0.0654 N   0  3  0  0  0  0  0  0  0  0  0  0
    0.3275    0.4779   -0.6729 C   0  0  1  0  0  0  0  0  0  0  0  0
   -0.3365    0.4879    0.6834 C   0  0  1  0  0  0  0  0  0  0  0  0
    0.0843    1.8914   -1.1670 C   0  0  0  0  0  0  0  0  0  0  0  0
   -0.0719    1.9017    1.1667 C   0  0  0  0  0  0  0  0  0  0  0  0
   -0.0754   -0.2146   -1.4201 H   0  0  0  0  0  0  0  0  0  0  0  0
    0.0582   -0.2056    1.4341 H   0  0  0  0  0  0  0  0  0  0  0  0
    0.8772    2.2649   -1.8214 H   0  0  0  0  0  0  0  0  0  0  0  0
   -0.8779    1.9738   -1.6835 H   0  0  0  0  0  0  0  0  0  0  0  0
   -0.8605    2.2903    1.8172 H   0  0  0  0  0  0  0  0  0  0  0  0
    0.8913    1.9742    1.6827 H   0  0  0  0  0  0  0  0  0  0  0  0
  1 12  1  0  0  0  0
  1 13  1  0  0  0  0
  2  8  1  0  0  0  0
  2 10  1  0  0  0  0
  3  9  1  0  0  0  0
  3 11  1  0  0  0  0
  4  8  1  0  0  0  0
  5  9  1  0  0  0  0
  6  8  2  0  0  0  0
  7  9  2  0  0  0  0
 10 11  1  0  0  0  0
 10 12  1  0  0  0  0
 10 14  1  0  0  0  0
 11 13  1  0  0  0  0
 11 15  1  0  0  0  0
 12 16  1  0  0  0  0
 12 17  1  0  0  0  0
 13 18  1  0  0  0  0
 13 19  1  0  0  0  0
M  CHG  4   4  -1   5  -1   8   1   9   1
M  END
> <PUBCHEM_COMPOUND_CID>
143570

> <PUBCHEM_CONFORMER_RMSD>
0.6

> <PUBCHEM_CONFORMER_DIVERSEORDER>
1
11
25
34
9
7
27
26
4
18
5
30
2
17
6
28
3
31
29
33
13
20
16
14
12
15
32
21
23
19
24
8
10
22

> <PUBCHEM_MMFF94_PARTIAL_CHARGES>
13
1 -0.56
10 0.28
11 0.28
12 0.28
13 0.28
2 -0.27
3 -0.27
4 -0.52
5 -0.52
6 -0.52
7 -0.52
8 1.03
9 1.03

> <PUBCHEM_EFFECTIVE_ROTOR_COUNT>
5

> <PUBCHEM_PHARMACOPHORE_FEATURES>
6
1 1 acceptor
1 4 acceptor
1 5 acceptor
1 6 acceptor
1 7 acceptor
5 1 10 11 12 13 rings

> <PUBCHEM_HEAVY_ATOM_COUNT>
13

> <PUBCHEM_ATOM_DEF_STEREO_COUNT>
0

> <PUBCHEM_ATOM_UDEF_STEREO_COUNT>
2

> <PUBCHEM_BOND_DEF_STEREO_COUNT>
0

> <PUBCHEM_BOND_UDEF_STEREO_COUNT>
0

> <PUBCHEM_ISOTOPIC_ATOM_COUNT>
0

> <PUBCHEM_COMPONENT_COUNT>
1

> <PUBCHEM_CACTVS_TAUTO_COUNT>
1

> <PUBCHEM_CONFORMER_ID>
000230D200000001

> <PUBCHEM_MMFF94_ENERGY>
44.0496

> <PUBCHEM_FEATURE_SELFOVERLAP>
30.597

> <PUBCHEM_SHAPE_FINGERPRINT>
1 1 17760931044678998645
12423570 1 9280604761023412381
13024252 1 14564530582581962316
14817 1 15460982706185674028
16945 1 18118975920900992373
18185500 45 18266764482788293207
20645477 70 17769944794450495623
20653085 51 11098149829009261262
20871998 184 17831318111208259296
23419403 2 17981283972380668428
23552423 10 18050576441114681603
81228 2 18193846946134983144

> <PUBCHEM_SHAPE_MULTIPOLES>
216.49
3.11
2.58
1
0
0.86
0
-2.65
0.01
-0.02
-0.01
0
0.42
-0.25

> <PUBCHEM_SHAPE_SELFOVERLAP>
436.835

> <PUBCHEM_SHAPE_VOLUME>
127.4

> <PUBCHEM_COORDINATE_TYPE>
2
5
10

$$$$
