734154
  -OEChem-11012401213D

 23 23  0     0  0  0  0  0  0999 V2000
   -1.2603   -2.0002   -0.3462 O   0  0  0  0  0  0  0  0  0  0  0  0
    4.1097    0.9403    0.6450 O   0  0  0  0  0  0  0  0  0  0  0  0
    3.5941   -0.8489   -0.6731 O   0  0  0  0  0  0  0  0  0  0  0  0
   -0.5642    0.2948   -0.1964 C   0  0  0  0  0  0  0  0  0  0  0  0
   -1.5634   -0.6784   -0.2020 C   0  0  0  0  0  0  0  0  0  0  0  0
   -0.9016    1.6401   -0.0475 C   0  0  0  0  0  0  0  0  0  0  0  0
   -2.9001   -0.3064   -0.0591 C   0  0  0  0  0  0  0  0  0  0  0  0
   -2.2383    2.0121    0.0957 C   0  0  0  0  0  0  0  0  0  0  0  0
    0.8386   -0.0680   -0.3446 C   0  0  0  0  0  0  0  0  0  0  0  0
   -3.2375    1.0389    0.0898 C   0  0  0  0  0  0  0  0  0  0  0  0
    1.8777    0.5967    0.2049 C   0  0  0  0  0  0  0  0  0  0  0  0
   -1.0128   -2.7408    0.8464 C   0  0  0  0  0  0  0  0  0  0  0  0
    3.2580    0.1196   -0.0130 C   0  0  0  0  0  0  0  0  0  0  0  0
   -0.1537    2.4286   -0.0566 H   0  0  0  0  0  0  0  0  0  0  0  0
   -3.6843   -1.0585   -0.0637 H   0  0  0  0  0  0  0  0  0  0  0  0
   -2.5020    3.0598    0.2073 H   0  0  0  0  0  0  0  0  0  0  0  0
    1.0333   -0.9543   -0.9446 H   0  0  0  0  0  0  0  0  0  0  0  0
   -4.2784    1.3287    0.2000 H   0  0  0  0  0  0  0  0  0  0  0  0
    1.7426    1.4728    0.8301 H   0  0  0  0  0  0  0  0  0  0  0  0
   -1.9110   -2.7687    1.4715 H   0  0  0  0  0  0  0  0  0  0  0  0
   -0.1787   -2.3103    1.4091 H   0  0  0  0  0  0  0  0  0  0  0  0
   -0.7518   -3.7647    0.5653 H   0  0  0  0  0  0  0  0  0  0  0  0
    5.0450    0.6665    0.5318 H   0  0  0  0  0  0  0  0  0  0  0  0
  1  5  1  0  0  0  0
  1 12  1  0  0  0  0
  2 13  1  0  0  0  0
  2 23  1  0  0  0  0
  3 13  2  0  0  0  0
  4  5  1  0  0  0  0
  4  6  2  0  0  0  0
  4  9  1  0  0  0  0
  5  7  2  0  0  0  0
  6  8  1  0  0  0  0
  6 14  1  0  0  0  0
  7 10  1  0  0  0  0
  7 15  1  0  0  0  0
  8 10  2  0  0  0  0
  8 16  1  0  0  0  0
  9 11  2  0  0  0  0
  9 17  1  0  0  0  0
 10 18  1  0  0  0  0
 11 13  1  0  0  0  0
 11 19  1  0  0  0  0
 12 20  1  0  0  0  0
 12 21  1  0  0  0  0
 12 22  1  0  0  0  0
M  END
> <PUBCHEM_COMPOUND_CID>
734154

> <PUBCHEM_CONFORMER_RMSD>
0.6

> <PUBCHEM_CONFORMER_DIVERSEORDER>
1
2
4
6
3
5

> <PUBCHEM_MMFF94_PARTIAL_CHARGES>
20
1 -0.36
10 -0.15
11 -0.14
12 0.28
13 0.71
14 0.15
15 0.15
16 0.15
17 0.15
18 0.15
19 0.15
2 -0.65
23 0.5
3 -0.57
4 0.03
5 0.08
6 -0.15
7 -0.15
8 -0.15
9 -0.18

> <PUBCHEM_EFFECTIVE_ROTOR_COUNT>
3

> <PUBCHEM_PHARMACOPHORE_FEATURES>
5
1 1 acceptor
1 2 acceptor
1 3 acceptor
3 2 3 13 anion
6 4 5 6 7 8 10 rings

> <PUBCHEM_HEAVY_ATOM_COUNT>
13

> <PUBCHEM_ATOM_DEF_STEREO_COUNT>
0

> <PUBCHEM_ATOM_UDEF_STEREO_COUNT>
0

> <PUBCHEM_BOND_DEF_STEREO_COUNT>
1

> <PUBCHEM_BOND_UDEF_STEREO_COUNT>
0

> <PUBCHEM_ISOTOPIC_ATOM_COUNT>
0

> <PUBCHEM_COMPONENT_COUNT>
1

> <PUBCHEM_CACTVS_TAUTO_COUNT>
1

> <PUBCHEM_CONFORMER_ID>
000B33CA00000001

> <PUBCHEM_MMFF94_ENERGY>
44.9597

> <PUBCHEM_FEATURE_SELFOVERLAP>
25.427

> <PUBCHEM_SHAPE_FINGERPRINT>
10608611 8 18272366473484646176
12716758 59 18412262835038101994
12932764 1 17385714803656520964
13024252 1 14056998317587770637
13380535 76 18341612581519006630
14144814 61 18408601431495611800
14325111 11 18341049618838919300
15669948 3 18338231665179015390
15775835 57 18337111150939693913
16945 1 18409737287115534597
18186145 218 18199189494820510892
20279233 1 18131071541492320750
20510252 161 18343584018958395289
20528008 55 18343014497551854532
20645464 45 18130793334579702917
20645476 183 17895211994502786886
20645477 56 18410855464708459448
20645477 70 17132122299681209006
20871998 184 18200317744079771975
23402539 116 18342447180149274663
23559900 14 18343580721087727520
257057 1 17620467347836354655
2748010 2 18193287290817116813
305870 269 18118403938873739321
366044 4 18409165481255962489
43471831 8 18261391083939007387
5706482 22 18337665330838863683
6333449 129 18413666915840189597
69090 78 18131063827398838887
7364860 26 17764026870207304063
75552 356 18409166653238754356
81228 2 18265047110282292811
8809292 202 18412549807995074442
9709674 26 18343304777612617830

> <PUBCHEM_SHAPE_MULTIPOLES>
249.93
5.99
2.27
0.73
6.16
1.35
-0.03
-1.56
-0.22
-1.55
-0.44
0.12
0.13
0.3

> <PUBCHEM_SHAPE_SELFOVERLAP>
517.65

> <PUBCHEM_SHAPE_VOLUME>
143.1

> <PUBCHEM_COORDINATE_TYPE>
2
5
10

$$$$
