135974
  -OEChem-11012400493D

 16 17  0     0  0  0  0  0  0999 V2000
   -0.2487    0.0001   -0.0740 C   0  0  0  0  0  0  0  0  0  0  0  0
   -1.6286    0.0001   -0.6376 C   0  0  0  0  0  0  0  0  0  0  0  0
   -1.4200   -0.0002    0.8543 C   0  0  0  0  0  0  0  0  0  0  0  0
    0.7657    1.0712   -0.2040 C   0  0  0  0  0  0  0  0  0  0  0  0
    0.7657   -1.0712   -0.2042 C   0  0  0  0  0  0  0  0  0  0  0  0
    1.7659    0.0000    0.2655 C   0  0  0  0  0  0  0  0  0  0  0  0
   -1.9960   -0.9112   -1.0930 H   0  0  0  0  0  0  0  0  0  0  0  0
   -1.9961    0.9116   -1.0925 H   0  0  0  0  0  0  0  0  0  0  0  0
   -1.6489    0.9111    1.3928 H   0  0  0  0  0  0  0  0  0  0  0  0
   -1.6488   -0.9117    1.3923 H   0  0  0  0  0  0  0  0  0  0  0  0
    0.6750    1.9374    0.4562 H   0  0  0  0  0  0  0  0  0  0  0  0
    0.9244    1.4168   -1.2315 H   0  0  0  0  0  0  0  0  0  0  0  0
    0.9244   -1.4165   -1.2318 H   0  0  0  0  0  0  0  0  0  0  0  0
    0.6749   -1.9376    0.4559 H   0  0  0  0  0  0  0  0  0  0  0  0
    2.7320    0.0001   -0.2469 H   0  0  0  0  0  0  0  0  0  0  0  0
    1.9419   -0.0002    1.3483 H   0  0  0  0  0  0  0  0  0  0  0  0
  1  2  1  0  0  0  0
  1  3  1  0  0  0  0
  1  4  1  0  0  0  0
  1  5  1  0  0  0  0
  2  3  1  0  0  0  0
  2  7  1  0  0  0  0
  2  8  1  0  0  0  0
  3  9  1  0  0  0  0
  3 10  1  0  0  0  0
  4  6  1  0  0  0  0
  4 11  1  0  0  0  0
  4 12  1  0  0  0  0
  5  6  1  0  0  0  0
  5 13  1  0  0  0  0
  5 14  1  0  0  0  0
  6 15  1  0  0  0  0
  6 16  1  0  0  0  0
M  END
> <PUBCHEM_COMPOUND_CID>
135974

> <PUBCHEM_CONFORMER_RMSD>
0.4

> <PUBCHEM_CONFORMER_DIVERSEORDER>
1

> <PUBCHEM_MMFF94_PARTIAL_CHARGES>
9
1 -0.15
10 0.1
2 -0.2
3 -0.2
4 0.08
5 0.08
7 0.1
8 0.1
9 0.1

> <PUBCHEM_EFFECTIVE_ROTOR_COUNT>
1

> <PUBCHEM_PHARMACOPHORE_FEATURES>
1
4 1 4 5 6 rings

> <PUBCHEM_HEAVY_ATOM_COUNT>
6

> <PUBCHEM_ATOM_DEF_STEREO_COUNT>
0

> <PUBCHEM_ATOM_UDEF_STEREO_COUNT>
0

> <PUBCHEM_BOND_DEF_STEREO_COUNT>
0

> <PUBCHEM_BOND_UDEF_STEREO_COUNT>
0

> <PUBCHEM_ISOTOPIC_ATOM_COUNT>
0

> <PUBCHEM_COMPONENT_COUNT>
1

> <PUBCHEM_CACTVS_TAUTO_COUNT>
1

> <PUBCHEM_CONFORMER_ID>
0002132600000001

> <PUBCHEM_MMFF94_ENERGY>
15.655

> <PUBCHEM_FEATURE_SELFOVERLAP>
5.074

> <PUBCHEM_SHAPE_FINGERPRINT>
20096714 4 18270405008848419232
21040471 1 18341332309254185084
24536 1 18408046203740349433
29004967 10 18334019362828359290
5943 1 11442068991533400565

> <PUBCHEM_SHAPE_MULTIPOLES>
123.48
2.12
1
0.83
0.13
0
0.06
0
0.1
-0.29
-0.08
0.25
0
0

> <PUBCHEM_SHAPE_SELFOVERLAP>
250.848

> <PUBCHEM_SHAPE_VOLUME>
76.2

> <PUBCHEM_COORDINATE_TYPE>
2
5
10

$$$$
