144739
  -OEChem-11012401123D

 34 34  0     1  0  0  0  0  0999 V2000
   -1.2086    0.1517    0.4116 O   0  0  0  0  0  0  0  0  0  0  0  0
    0.1640   -1.7724    0.2866 O   0  0  0  0  0  0  0  0  0  0  0  0
    1.5119    0.4821    1.2593 O   0  0  0  0  0  0  0  0  0  0  0  0
    2.1764   -0.1907   -0.9211 O   0  0  0  0  0  0  0  0  0  0  0  0
   -3.7834    2.0077   -0.3319 O   0  5  0  0  0  0  0  0  0  0  0  0
   -1.7381    2.4167   -1.0417 O   0  0  0  0  0  0  0  0  0  0  0  0
   -2.0204   -2.4039   -0.1214 O   0  0  0  0  0  0  0  0  0  0  0  0
   -0.2362    1.8620    1.8785 O   0  0  0  0  0  0  0  0  0  0  0  0
    3.6253    1.5292   -0.3915 O   0  0  0  0  0  0  0  0  0  0  0  0
   -2.6324    1.6462   -0.6433 N   0  3  0  0  0  0  0  0  0  0  0  0
   -0.0959   -0.4837   -0.2588 C   0  0  2  0  0  0  0  0  0  0  0  0
    1.1300    0.4092   -0.1286 C   0  0  0  0  0  0  0  0  0  0  0  0
   -2.2995    0.2230   -0.5129 C   0  0  1  0  0  0  0  0  0  0  0  0
   -0.5277   -0.6521   -1.6778 C   0  0  0  0  0  0  0  0  0  0  0  0
   -1.7855   -0.2372   -1.8188 C   0  0  0  0  0  0  0  0  0  0  0  0
   -0.8934   -2.6385    0.2932 C   0  0  0  0  0  0  0  0  0  0  0  0
    0.6056    1.0105    2.1296 C   0  0  0  0  0  0  0  0  0  0  0  0
    3.3640    0.4777   -0.9599 C   0  0  0  0  0  0  0  0  0  0  0  0
   -0.4748   -3.9472    0.8918 C   0  0  0  0  0  0  0  0  0  0  0  0
    0.7860    0.3831    3.4786 C   0  0  0  0  0  0  0  0  0  0  0  0
    4.3328   -0.2737   -1.8216 C   0  0  0  0  0  0  0  0  0  0  0  0
    0.9381    1.4244   -0.5005 H   0  0  0  0  0  0  0  0  0  0  0  0
   -3.1768   -0.3127   -0.1415 H   0  0  0  0  0  0  0  0  0  0  0  0
    0.0759   -1.0641   -2.4732 H   0  0  0  0  0  0  0  0  0  0  0  0
   -2.3461   -0.2680   -2.7414 H   0  0  0  0  0  0  0  0  0  0  0  0
   -1.3271   -4.6326    0.8973 H   0  0  0  0  0  0  0  0  0  0  0  0
    0.3246   -4.3894    0.2922 H   0  0  0  0  0  0  0  0  0  0  0  0
   -0.1444   -3.7938    1.9221 H   0  0  0  0  0  0  0  0  0  0  0  0
    0.6073   -0.6931    3.4127 H   0  0  0  0  0  0  0  0  0  0  0  0
    1.7938    0.5848    3.8502 H   0  0  0  0  0  0  0  0  0  0  0  0
    0.0641    0.8140    4.1782 H   0  0  0  0  0  0  0  0  0  0  0  0
    4.5058   -1.2687   -1.4041 H   0  0  0  0  0  0  0  0  0  0  0  0
    3.9441   -0.3455   -2.8405 H   0  0  0  0  0  0  0  0  0  0  0  0
    5.2855    0.2629   -1.8490 H   0  0  0  0  0  0  0  0  0  0  0  0
  1 11  1  0  0  0  0
  1 13  1  0  0  0  0
  2 11  1  0  0  0  0
  2 16  1  0  0  0  0
  3 12  1  0  0  0  0
  3 17  1  0  0  0  0
  4 12  1  0  0  0  0
  4 18  1  0  0  0  0
  5 10  1  0  0  0  0
  6 10  2  0  0  0  0
  7 16  2  0  0  0  0
  8 17  2  0  0  0  0
  9 18  2  0  0  0  0
 10 13  1  0  0  0  0
 11 12  1  0  0  0  0
 11 14  1  0  0  0  0
 12 22  1  0  0  0  0
 13 15  1  0  0  0  0
 13 23  1  0  0  0  0
 14 15  2  0  0  0  0
 14 24  1  0  0  0  0
 15 25  1  0  0  0  0
 16 19  1  0  0  0  0
 17 20  1  0  0  0  0
 18 21  1  0  0  0  0
 19 26  1  0  0  0  0
 19 27  1  0  0  0  0
 19 28  1  0  0  0  0
 20 29  1  0  0  0  0
 20 30  1  0  0  0  0
 20 31  1  0  0  0  0
 21 32  1  0  0  0  0
 21 33  1  0  0  0  0
 21 34  1  0  0  0  0
M  CHG  2   5  -1  10   1
M  END
> <PUBCHEM_COMPOUND_CID>
144739

> <PUBCHEM_CONFORMER_RMSD>
0.8

> <PUBCHEM_CONFORMER_DIVERSEORDER>
1
71
67
23
83
32
63
13
97
81
70
104
28
107
120
14
64
112
103
79
35
115
96
110
17
27
91
60
52
47
77
41
66
40
62
78
61
10
100
45
8
72
111
108
6
36
95
76
69
87
18
9
121
46
117
89
114
37
39
86
119
5
38
80
49
59
4
106
16
24
12
57
98
92
109
26
73
48
34
58
99
85
44
56
21
122
29
22
101
33
118
54
55
43
11
31
42
116
105
113
84
15
75
51
82
74
3
65
2
50
88
7
25
94
19
68
20
90
30
93
53
102

> <PUBCHEM_MMFF94_PARTIAL_CHARGES>
23
1 -0.56
10 0.8
11 0.7
12 0.56
13 0.66
14 -0.29
15 -0.29
16 0.66
17 0.66
18 0.66
19 0.06
2 -0.43
20 0.06
21 0.06
24 0.15
25 0.15
3 -0.43
4 -0.43
5 -0.52
6 -0.52
7 -0.57
8 -0.57
9 -0.57

> <PUBCHEM_EFFECTIVE_ROTOR_COUNT>
8.6

> <PUBCHEM_PHARMACOPHORE_FEATURES>
8
1 1 acceptor
1 5 acceptor
1 5 anion
1 6 acceptor
1 7 acceptor
1 8 acceptor
1 9 acceptor
5 1 11 13 14 15 rings

> <PUBCHEM_HEAVY_ATOM_COUNT>
21

> <PUBCHEM_ATOM_DEF_STEREO_COUNT>
0

> <PUBCHEM_ATOM_UDEF_STEREO_COUNT>
2

> <PUBCHEM_BOND_DEF_STEREO_COUNT>
0

> <PUBCHEM_BOND_UDEF_STEREO_COUNT>
0

> <PUBCHEM_ISOTOPIC_ATOM_COUNT>
0

> <PUBCHEM_COMPONENT_COUNT>
1

> <PUBCHEM_CACTVS_TAUTO_COUNT>
2

> <PUBCHEM_CONFORMER_ID>
0002356300000001

> <PUBCHEM_MMFF94_ENERGY>
49.8776

> <PUBCHEM_FEATURE_SELFOVERLAP>
40.714

> <PUBCHEM_SHAPE_FINGERPRINT>
12173636 292 18334012804423822310
12592029 89 17898580769587280506
12716301 132 18267003111403504523
13294875 104 17698126635673761257
13898156 1 17171202339539588962
14022347 108 17828748875021152115
14181834 199 17190052113657086319
14817 1 11226384916547429802
16945 1 18189340241304598174
19765921 60 18270118994106964735
20511035 2 17187812369911975237
20600515 1 17180204183175879055
22802520 49 18055067920112539580
23352939 185 17474983254861917212
23419403 2 17488465354635114627
23526113 38 17916861434720534202
23557571 272 17903068173030049932
23559900 14 18202003210375809358
2748010 2 17548961708450759063
298252 57 18041287577656781612
394222 165 17909843028466936057
430814 3 17385438795724746072
5845 1 15826861023130036455
68419 9 17098302541127656298
6992083 37 16813425533732965368
81228 2 18051393361137826479

> <PUBCHEM_SHAPE_MULTIPOLES>
374.37
4.87
3.02
2.43
4.39
2.71
-2.2
-2.04
3.45
-2.56
-0.81
0.97
-0.69
0.82

> <PUBCHEM_SHAPE_SELFOVERLAP>
777.486

> <PUBCHEM_SHAPE_VOLUME>
209.8

> <PUBCHEM_COORDINATE_TYPE>
2
5
10

$$$$
