5463338
  -OEChem-11012401163D

 19 19  0     0  0  0  0  0  0999 V2000
    1.0621   -0.0403    0.5775 C   0  0  0  0  0  0  0  0  0  0  0  0
    2.1374    0.3569   -0.3644 C   0  0  0  0  0  0  0  0  0  0  0  0
    1.7731   -1.0889   -0.1951 C   0  0  0  0  0  0  0  0  0  0  0  0
   -0.3419    0.2686    0.1920 C   0  0  0  0  0  0  0  0  0  0  0  0
   -0.6075    1.7250   -0.0898 C   0  0  0  0  0  0  0  0  0  0  0  0
   -1.2942   -0.6849    0.1356 C   0  0  0  0  0  0  0  0  0  0  0  0
   -2.7289   -0.5365   -0.2558 C   0  0  0  0  0  0  0  0  0  0  0  0
    1.2687    0.0335    1.6392 H   0  0  0  0  0  0  0  0  0  0  0  0
    3.0798    0.6897    0.0547 H   0  0  0  0  0  0  0  0  0  0  0  0
    1.8905    0.8210   -1.3116 H   0  0  0  0  0  0  0  0  0  0  0  0
    1.2856   -1.5772   -1.0305 H   0  0  0  0  0  0  0  0  0  0  0  0
    2.4716   -1.7238    0.3373 H   0  0  0  0  0  0  0  0  0  0  0  0
   -1.6509    2.0028    0.0825 H   0  0  0  0  0  0  0  0  0  0  0  0
   -0.0075    2.3603    0.5716 H   0  0  0  0  0  0  0  0  0  0  0  0
   -0.3498    1.9670   -1.1257 H   0  0  0  0  0  0  0  0  0  0  0  0
   -1.0079   -1.7045    0.3906 H   0  0  0  0  0  0  0  0  0  0  0  0
   -2.9665    0.4458   -0.6701 H   0  0  0  0  0  0  0  0  0  0  0  0
   -2.9772   -1.2802   -1.0199 H   0  0  0  0  0  0  0  0  0  0  0  0
   -3.3718   -0.7126    0.6118 H   0  0  0  0  0  0  0  0  0  0  0  0
  1  2  1  0  0  0  0
  1  3  1  0  0  0  0
  1  4  1  0  0  0  0
  1  8  1  0  0  0  0
  2  3  1  0  0  0  0
  2  9  1  0  0  0  0
  2 10  1  0  0  0  0
  3 11  1  0  0  0  0
  3 12  1  0  0  0  0
  4  5  1  0  0  0  0
  4  6  2  0  0  0  0
  5 13  1  0  0  0  0
  5 14  1  0  0  0  0
  5 15  1  0  0  0  0
  6  7  1  0  0  0  0
  6 16  1  0  0  0  0
  7 17  1  0  0  0  0
  7 18  1  0  0  0  0
  7 19  1  0  0  0  0
M  END
> <PUBCHEM_COMPOUND_CID>
5463338

> <PUBCHEM_CONFORMER_RMSD>
0.4

> <PUBCHEM_CONFORMER_DIVERSEORDER>
1
2
4
3
5

> <PUBCHEM_MMFF94_PARTIAL_CHARGES>
13
1 -0.06
10 0.1
11 0.1
12 0.1
16 0.15
2 -0.2
3 -0.2
4 -0.18
5 0.14
6 -0.29
7 0.14
8 0.1
9 0.1

> <PUBCHEM_EFFECTIVE_ROTOR_COUNT>
1.6

> <PUBCHEM_PHARMACOPHORE_FEATURES>
2
1 5 hydrophobe
1 7 hydrophobe

> <PUBCHEM_HEAVY_ATOM_COUNT>
7

> <PUBCHEM_ATOM_DEF_STEREO_COUNT>
0

> <PUBCHEM_ATOM_UDEF_STEREO_COUNT>
0

> <PUBCHEM_BOND_DEF_STEREO_COUNT>
1

> <PUBCHEM_BOND_UDEF_STEREO_COUNT>
0

> <PUBCHEM_ISOTOPIC_ATOM_COUNT>
0

> <PUBCHEM_COMPONENT_COUNT>
1

> <PUBCHEM_CACTVS_TAUTO_COUNT>
1

> <PUBCHEM_CONFORMER_ID>
00535D2A00000001

> <PUBCHEM_MMFF94_ENERGY>
11.3248

> <PUBCHEM_FEATURE_SELFOVERLAP>
10.149

> <PUBCHEM_SHAPE_FINGERPRINT>
12897270 3 18409173233360708590
14390081 3 11819264568941498615
16714656 1 18412266125162437655
18185500 45 18340205305398530543
21040471 1 17689711965733250040
23552423 10 18189338969983741858
24536 1 18265602204777465836
29004967 10 18337956795614066779
5460574 1 8862951575688237875

> <PUBCHEM_SHAPE_MULTIPOLES>
144.06
3.25
1.35
0.71
0.89
0.49
-0.02
-0.9
0.47
0.12
0.08
-0.07
0
-0.01

> <PUBCHEM_SHAPE_SELFOVERLAP>
272.263

> <PUBCHEM_SHAPE_VOLUME>
92.1

> <PUBCHEM_COORDINATE_TYPE>
2
5
10

$$$$
