143616
  -OEChem-11012400523D

 66 69  0     0  0  0  0  0  0999 V2000
   -0.1897    0.7537    0.0000 C   0  0  0  0  0  0  0  0  0  0  0  0
    0.1897   -0.7537    0.0000 C   0  0  0  0  0  0  0  0  0  0  0  0
   -1.0593    0.9889   -1.2816 C   0  0  0  0  0  0  0  0  0  0  0  0
   -1.0592    0.9890    1.2815 C   0  0  0  0  0  0  0  0  0  0  0  0
    1.0593   -0.9889   -1.2816 C   0  0  0  0  0  0  0  0  0  0  0  0
    1.0593   -0.9889    1.2815 C   0  0  0  0  0  0  0  0  0  0  0  0
    1.1553    1.5180    0.0000 C   0  0  0  0  0  0  0  0  0  0  0  0
   -1.1552   -1.5180    0.0000 C   0  0  0  0  0  0  0  0  0  0  0  0
   -1.4800    2.4376   -1.5640 C   0  0  0  0  0  0  0  0  0  0  0  0
   -1.4798    2.4378    1.5640 C   0  0  0  0  0  0  0  0  0  0  0  0
    1.4800   -2.4377   -1.5641 C   0  0  0  0  0  0  0  0  0  0  0  0
    1.4797   -2.4377    1.5641 C   0  0  0  0  0  0  0  0  0  0  0  0
   -2.9516    2.7561   -1.2963 C   0  0  0  0  0  0  0  0  0  0  0  0
   -2.9512    2.7569    1.2962 C   0  0  0  0  0  0  0  0  0  0  0  0
    2.9516   -2.7561   -1.2963 C   0  0  0  0  0  0  0  0  0  0  0  0
    2.9512   -2.7569    1.2962 C   0  0  0  0  0  0  0  0  0  0  0  0
   -3.5649    2.2352    0.0002 C   0  0  0  0  0  0  0  0  0  0  0  0
    3.5649   -2.2352    0.0003 C   0  0  0  0  0  0  0  0  0  0  0  0
    1.7914    1.7906   -1.2055 C   0  0  0  0  0  0  0  0  0  0  0  0
   -1.7914   -1.7906   -1.2054 C   0  0  0  0  0  0  0  0  0  0  0  0
    1.7152    1.9247    1.2055 C   0  0  0  0  0  0  0  0  0  0  0  0
   -1.7151   -1.9247    1.2054 C   0  0  0  0  0  0  0  0  0  0  0  0
    3.0044    2.4794   -1.2056 C   0  0  0  0  0  0  0  0  0  0  0  0
   -3.0044   -2.4794   -1.2056 C   0  0  0  0  0  0  0  0  0  0  0  0
    2.9280    2.6137    1.2055 C   0  0  0  0  0  0  0  0  0  0  0  0
   -2.9280   -2.6136    1.2055 C   0  0  0  0  0  0  0  0  0  0  0  0
    3.5726    2.8909    0.0000 C   0  0  0  0  0  0  0  0  0  0  0  0
   -3.5726   -2.8909    0.0000 C   0  0  0  0  0  0  0  0  0  0  0  0
   -2.0065    0.4605   -1.2384 H   0  0  0  0  0  0  0  0  0  0  0  0
   -0.5874    0.6856   -2.2131 H   0  0  0  0  0  0  0  0  0  0  0  0
   -0.5827    0.6857    2.2110 H   0  0  0  0  0  0  0  0  0  0  0  0
   -1.9942    0.4321    1.2502 H   0  0  0  0  0  0  0  0  0  0  0  0
    2.0066   -0.4606   -1.2384 H   0  0  0  0  0  0  0  0  0  0  0  0
    0.5875   -0.6856   -2.2131 H   0  0  0  0  0  0  0  0  0  0  0  0
    0.5827   -0.6856    2.2111 H   0  0  0  0  0  0  0  0  0  0  0  0
    1.9943   -0.4320    1.2503 H   0  0  0  0  0  0  0  0  0  0  0  0
   -1.3055    2.6443   -2.6296 H   0  0  0  0  0  0  0  0  0  0  0  0
   -0.8411    3.1570   -1.0460 H   0  0  0  0  0  0  0  0  0  0  0  0
   -0.8453    3.1594    1.0440 H   0  0  0  0  0  0  0  0  0  0  0  0
   -1.3051    2.6451    2.6294 H   0  0  0  0  0  0  0  0  0  0  0  0
    1.3054   -2.6443   -2.6296 H   0  0  0  0  0  0  0  0  0  0  0  0
    0.8411   -3.1570   -1.0460 H   0  0  0  0  0  0  0  0  0  0  0  0
    0.8453   -3.1593    1.0440 H   0  0  0  0  0  0  0  0  0  0  0  0
    1.3051   -2.6451    2.6295 H   0  0  0  0  0  0  0  0  0  0  0  0
   -3.5422    2.3455   -2.1260 H   0  0  0  0  0  0  0  0  0  0  0  0
   -3.0854    3.8441   -1.3467 H   0  0  0  0  0  0  0  0  0  0  0  0
   -3.0849    3.8449    1.3461 H   0  0  0  0  0  0  0  0  0  0  0  0
   -3.5417    2.3466    2.1262 H   0  0  0  0  0  0  0  0  0  0  0  0
    3.5423   -2.3454   -2.1260 H   0  0  0  0  0  0  0  0  0  0  0  0
    3.0855   -3.8440   -1.3467 H   0  0  0  0  0  0  0  0  0  0  0  0
    3.0849   -3.8449    1.3461 H   0  0  0  0  0  0  0  0  0  0  0  0
    3.5417   -2.3468    2.1263 H   0  0  0  0  0  0  0  0  0  0  0  0
   -4.6202    2.5414    0.0002 H   0  0  0  0  0  0  0  0  0  0  0  0
   -3.6022    1.1418    0.0020 H   0  0  0  0  0  0  0  0  0  0  0  0
    4.6202   -2.5415    0.0003 H   0  0  0  0  0  0  0  0  0  0  0  0
    3.6023   -1.1418    0.0021 H   0  0  0  0  0  0  0  0  0  0  0  0
    1.3781    1.5281   -2.1728 H   0  0  0  0  0  0  0  0  0  0  0  0
   -1.3780   -1.5281   -2.1727 H   0  0  0  0  0  0  0  0  0  0  0  0
    1.2578    1.7378    2.1699 H   0  0  0  0  0  0  0  0  0  0  0  0
   -1.2577   -1.7378    2.1698 H   0  0  0  0  0  0  0  0  0  0  0  0
    3.5028    2.7028   -2.1444 H   0  0  0  0  0  0  0  0  0  0  0  0
   -3.5028   -2.7027   -2.1444 H   0  0  0  0  0  0  0  0  0  0  0  0
    3.3708    2.9349    2.1438 H   0  0  0  0  0  0  0  0  0  0  0  0
   -3.3708   -2.9349    2.1438 H   0  0  0  0  0  0  0  0  0  0  0  0
    4.5161    3.4288   -0.0001 H   0  0  0  0  0  0  0  0  0  0  0  0
   -4.5161   -3.4289   -0.0001 H   0  0  0  0  0  0  0  0  0  0  0  0
  1  2  1  0  0  0  0
  1  3  1  0  0  0  0
  1  4  1  0  0  0  0
  1  7  1  0  0  0  0
  2  5  1  0  0  0  0
  2  6  1  0  0  0  0
  2  8  1  0  0  0  0
  3  9  1  0  0  0  0
  3 29  1  0  0  0  0
  3 30  1  0  0  0  0
  4 10  1  0  0  0  0
  4 31  1  0  0  0  0
  4 32  1  0  0  0  0
  5 11  1  0  0  0  0
  5 33  1  0  0  0  0
  5 34  1  0  0  0  0
  6 12  1  0  0  0  0
  6 35  1  0  0  0  0
  6 36  1  0  0  0  0
  7 19  2  0  0  0  0
  7 21  1  0  0  0  0
  8 20  2  0  0  0  0
  8 22  1  0  0  0  0
  9 13  1  0  0  0  0
  9 37  1  0  0  0  0
  9 38  1  0  0  0  0
 10 14  1  0  0  0  0
 10 39  1  0  0  0  0
 10 40  1  0  0  0  0
 11 15  1  0  0  0  0
 11 41  1  0  0  0  0
 11 42  1  0  0  0  0
 12 16  1  0  0  0  0
 12 43  1  0  0  0  0
 12 44  1  0  0  0  0
 13 17  1  0  0  0  0
 13 45  1  0  0  0  0
 13 46  1  0  0  0  0
 14 17  1  0  0  0  0
 14 47  1  0  0  0  0
 14 48  1  0  0  0  0
 15 18  1  0  0  0  0
 15 49  1  0  0  0  0
 15 50  1  0  0  0  0
 16 18  1  0  0  0  0
 16 51  1  0  0  0  0
 16 52  1  0  0  0  0
 17 53  1  0  0  0  0
 17 54  1  0  0  0  0
 18 55  1  0  0  0  0
 18 56  1  0  0  0  0
 19 23  1  0  0  0  0
 19 57  1  0  0  0  0
 20 24  1  0  0  0  0
 20 58  1  0  0  0  0
 21 25  2  0  0  0  0
 21 59  1  0  0  0  0
 22 26  2  0  0  0  0
 22 60  1  0  0  0  0
 23 27  2  0  0  0  0
 23 61  1  0  0  0  0
 24 28  2  0  0  0  0
 24 62  1  0  0  0  0
 25 27  1  0  0  0  0
 25 63  1  0  0  0  0
 26 28  1  0  0  0  0
 26 64  1  0  0  0  0
 27 65  1  0  0  0  0
 28 66  1  0  0  0  0
M  END
> <PUBCHEM_COMPOUND_CID>
143616

> <PUBCHEM_CONFORMER_RMSD>
0.8

> <PUBCHEM_CONFORMER_DIVERSEORDER>
1
2
3

> <PUBCHEM_MMFF94_PARTIAL_CHARGES>
24
1 0.14
19 -0.15
2 0.14
20 -0.15
21 -0.15
22 -0.15
23 -0.15
24 -0.15
25 -0.15
26 -0.15
27 -0.15
28 -0.15
57 0.15
58 0.15
59 0.15
60 0.15
61 0.15
62 0.15
63 0.15
64 0.15
65 0.15
66 0.15
7 -0.14
8 -0.14

> <PUBCHEM_EFFECTIVE_ROTOR_COUNT>
6.2

> <PUBCHEM_PHARMACOPHORE_FEATURES>
2
6 7 19 21 23 25 27 rings
6 8 20 22 24 26 28 rings

> <PUBCHEM_HEAVY_ATOM_COUNT>
28

> <PUBCHEM_ATOM_DEF_STEREO_COUNT>
0

> <PUBCHEM_ATOM_UDEF_STEREO_COUNT>
0

> <PUBCHEM_BOND_DEF_STEREO_COUNT>
0

> <PUBCHEM_BOND_UDEF_STEREO_COUNT>
0

> <PUBCHEM_ISOTOPIC_ATOM_COUNT>
0

> <PUBCHEM_COMPONENT_COUNT>
1

> <PUBCHEM_CACTVS_TAUTO_COUNT>
1

> <PUBCHEM_CONFORMER_ID>
0002310000000001

> <PUBCHEM_MMFF94_ENERGY>
155.5899

> <PUBCHEM_FEATURE_SELFOVERLAP>
10.149

> <PUBCHEM_SHAPE_FINGERPRINT>
10006869 2 18342188769479142633
10190108 129 17972633079565419115
104564 63 18194682794516870489
10930396 42 17541339520875965202
1100329 8 18266740177563025737
11578080 2 17749096773490977134
12035758 1 18194682557755294288
12788726 201 17905613550906949704
13140716 1 18410856542459920585
13149001 5 18267022747788052006
133893 2 17967252022714979810
13583140 156 17751657467415699035
13911987 19 17686344165943735222
13965767 371 17481198622685323547
14223421 5 18409729598902528674
14790565 3 17762620582183007356
14955137 171 17837226878232587225
15420108 30 17701268155385931207
15513586 35 14520984596794890031
16752209 62 18120648299794070624
16945 1 17834677471291637762
20028762 73 16970840766726098918
20600515 1 17910666567145272002
20691752 17 17971214730913868730
20905425 154 18340206404952376030
21330990 113 17984435297444393001
21421861 104 18339093673426014051
23419403 2 16966961341831079088
23558518 356 18335703866187026849
238 59 17829317005016278333
266924 87 18264202685141333164
283562 15 18122064470538498616
3027735 51 18265337394147471128
3178227 256 17975698290873078889
3380486 77 17469579838132115106
350125 39 18339651126132304980
469060 322 17972044901354246601
70251023 43 18412828009812002255
81228 2 17979374262443736985
9981440 41 17555692755390642232

> <PUBCHEM_SHAPE_MULTIPOLES>
576.23
5.95
5.27
1.86
0
0
0
0
-0.06
0
0.1
0
0
0.03

> <PUBCHEM_SHAPE_SELFOVERLAP>
1223.388

> <PUBCHEM_SHAPE_VOLUME>
307.2

> <PUBCHEM_COORDINATE_TYPE>
2
5
10

$$$$
