1268245
  -OEChem-11012401113D

 26 27  0     0  0  0  0  0  0999 V2000
    3.7455    1.2601   -0.0425 O   0  0  0  0  0  0  0  0  0  0  0  0
   -3.7455    1.2601    0.0431 O   0  0  0  0  0  0  0  0  0  0  0  0
    0.0000   -2.2105   -0.0004 O   0  0  0  0  0  0  0  0  0  0  0  0
    3.6928   -0.0866   -0.0048 C   0  0  0  0  0  0  0  0  0  0  0  0
   -3.6928   -0.0867    0.0048 C   0  0  0  0  0  0  0  0  0  0  0  0
    2.4416   -0.7865   -0.0091 C   0  0  0  0  0  0  0  0  0  0  0  0
   -2.4417   -0.7867    0.0097 C   0  0  0  0  0  0  0  0  0  0  0  0
    4.9365   -0.6442    0.0374 C   0  0  0  0  0  0  0  0  0  0  0  0
   -4.9366   -0.6441   -0.0387 C   0  0  0  0  0  0  0  0  0  0  0  0
    1.2488   -0.1723   -0.0122 C   0  0  0  0  0  0  0  0  0  0  0  0
   -1.2489   -0.1724    0.0137 C   0  0  0  0  0  0  0  0  0  0  0  0
    0.0000   -0.9856    0.0007 C   0  0  0  0  0  0  0  0  0  0  0  0
    5.8393    0.4457    0.0250 C   0  0  0  0  0  0  0  0  0  0  0  0
   -5.8393    0.4458   -0.0264 C   0  0  0  0  0  0  0  0  0  0  0  0
    5.0657    1.5819   -0.0239 C   0  0  0  0  0  0  0  0  0  0  0  0
   -5.0656    1.5820    0.0236 C   0  0  0  0  0  0  0  0  0  0  0  0
    2.4939   -1.8725    0.0002 H   0  0  0  0  0  0  0  0  0  0  0  0
   -2.4939   -1.8727    0.0001 H   0  0  0  0  0  0  0  0  0  0  0  0
    5.1832   -1.6962    0.0733 H   0  0  0  0  0  0  0  0  0  0  0  0
   -5.1835   -1.6960   -0.0753 H   0  0  0  0  0  0  0  0  0  0  0  0
    1.1608    0.9091   -0.0167 H   0  0  0  0  0  0  0  0  0  0  0  0
   -1.1610    0.9090    0.0186 H   0  0  0  0  0  0  0  0  0  0  0  0
    6.9188    0.4079    0.0489 H   0  0  0  0  0  0  0  0  0  0  0  0
   -6.9187    0.4081   -0.0511 H   0  0  0  0  0  0  0  0  0  0  0  0
    5.2896    2.6384   -0.0495 H   0  0  0  0  0  0  0  0  0  0  0  0
   -5.2895    2.6384    0.0497 H   0  0  0  0  0  0  0  0  0  0  0  0
  1  4  1  0  0  0  0
  1 15  1  0  0  0  0
  2  5  1  0  0  0  0
  2 16  1  0  0  0  0
  3 12  2  0  0  0  0
  4  6  1  0  0  0  0
  4  8  2  0  0  0  0
  5  7  1  0  0  0  0
  5  9  2  0  0  0  0
  6 10  2  0  0  0  0
  6 17  1  0  0  0  0
  7 11  2  0  0  0  0
  7 18  1  0  0  0  0
  8 13  1  0  0  0  0
  8 19  1  0  0  0  0
  9 14  1  0  0  0  0
  9 20  1  0  0  0  0
 10 12  1  0  0  0  0
 10 21  1  0  0  0  0
 11 12  1  0  0  0  0
 11 22  1  0  0  0  0
 13 15  2  0  0  0  0
 13 23  1  0  0  0  0
 14 16  2  0  0  0  0
 14 24  1  0  0  0  0
 15 25  1  0  0  0  0
 16 26  1  0  0  0  0
M  END
> <PUBCHEM_COMPOUND_CID>
1268245

> <PUBCHEM_CONFORMER_RMSD>
0.6

> <PUBCHEM_CONFORMER_DIVERSEORDER>
1
32
28
8
29
3
26
5
17
4
31
12
24
13
27
30
2
25
20
18
23
9
22
33
7
10
15
6
19
11
16
21
14

> <PUBCHEM_MMFF94_PARTIAL_CHARGES>
26
1 -0.28
10 -0.14
11 -0.14
12 0.54
13 -0.15
14 -0.15
15 -0.01
16 -0.01
17 0.15
18 0.15
19 0.15
2 -0.28
20 0.15
21 0.15
22 0.15
23 0.15
24 0.15
25 0.15
26 0.15
3 -0.57
4 0.09
5 0.09
6 -0.11
7 -0.11
8 -0.15
9 -0.15

> <PUBCHEM_EFFECTIVE_ROTOR_COUNT>
4

> <PUBCHEM_PHARMACOPHORE_FEATURES>
5
1 1 acceptor
1 2 acceptor
1 3 acceptor
5 1 4 8 13 15 rings
5 2 5 9 14 16 rings

> <PUBCHEM_HEAVY_ATOM_COUNT>
16

> <PUBCHEM_ATOM_DEF_STEREO_COUNT>
0

> <PUBCHEM_ATOM_UDEF_STEREO_COUNT>
0

> <PUBCHEM_BOND_DEF_STEREO_COUNT>
2

> <PUBCHEM_BOND_UDEF_STEREO_COUNT>
0

> <PUBCHEM_ISOTOPIC_ATOM_COUNT>
0

> <PUBCHEM_COMPONENT_COUNT>
1

> <PUBCHEM_CACTVS_TAUTO_COUNT>
1

> <PUBCHEM_CONFORMER_ID>
00135A1500000001

> <PUBCHEM_MMFF94_ENERGY>
21.7022

> <PUBCHEM_FEATURE_SELFOVERLAP>
25.373

> <PUBCHEM_SHAPE_FINGERPRINT>
100836 57 18410577287991857772
10354089 29 17821449062652166352
11089746 13 18411694409460281562
11128504 68 14620791626149291448
11287383 113 18412829100701241315
117890 112 18411981369041806856
12107183 9 17616529562651891227
12507557 5 17748830735159464685
12555020 224 9511169713213012665
12596602 18 16443350904849681536
12714333 28 17275384304734598322
12916748 109 18412550902768506386
13167372 99 18339643343577906680
13288520 33 9439401333460796659
13533116 47 17241037709451977522
13740256 8 9295280647294058399
13785724 45 17761206618941331570
14251718 22 18202844374745456871
14251764 18 18259980484114756650
14528608 73 18342455954203003150
14933364 13 18410578383198007712
15048467 5 18410573985151672005
15188451 53 15141257584841076657
15778101 99 18342743966990558281
17834072 33 18201998849950204359
187816 3 16343705438820888690
19489759 90 17385724699340162281
200 152 8358260341144549431
20281389 69 18260545610704376613
20374829 77 10159701282940548911
20645477 56 18409731768193471895
20645477 70 17489034755993872974
20767249 213 18410011039999386333
212847 35 18412824699045402904
23035841 295 10159701295804436397
23272321 79 18409730690182781493
23402539 116 18272645770527484878
23402655 69 18060136535466845918
23536379 177 18411418397365642426
23559900 14 9222933847792318759
26918003 58 12251902594655970903
2767999 5 18410570690917076229
2916195 48 18412541041571243088
293599 30 18412263943203110642
29717793 49 16988572282062257628
314194 84 8358248246347916601
34797466 226 17489315221231035125
351380 180 18410575093395672176
3545911 37 18411703187893581558
4073 2 17968383446098017330
42788 4 18410855460128194279
4325135 7 18272930549135938567
441001 317 18412265017493573993
465052 167 11025798682847228024
49783359 22 11241973689659170881
5104073 3 18115031784383382779
542803 24 18410854360616566503
54446538 1 18410854360616943264
59682541 35 18261684757424127323
59755656 520 18113614603509938434
7062679 6 18408610253131922413
8272917 22 18412545371600358670

> <PUBCHEM_SHAPE_MULTIPOLES>
311.66
15.83
1.54
0.6
0
0.06
0
6.24
0
0
0
0
0
-0.05

> <PUBCHEM_SHAPE_SELFOVERLAP>
668.67

> <PUBCHEM_SHAPE_VOLUME>
173.3

> <PUBCHEM_COORDINATE_TYPE>
2
5
10

$$$$
