71366123
  -OEChem-10312420092D

 68 67  0     0  0  0  0  0  0999 V2000
    6.3301    3.3170    0.0000 Si  0  0  0  0  0  0  0  0  0  0  0  0
    7.1962    3.8170    0.0000 C   0  0  0  0  0  0  0  0  0  0  0  0
    5.4641    2.8170    0.0000 C   0  0  0  0  0  0  0  0  0  0  0  0
    8.0622    3.3170    0.0000 C   0  0  0  0  0  0  0  0  0  0  0  0
    5.4641    1.8170    0.0000 C   0  0  0  0  0  0  0  0  0  0  0  0
    8.9282    3.8170    0.0000 C   0  0  0  0  0  0  0  0  0  0  0  0
    4.5981    1.3170    0.0000 C   0  0  0  0  0  0  0  0  0  0  0  0
    9.7942    3.3170    0.0000 C   0  0  0  0  0  0  0  0  0  0  0  0
    4.5981    0.3170    0.0000 C   0  0  0  0  0  0  0  0  0  0  0  0
    5.8301    4.1830    0.0000 C   0  0  0  0  0  0  0  0  0  0  0  0
   10.6603    3.8170    0.0000 C   0  0  0  0  0  0  0  0  0  0  0  0
    3.7320   -0.1830    0.0000 C   0  0  0  0  0  0  0  0  0  0  0  0
   11.5263    3.3170    0.0000 C   0  0  0  0  0  0  0  0  0  0  0  0
    3.7320   -1.1830    0.0000 C   0  0  0  0  0  0  0  0  0  0  0  0
   12.3923    3.8170    0.0000 C   0  0  0  0  0  0  0  0  0  0  0  0
    2.8660   -1.6830    0.0000 C   0  0  0  0  0  0  0  0  0  0  0  0
   13.2583    3.3170    0.0000 C   0  0  0  0  0  0  0  0  0  0  0  0
    2.8660   -2.6830    0.0000 C   0  0  0  0  0  0  0  0  0  0  0  0
   14.1244    3.8170    0.0000 C   0  0  0  0  0  0  0  0  0  0  0  0
    2.0000   -3.1830    0.0000 C   0  0  0  0  0  0  0  0  0  0  0  0
   14.9904    3.3170    0.0000 C   0  0  0  0  0  0  0  0  0  0  0  0
    2.0000   -4.1830    0.0000 C   0  0  0  0  0  0  0  0  0  0  0  0
    6.6401    2.7800    0.0000 H   0  0  0  0  0  0  0  0  0  0  0  0
    7.5947    4.2919    0.0000 H   0  0  0  0  0  0  0  0  0  0  0  0
    6.7976    4.2919    0.0000 H   0  0  0  0  0  0  0  0  0  0  0  0
    5.2520    3.3996    0.0000 H   0  0  0  0  0  0  0  0  0  0  0  0
    4.8535    2.7093    0.0000 H   0  0  0  0  0  0  0  0  0  0  0  0
    7.6636    2.8420    0.0000 H   0  0  0  0  0  0  0  0  0  0  0  0
    8.4607    2.8420    0.0000 H   0  0  0  0  0  0  0  0  0  0  0  0
    5.6762    1.2344    0.0000 H   0  0  0  0  0  0  0  0  0  0  0  0
    6.0747    1.9246    0.0000 H   0  0  0  0  0  0  0  0  0  0  0  0
    9.3267    4.2919    0.0000 H   0  0  0  0  0  0  0  0  0  0  0  0
    8.5297    4.2919    0.0000 H   0  0  0  0  0  0  0  0  0  0  0  0
    4.3860    1.8996    0.0000 H   0  0  0  0  0  0  0  0  0  0  0  0
    3.9875    1.2093    0.0000 H   0  0  0  0  0  0  0  0  0  0  0  0
    9.3957    2.8420    0.0000 H   0  0  0  0  0  0  0  0  0  0  0  0
   10.1928    2.8420    0.0000 H   0  0  0  0  0  0  0  0  0  0  0  0
    4.8101   -0.2656    0.0000 H   0  0  0  0  0  0  0  0  0  0  0  0
    5.2087    0.4246    0.0000 H   0  0  0  0  0  0  0  0  0  0  0  0
    6.3671    4.4930    0.0000 H   0  0  0  0  0  0  0  0  0  0  0  0
    5.5201    4.7200    0.0000 H   0  0  0  0  0  0  0  0  0  0  0  0
    5.2932    3.8730    0.0000 H   0  0  0  0  0  0  0  0  0  0  0  0
   11.0588    4.2919    0.0000 H   0  0  0  0  0  0  0  0  0  0  0  0
   10.2617    4.2919    0.0000 H   0  0  0  0  0  0  0  0  0  0  0  0
    3.5200    0.3996    0.0000 H   0  0  0  0  0  0  0  0  0  0  0  0
    3.1215   -0.2907    0.0000 H   0  0  0  0  0  0  0  0  0  0  0  0
   11.1278    2.8420    0.0000 H   0  0  0  0  0  0  0  0  0  0  0  0
   11.9248    2.8420    0.0000 H   0  0  0  0  0  0  0  0  0  0  0  0
    3.9441   -1.7656    0.0000 H   0  0  0  0  0  0  0  0  0  0  0  0
    4.3426   -1.0754    0.0000 H   0  0  0  0  0  0  0  0  0  0  0  0
   12.7908    4.2919    0.0000 H   0  0  0  0  0  0  0  0  0  0  0  0
   11.9938    4.2919    0.0000 H   0  0  0  0  0  0  0  0  0  0  0  0
    2.6540   -1.1004    0.0000 H   0  0  0  0  0  0  0  0  0  0  0  0
    2.2554   -1.7907    0.0000 H   0  0  0  0  0  0  0  0  0  0  0  0
   12.8598    2.8420    0.0000 H   0  0  0  0  0  0  0  0  0  0  0  0
   13.6569    2.8420    0.0000 H   0  0  0  0  0  0  0  0  0  0  0  0
    3.0781   -3.2656    0.0000 H   0  0  0  0  0  0  0  0  0  0  0  0
    3.4766   -2.5753    0.0000 H   0  0  0  0  0  0  0  0  0  0  0  0
   14.5229    4.2919    0.0000 H   0  0  0  0  0  0  0  0  0  0  0  0
   13.7258    4.2919    0.0000 H   0  0  0  0  0  0  0  0  0  0  0  0
    1.7880   -2.6004    0.0000 H   0  0  0  0  0  0  0  0  0  0  0  0
    1.3894   -3.2907    0.0000 H   0  0  0  0  0  0  0  0  0  0  0  0
   14.6804    2.7800    0.0000 H   0  0  0  0  0  0  0  0  0  0  0  0
   15.5273    3.0070    0.0000 H   0  0  0  0  0  0  0  0  0  0  0  0
   15.3004    3.8539    0.0000 H   0  0  0  0  0  0  0  0  0  0  0  0
    1.3800   -4.1830    0.0000 H   0  0  0  0  0  0  0  0  0  0  0  0
    2.0000   -4.8030    0.0000 H   0  0  0  0  0  0  0  0  0  0  0  0
    2.6200   -4.1830    0.0000 H   0  0  0  0  0  0  0  0  0  0  0  0
  1  2  1  0  0  0  0
  1  3  1  0  0  0  0
  1 10  1  0  0  0  0
  1 23  1  0  0  0  0
  2  4  1  0  0  0  0
  2 24  1  0  0  0  0
  2 25  1  0  0  0  0
  3  5  1  0  0  0  0
  3 26  1  0  0  0  0
  3 27  1  0  0  0  0
  4  6  1  0  0  0  0
  4 28  1  0  0  0  0
  4 29  1  0  0  0  0
  5  7  1  0  0  0  0
  5 30  1  0  0  0  0
  5 31  1  0  0  0  0
  6  8  1  0  0  0  0
  6 32  1  0  0  0  0
  6 33  1  0  0  0  0
  7  9  1  0  0  0  0
  7 34  1  0  0  0  0
  7 35  1  0  0  0  0
  8 11  1  0  0  0  0
  8 36  1  0  0  0  0
  8 37  1  0  0  0  0
  9 12  1  0  0  0  0
  9 38  1  0  0  0  0
  9 39  1  0  0  0  0
 10 40  1  0  0  0  0
 10 41  1  0  0  0  0
 10 42  1  0  0  0  0
 11 13  1  0  0  0  0
 11 43  1  0  0  0  0
 11 44  1  0  0  0  0
 12 14  1  0  0  0  0
 12 45  1  0  0  0  0
 12 46  1  0  0  0  0
 13 15  1  0  0  0  0
 13 47  1  0  0  0  0
 13 48  1  0  0  0  0
 14 16  1  0  0  0  0
 14 49  1  0  0  0  0
 14 50  1  0  0  0  0
 15 17  1  0  0  0  0
 15 51  1  0  0  0  0
 15 52  1  0  0  0  0
 16 18  1  0  0  0  0
 16 53  1  0  0  0  0
 16 54  1  0  0  0  0
 17 19  1  0  0  0  0
 17 55  1  0  0  0  0
 17 56  1  0  0  0  0
 18 20  1  0  0  0  0
 18 57  1  0  0  0  0
 18 58  1  0  0  0  0
 19 21  1  0  0  0  0
 19 59  1  0  0  0  0
 19 60  1  0  0  0  0
 20 22  1  0  0  0  0
 20 61  1  0  0  0  0
 20 62  1  0  0  0  0
 21 63  1  0  0  0  0
 21 64  1  0  0  0  0
 21 65  1  0  0  0  0
 22 66  1  0  0  0  0
 22 67  1  0  0  0  0
 22 68  1  0  0  0  0
M  END
> <PUBCHEM_COMPOUND_CID>
71366123

> <PUBCHEM_COMPOUND_CANONICALIZED>
1

> <PUBCHEM_CACTVS_COMPLEXITY>
170

> <PUBCHEM_CACTVS_HBOND_ACCEPTOR>
0

> <PUBCHEM_CACTVS_HBOND_DONOR>
0

> <PUBCHEM_CACTVS_ROTATABLE_BOND>
18

> <PUBCHEM_CACTVS_SUBSKEYS>
AAADcfB4AAgAAAAAAAAAAAAAAAAAAAAAAAAAAAAAAAAAAAAAAAAAGBAAAACACACAIABCAAAAAAEAAAAAAAAAAAAAAAAAAAAAAAAAAAIAAAAAAAAAAAAAAAEAgIAAAAAAAAAAAAAAAAAAAAAAAAAAAAAAAA==

> <PUBCHEM_IUPAC_OPENEYE_NAME>
didecyl(methyl)silane

> <PUBCHEM_IUPAC_CAS_NAME>
didecyl(methyl)silane

> <PUBCHEM_IUPAC_NAME_MARKUP>
didecyl(methyl)silane

> <PUBCHEM_IUPAC_NAME>
didecyl(methyl)silane

> <PUBCHEM_IUPAC_SYSTEMATIC_NAME>
didecyl(methyl)silane

> <PUBCHEM_IUPAC_TRADITIONAL_NAME>
didecyl(methyl)silane

> <PUBCHEM_IUPAC_INCHI>
InChI=1S/C21H46Si/c1-4-6-8-10-12-14-16-18-20-22(3)21-19-17-15-13-11-9-7-5-2/h22H,4-21H2,1-3H3

> <PUBCHEM_IUPAC_INCHIKEY>
GVVXXRLVHMVELK-UHFFFAOYSA-N

> <PUBCHEM_EXACT_MASS>
326.336878002

> <PUBCHEM_MOLECULAR_FORMULA>
C21H46Si

> <PUBCHEM_MOLECULAR_WEIGHT>
326.7

> <PUBCHEM_OPENEYE_CAN_SMILES>
CCCCCCCCCC[SiH](C)CCCCCCCCCC

> <PUBCHEM_OPENEYE_ISO_SMILES>
CCCCCCCCCC[SiH](C)CCCCCCCCCC

> <PUBCHEM_CACTVS_TPSA>
0

> <PUBCHEM_MONOISOTOPIC_WEIGHT>
326.336878002

> <PUBCHEM_TOTAL_CHARGE>
0

> <PUBCHEM_HEAVY_ATOM_COUNT>
22

> <PUBCHEM_ATOM_DEF_STEREO_COUNT>
0

> <PUBCHEM_ATOM_UDEF_STEREO_COUNT>
0

> <PUBCHEM_BOND_DEF_STEREO_COUNT>
0

> <PUBCHEM_BOND_UDEF_STEREO_COUNT>
0

> <PUBCHEM_ISOTOPIC_ATOM_COUNT>
0

> <PUBCHEM_COMPONENT_COUNT>
1

> <PUBCHEM_CACTVS_TAUTO_COUNT>
-1

> <PUBCHEM_COORDINATE_TYPE>
1
5
255

$$$$
