137602
  -OEChem-11012401153D

 22 23  0     1  0  0  0  0  0999 V2000
   -0.9323    0.1995    0.0095 C   0  0  1  0  0  0  0  0  0  0  0  0
   -0.2806   -1.1422   -0.2219 C   0  0  2  0  0  0  0  0  0  0  0  0
   -0.9793   -0.8482    1.0852 C   0  0  0  0  0  0  0  0  0  0  0  0
   -0.0928    1.4322    0.1464 C   0  0  0  0  0  0  0  0  0  0  0  0
    1.2128   -1.2766   -0.2359 C   0  0  0  0  0  0  0  0  0  0  0  0
   -2.2236    0.4353   -0.7357 C   0  0  0  0  0  0  0  0  0  0  0  0
    1.3787    1.1448    0.4379 C   0  0  0  0  0  0  0  0  0  0  0  0
    1.9170    0.0551   -0.4854 C   0  0  0  0  0  0  0  0  0  0  0  0
   -0.7590   -1.8515   -0.8871 H   0  0  0  0  0  0  0  0  0  0  0  0
   -1.9150   -1.3607    1.2783 H   0  0  0  0  0  0  0  0  0  0  0  0
   -0.3797   -0.7023    1.9760 H   0  0  0  0  0  0  0  0  0  0  0  0
   -0.5028    2.0758    0.9337 H   0  0  0  0  0  0  0  0  0  0  0  0
   -0.1447    2.0081   -0.7868 H   0  0  0  0  0  0  0  0  0  0  0  0
    1.5085   -1.9870   -1.0168 H   0  0  0  0  0  0  0  0  0  0  0  0
    1.5532   -1.7032    0.7155 H   0  0  0  0  0  0  0  0  0  0  0  0
   -2.8168    1.2056   -0.2315 H   0  0  0  0  0  0  0  0  0  0  0  0
   -2.0186    0.7722   -1.7575 H   0  0  0  0  0  0  0  0  0  0  0  0
   -2.8387   -0.4692   -0.8017 H   0  0  0  0  0  0  0  0  0  0  0  0
    1.5021    0.8351    1.4828 H   0  0  0  0  0  0  0  0  0  0  0  0
    1.9609    2.0643    0.3091 H   0  0  0  0  0  0  0  0  0  0  0  0
    1.7759    0.3590   -1.5301 H   0  0  0  0  0  0  0  0  0  0  0  0
    2.9946   -0.0680   -0.3289 H   0  0  0  0  0  0  0  0  0  0  0  0
  1  2  1  0  0  0  0
  1  3  1  0  0  0  0
  1  4  1  0  0  0  0
  1  6  1  0  0  0  0
  2  3  1  0  0  0  0
  2  5  1  0  0  0  0
  2  9  1  0  0  0  0
  3 10  1  0  0  0  0
  3 11  1  0  0  0  0
  4  7  1  0  0  0  0
  4 12  1  0  0  0  0
  4 13  1  0  0  0  0
  5  8  1  0  0  0  0
  5 14  1  0  0  0  0
  5 15  1  0  0  0  0
  6 16  1  0  0  0  0
  6 17  1  0  0  0  0
  6 18  1  0  0  0  0
  7  8  1  0  0  0  0
  7 19  1  0  0  0  0
  7 20  1  0  0  0  0
  8 21  1  0  0  0  0
  8 22  1  0  0  0  0
M  END
> <PUBCHEM_COMPOUND_CID>
137602

> <PUBCHEM_CONFORMER_RMSD>
0.4

> <PUBCHEM_CONFORMER_DIVERSEORDER>
2
4
1
3

> <PUBCHEM_MMFF94_PARTIAL_CHARGES>
9
1 -0.19
10 0.1
11 0.1
2 -0.19
3 -0.2
4 0.09
5 0.09
6 0.09
9 0.1

> <PUBCHEM_EFFECTIVE_ROTOR_COUNT>
1

> <PUBCHEM_PHARMACOPHORE_FEATURES>
1
7 1 2 3 4 5 7 8 rings

> <PUBCHEM_HEAVY_ATOM_COUNT>
8

> <PUBCHEM_ATOM_DEF_STEREO_COUNT>
0

> <PUBCHEM_ATOM_UDEF_STEREO_COUNT>
2

> <PUBCHEM_BOND_DEF_STEREO_COUNT>
0

> <PUBCHEM_BOND_UDEF_STEREO_COUNT>
0

> <PUBCHEM_ISOTOPIC_ATOM_COUNT>
0

> <PUBCHEM_COMPONENT_COUNT>
1

> <PUBCHEM_CACTVS_TAUTO_COUNT>
1

> <PUBCHEM_CONFORMER_ID>
0002198200000002

> <PUBCHEM_MMFF94_ENERGY>
14.5981

> <PUBCHEM_FEATURE_SELFOVERLAP>
5.074

> <PUBCHEM_SHAPE_FINGERPRINT>
137420 1 17335096388963544943
16945 1 18340202999016708901
18185500 45 16894547265259364227
21040471 1 18335977644545452189
21922407 69 15625949771705112722
241688 4 17690841159948411712
24536 1 17459184256170275366
29004967 10 18341620321060383083
5084963 1 17822854165207830967

> <PUBCHEM_SHAPE_MULTIPOLES>
164.64
2.35
1.52
0.9
0.16
0.04
-0.1
0.24
0.49
-0.26
-0.11
0.2
-0.08
0.32

> <PUBCHEM_SHAPE_SELFOVERLAP>
332.318

> <PUBCHEM_SHAPE_VOLUME>
97.7

> <PUBCHEM_COORDINATE_TYPE>
2
5
10

$$$$
