142963
  -OEChem-11012400373D

 21 22  0     0  0  0  0  0  0999 V2000
   -4.0175   -0.0464   -0.5482 O   0  0  0  0  0  0  0  0  0  0  0  0
   -0.9553    0.0877    0.7383 C   0  0  0  0  0  0  0  0  0  0  0  0
   -1.8281   -1.0801    0.2180 C   0  0  0  0  0  0  0  0  0  0  0  0
   -1.8208    1.1168   -0.0286 C   0  0  0  0  0  0  0  0  0  0  0  0
   -2.8539   -0.0125   -0.2111 C   0  0  0  0  0  0  0  0  0  0  0  0
    0.5645    0.0365    0.3269 C   0  0  0  0  0  0  0  0  0  0  0  0
    1.2877    1.2195    0.1747 C   0  0  0  0  0  0  0  0  0  0  0  0
    1.1894   -1.1939    0.1241 C   0  0  0  0  0  0  0  0  0  0  0  0
    2.6359    1.1721   -0.1802 C   0  0  0  0  0  0  0  0  0  0  0  0
    2.5374   -1.2414   -0.2309 C   0  0  0  0  0  0  0  0  0  0  0  0
    3.2607   -0.0584   -0.3831 C   0  0  0  0  0  0  0  0  0  0  0  0
   -1.0636    0.2090    1.8270 H   0  0  0  0  0  0  0  0  0  0  0  0
   -2.1900   -1.7677    0.9861 H   0  0  0  0  0  0  0  0  0  0  0  0
   -1.4579   -1.6447   -0.6430 H   0  0  0  0  0  0  0  0  0  0  0  0
   -1.4261    1.4745   -0.9844 H   0  0  0  0  0  0  0  0  0  0  0  0
   -2.1768    1.9605    0.5671 H   0  0  0  0  0  0  0  0  0  0  0  0
    0.8154    2.1841    0.3380 H   0  0  0  0  0  0  0  0  0  0  0  0
    0.6536   -2.1291    0.2562 H   0  0  0  0  0  0  0  0  0  0  0  0
    3.1997    2.0931   -0.2965 H   0  0  0  0  0  0  0  0  0  0  0  0
    3.0255   -2.1995   -0.3841 H   0  0  0  0  0  0  0  0  0  0  0  0
    4.3108   -0.0955   -0.6579 H   0  0  0  0  0  0  0  0  0  0  0  0
  1  5  2  0  0  0  0
  2  3  1  0  0  0  0
  2  4  1  0  0  0  0
  2  6  1  0  0  0  0
  2 12  1  0  0  0  0
  3  5  1  0  0  0  0
  3 13  1  0  0  0  0
  3 14  1  0  0  0  0
  4  5  1  0  0  0  0
  4 15  1  0  0  0  0
  4 16  1  0  0  0  0
  6  7  2  0  0  0  0
  6  8  1  0  0  0  0
  7  9  1  0  0  0  0
  7 17  1  0  0  0  0
  8 10  2  0  0  0  0
  8 18  1  0  0  0  0
  9 11  2  0  0  0  0
  9 19  1  0  0  0  0
 10 11  1  0  0  0  0
 10 20  1  0  0  0  0
 11 21  1  0  0  0  0
M  END
> <PUBCHEM_COMPOUND_CID>
142963

> <PUBCHEM_CONFORMER_RMSD>
0.4

> <PUBCHEM_CONFORMER_DIVERSEORDER>
1
2
5
3
4

> <PUBCHEM_MMFF94_PARTIAL_CHARGES>
16
1 -0.57
10 -0.15
11 -0.15
17 0.15
18 0.15
19 0.15
2 0.11
20 0.15
21 0.15
3 0.05
4 0.05
5 0.46
6 -0.11
7 -0.15
8 -0.15
9 -0.15

> <PUBCHEM_EFFECTIVE_ROTOR_COUNT>
1.6

> <PUBCHEM_PHARMACOPHORE_FEATURES>
3
1 1 acceptor
4 2 3 4 5 rings
6 6 7 8 9 10 11 rings

> <PUBCHEM_HEAVY_ATOM_COUNT>
11

> <PUBCHEM_ATOM_DEF_STEREO_COUNT>
0

> <PUBCHEM_ATOM_UDEF_STEREO_COUNT>
0

> <PUBCHEM_BOND_DEF_STEREO_COUNT>
0

> <PUBCHEM_BOND_UDEF_STEREO_COUNT>
0

> <PUBCHEM_ISOTOPIC_ATOM_COUNT>
0

> <PUBCHEM_COMPONENT_COUNT>
1

> <PUBCHEM_CACTVS_TAUTO_COUNT>
2

> <PUBCHEM_CONFORMER_ID>
00022E7300000001

> <PUBCHEM_MMFF94_ENERGY>
26.1903

> <PUBCHEM_FEATURE_SELFOVERLAP>
15.223

> <PUBCHEM_SHAPE_FINGERPRINT>
10608611 8 18335417984653381461
10857977 72 12391507577191547371
12897270 3 18410013264317756985
12932764 1 17458622306960058339
13380535 76 18408321107454390834
14144814 61 18411984632873956745
14325111 11 18410013255706781840
15477762 27 18342738515896240430
15775835 57 18341898531951600196
16945 1 18410584984863357240
17844478 74 18041014941907395745
18186145 218 18114177502260543661
20201158 50 18410294696413535346
20281407 28 13398636064769546077
20361792 2 16056592158146140577
20606313 2 18408321103280606348
20645477 70 18340484478737247775
21501502 16 18265899064153230272
21501925 9 18338789027638597074
23402539 116 17895462713265897135
23402655 69 18411976932303836045
23552423 10 18336267855506787514
2748010 2 17978799239505421560
3248919 1 18411139134154515040
528886 8 18409445907933598938
57812782 119 18409165519451738724
8030462 33 18273224092263894856
93112 12 18409450301526939151

> <PUBCHEM_SHAPE_MULTIPOLES>
220.51
5.7
1.38
0.72
2.35
0
0.03
0.06
-1.3
-0.58
0.01
0.08
0
0.06

> <PUBCHEM_SHAPE_SELFOVERLAP>
463.654

> <PUBCHEM_SHAPE_VOLUME>
122.8

> <PUBCHEM_COORDINATE_TYPE>
2
5
10

$$$$
