136269
  -OEChem-11012401243D

 28 29  0     0  0  0  0  0  0999 V2000
    1.3076   -2.5473    0.2340 F   0  0  0  0  0  0  0  0  0  0  0  0
    0.1744   -1.5038    1.7522 F   0  0  0  0  0  0  0  0  0  0  0  0
   -0.1483   -1.5068   -1.7532 F   0  0  0  0  0  0  0  0  0  0  0  0
   -1.2683   -2.5635   -0.2347 F   0  0  0  0  0  0  0  0  0  0  0  0
    0.6234   -1.3839    0.4665 C   0  0  0  0  0  0  0  0  0  0  0  0
   -0.6105   -1.3762   -0.4654 C   0  0  0  0  0  0  0  0  0  0  0  0
    1.5206   -0.1819    0.2838 C   0  0  0  0  0  0  0  0  0  0  0  0
   -1.5106   -0.2007   -0.2854 C   0  0  0  0  0  0  0  0  0  0  0  0
    1.2930    0.9554    1.0413 C   0  0  0  0  0  0  0  0  0  0  0  0
   -1.3006    0.9591   -1.0314 C   0  0  0  0  0  0  0  0  0  0  0  0
    2.5537   -0.2406   -0.6373 C   0  0  0  0  0  0  0  0  0  0  0  0
   -2.5625   -0.2610    0.6288 C   0  0  0  0  0  0  0  0  0  0  0  0
    2.1212    2.0650    0.8728 C   0  0  0  0  0  0  0  0  0  0  0  0
   -2.1424    2.0585   -0.8634 C   0  0  0  0  0  0  0  0  0  0  0  0
    3.3821    0.8691   -0.8054 C   0  0  0  0  0  0  0  0  0  0  0  0
   -3.4044    0.8385    0.7967 C   0  0  0  0  0  0  0  0  0  0  0  0
    3.1657    2.0219   -0.0503 C   0  0  0  0  0  0  0  0  0  0  0  0
   -3.1942    1.9983    0.0505 C   0  0  0  0  0  0  0  0  0  0  0  0
    0.4875    1.0002    1.7685 H   0  0  0  0  0  0  0  0  0  0  0  0
   -0.4904    1.0200   -1.7531 H   0  0  0  0  0  0  0  0  0  0  0  0
    2.7289   -1.1312   -1.2336 H   0  0  0  0  0  0  0  0  0  0  0  0
   -2.7360   -1.1563    1.2197 H   0  0  0  0  0  0  0  0  0  0  0  0
    1.9534    2.9621    1.4615 H   0  0  0  0  0  0  0  0  0  0  0  0
   -1.9795    2.9610   -1.4452 H   0  0  0  0  0  0  0  0  0  0  0  0
    4.1948    0.8361   -1.5252 H   0  0  0  0  0  0  0  0  0  0  0  0
   -4.2229    0.7922    1.5091 H   0  0  0  0  0  0  0  0  0  0  0  0
    3.8105    2.8859   -0.1815 H   0  0  0  0  0  0  0  0  0  0  0  0
   -3.8496    2.8544    0.1814 H   0  0  0  0  0  0  0  0  0  0  0  0
  1  5  1  0  0  0  0
  2  5  1  0  0  0  0
  3  6  1  0  0  0  0
  4  6  1  0  0  0  0
  5  6  1  0  0  0  0
  5  7  1  0  0  0  0
  6  8  1  0  0  0  0
  7  9  2  0  0  0  0
  7 11  1  0  0  0  0
  8 10  2  0  0  0  0
  8 12  1  0  0  0  0
  9 13  1  0  0  0  0
  9 19  1  0  0  0  0
 10 14  1  0  0  0  0
 10 20  1  0  0  0  0
 11 15  2  0  0  0  0
 11 21  1  0  0  0  0
 12 16  2  0  0  0  0
 12 22  1  0  0  0  0
 13 17  2  0  0  0  0
 13 23  1  0  0  0  0
 14 18  2  0  0  0  0
 14 24  1  0  0  0  0
 15 17  1  0  0  0  0
 15 25  1  0  0  0  0
 16 18  1  0  0  0  0
 16 26  1  0  0  0  0
 17 27  1  0  0  0  0
 18 28  1  0  0  0  0
M  END
> <PUBCHEM_COMPOUND_CID>
136269

> <PUBCHEM_CONFORMER_RMSD>
0.6

> <PUBCHEM_CONFORMER_DIVERSEORDER>
1
3
2
5
6
7
4

> <PUBCHEM_MMFF94_PARTIAL_CHARGES>
28
1 -0.34
10 -0.15
11 -0.15
12 -0.15
13 -0.15
14 -0.15
15 -0.15
16 -0.15
17 -0.15
18 -0.15
19 0.15
2 -0.34
20 0.15
21 0.15
22 0.15
23 0.15
24 0.15
25 0.15
26 0.15
27 0.15
28 0.15
3 -0.34
4 -0.34
5 0.82
6 0.82
7 -0.14
8 -0.14
9 -0.15

> <PUBCHEM_EFFECTIVE_ROTOR_COUNT>
3

> <PUBCHEM_PHARMACOPHORE_FEATURES>
2
6 7 9 11 13 15 17 rings
6 8 10 12 14 16 18 rings

> <PUBCHEM_HEAVY_ATOM_COUNT>
18

> <PUBCHEM_ATOM_DEF_STEREO_COUNT>
0

> <PUBCHEM_ATOM_UDEF_STEREO_COUNT>
0

> <PUBCHEM_BOND_DEF_STEREO_COUNT>
0

> <PUBCHEM_BOND_UDEF_STEREO_COUNT>
0

> <PUBCHEM_ISOTOPIC_ATOM_COUNT>
0

> <PUBCHEM_COMPONENT_COUNT>
1

> <PUBCHEM_CACTVS_TAUTO_COUNT>
1

> <PUBCHEM_CONFORMER_ID>
0002144D00000001

> <PUBCHEM_MMFF94_ENERGY>
36.4923

> <PUBCHEM_FEATURE_SELFOVERLAP>
10.149

> <PUBCHEM_SHAPE_FINGERPRINT>
10165383 225 18338532883809688493
10498660 4 18335132129058065989
10948715 1 18410864260516378668
12633257 1 18044378214949048721
12808571 1 18410857663446436612
128993 33 18410853265411079141
13132413 78 18120350109252536962
13764800 53 17896324799117355192
14386348 128 18410857663457473313
14648413 74 17975129842854570737
14787075 74 17317336338707580227
15309172 13 18410014334097312793
15490181 7 18410845577408426695
15775835 57 18410859862469939009
16945 1 18410567392376794694
17134986 127 18410849936821773092
17492 54 14317848908113583757
18186145 218 18201729444079807488
18981168 100 18338778079181364321
20510252 161 17979633760056424160
20671657 1 18340198588201321088
21041028 32 17762619490933500104
21501502 16 18410849966881256199
21524375 3 18410571790428613034
22094290 62 18339636750887106968
22802520 49 18198630032575491852
23402539 116 17620737814906623366
23419403 2 17261377608770644366
23557571 272 17254560916547477212
238 59 18049974759051759869
25 1 18341338812019540888
2637199 183 18201452328262871681
2748010 2 18411696620904592124
350125 39 18410008840507067683
430814 3 18409726257396892721
549884 4 17774995782573242552
5939293 188 17833820573803443128
6442390 28 18264785405029847147
7364860 26 18192711137717586854
81228 2 17832416875464123322

> <PUBCHEM_SHAPE_MULTIPOLES>
341.34
5.19
2.69
1.22
0.09
0.6
0
-3.57
0
-0.02
0
-0.01
0.1
0.22

> <PUBCHEM_SHAPE_SELFOVERLAP>
745.53

> <PUBCHEM_SHAPE_VOLUME>
184.6

> <PUBCHEM_COORDINATE_TYPE>
2
5
10

$$$$
