102227
  -OEChem-11012400373D

 36 36  0     0  0  0  0  0  0999 V2000
    2.6617    1.6056   -1.8933 O   0  0  0  0  0  0  0  0  0  0  0  0
    2.6586   -1.6096    1.8940 O   0  0  0  0  0  0  0  0  0  0  0  0
   -0.8220    3.5583   -0.1923 O   0  0  0  0  0  0  0  0  0  0  0  0
   -0.8292   -3.5569    0.1940 O   0  0  0  0  0  0  0  0  0  0  0  0
   -3.2862   -0.0218   -1.9757 O   0  0  0  0  0  0  0  0  0  0  0  0
   -3.2887    0.0270    1.9724 O   0  0  0  0  0  0  0  0  0  0  0  0
    2.8575    1.7470    0.3733 O   0  0  0  0  0  0  0  0  0  0  0  0
    2.8545   -1.7512   -0.3726 O   0  0  0  0  0  0  0  0  0  0  0  0
    0.3041    2.4133    1.4253 O   0  0  0  0  0  0  0  0  0  0  0  0
    0.2999   -2.4156   -1.4240 O   0  0  0  0  0  0  0  0  0  0  0  0
   -1.1683   -0.4128   -2.7225 O   0  0  0  0  0  0  0  0  0  0  0  0
   -1.1712    0.4148    2.7219 O   0  0  0  0  0  0  0  0  0  0  0  0
    1.0518    0.4632   -0.6091 C   0  0  0  0  0  0  0  0  0  0  0  0
    1.0507   -0.4647    0.6096 C   0  0  0  0  0  0  0  0  0  0  0  0
   -0.2072    1.3389   -0.6868 C   0  0  0  0  0  0  0  0  0  0  0  0
   -0.2100   -1.3382    0.6870 C   0  0  0  0  0  0  0  0  0  0  0  0
   -1.5206    0.5582   -0.5320 C   0  0  0  0  0  0  0  0  0  0  0  0
   -1.5220   -0.5552    0.5308 C   0  0  0  0  0  0  0  0  0  0  0  0
    2.2797    1.3345   -0.6213 C   0  0  0  0  0  0  0  0  0  0  0  0
    2.2773   -1.3379    0.6220 C   0  0  0  0  0  0  0  0  0  0  0  0
   -0.1960    2.4668    0.3116 C   0  0  0  0  0  0  0  0  0  0  0  0
   -0.2007   -2.4671   -0.3104 C   0  0  0  0  0  0  0  0  0  0  0  0
   -1.9357   -0.0124   -1.8598 C   0  0  0  0  0  0  0  0  0  0  0  0
   -1.9380    0.0158    1.8582 C   0  0  0  0  0  0  0  0  0  0  0  0
    1.1107   -0.1493   -1.5166 H   0  0  0  0  0  0  0  0  0  0  0  0
    1.1105    0.1475    1.5172 H   0  0  0  0  0  0  0  0  0  0  0  0
   -0.1825    1.8257   -1.6743 H   0  0  0  0  0  0  0  0  0  0  0  0
   -0.1867   -1.8242    1.6748 H   0  0  0  0  0  0  0  0  0  0  0  0
   -2.3044    1.2895   -0.2804 H   0  0  0  0  0  0  0  0  0  0  0  0
   -2.3067   -1.2852    0.2782 H   0  0  0  0  0  0  0  0  0  0  0  0
    3.4604    2.1744   -1.9225 H   0  0  0  0  0  0  0  0  0  0  0  0
    3.4564   -2.1796    1.9233 H   0  0  0  0  0  0  0  0  0  0  0  0
   -0.8269    4.3043    0.4447 H   0  0  0  0  0  0  0  0  0  0  0  0
   -0.8354   -4.3033   -0.4423 H   0  0  0  0  0  0  0  0  0  0  0  0
   -3.5773   -0.3909   -2.8367 H   0  0  0  0  0  0  0  0  0  0  0  0
   -3.5804    0.3963    2.8331 H   0  0  0  0  0  0  0  0  0  0  0  0
  1 19  1  0  0  0  0
  1 31  1  0  0  0  0
  2 20  1  0  0  0  0
  2 32  1  0  0  0  0
  3 21  1  0  0  0  0
  3 33  1  0  0  0  0
  4 22  1  0  0  0  0
  4 34  1  0  0  0  0
  5 23  1  0  0  0  0
  5 35  1  0  0  0  0
  6 24  1  0  0  0  0
  6 36  1  0  0  0  0
  7 19  2  0  0  0  0
  8 20  2  0  0  0  0
  9 21  2  0  0  0  0
 10 22  2  0  0  0  0
 11 23  2  0  0  0  0
 12 24  2  0  0  0  0
 13 14  1  0  0  0  0
 13 15  1  0  0  0  0
 13 19  1  0  0  0  0
 13 25  1  0  0  0  0
 14 16  1  0  0  0  0
 14 20  1  0  0  0  0
 14 26  1  0  0  0  0
 15 17  1  0  0  0  0
 15 21  1  0  0  0  0
 15 27  1  0  0  0  0
 16 18  1  0  0  0  0
 16 22  1  0  0  0  0
 16 28  1  0  0  0  0
 17 18  1  0  0  0  0
 17 23  1  0  0  0  0
 17 29  1  0  0  0  0
 18 24  1  0  0  0  0
 18 30  1  0  0  0  0
M  END
> <PUBCHEM_COMPOUND_CID>
102227

> <PUBCHEM_CONFORMER_RMSD>
0.8

> <PUBCHEM_CONFORMER_DIVERSEORDER>
1
3
2
5
4

> <PUBCHEM_MMFF94_PARTIAL_CHARGES>
30
1 -0.65
10 -0.57
11 -0.57
12 -0.57
13 0.06
14 0.06
15 0.06
16 0.06
17 0.06
18 0.06
19 0.66
2 -0.65
20 0.66
21 0.66
22 0.66
23 0.66
24 0.66
3 -0.65
31 0.5
32 0.5
33 0.5
34 0.5
35 0.5
36 0.5
4 -0.65
5 -0.65
6 -0.65
7 -0.57
8 -0.57
9 -0.57

> <PUBCHEM_EFFECTIVE_ROTOR_COUNT>
7.2

> <PUBCHEM_PHARMACOPHORE_FEATURES>
19
1 1 acceptor
1 10 acceptor
1 11 acceptor
1 12 acceptor
1 2 acceptor
1 3 acceptor
1 4 acceptor
1 5 acceptor
1 6 acceptor
1 7 acceptor
1 8 acceptor
1 9 acceptor
3 1 7 19 anion
3 2 8 20 anion
3 3 9 21 anion
3 4 10 22 anion
3 5 11 23 anion
3 6 12 24 anion
6 13 14 15 16 17 18 rings

> <PUBCHEM_HEAVY_ATOM_COUNT>
24

> <PUBCHEM_ATOM_DEF_STEREO_COUNT>
0

> <PUBCHEM_ATOM_UDEF_STEREO_COUNT>
0

> <PUBCHEM_BOND_DEF_STEREO_COUNT>
0

> <PUBCHEM_BOND_UDEF_STEREO_COUNT>
0

> <PUBCHEM_ISOTOPIC_ATOM_COUNT>
0

> <PUBCHEM_COMPONENT_COUNT>
1

> <PUBCHEM_CACTVS_TAUTO_COUNT>
1

> <PUBCHEM_CONFORMER_ID>
00018F5300000001

> <PUBCHEM_MMFF94_ENERGY>
51.5743

> <PUBCHEM_FEATURE_SELFOVERLAP>
96.795

> <PUBCHEM_SHAPE_FINGERPRINT>
10863032 1 18190437519686491551
10948715 1 17343822319268221273
11578080 2 16590307123708058141
12423570 1 17343243825806913983
13140716 1 18335414643279302915
14142880 1 17980206609999231064
144361 1 17462833608229770335
14817 1 15574705885589377863
15881359 60 18197778791242052697
16945 1 17606141690372787177
19010151 120 17985800719060804311
20600515 1 16843003569225877861
22112679 90 17846497015343004053
229495 10 17895479244806256395
23419403 2 17677057854044463971
2748010 2 18113900446404332044
3052486 1 15913608355356998993
5845 1 14387470426738831896

> <PUBCHEM_SHAPE_MULTIPOLES>
423.48
3.73
3.25
2.24
0.65
0
0
0
0
0.77
0
-1.37
0
-0.51

> <PUBCHEM_SHAPE_SELFOVERLAP>
902.236

> <PUBCHEM_SHAPE_VOLUME>
228.4

> <PUBCHEM_COORDINATE_TYPE>
2
5
10

$$$$
