12668282
  -OEChem-11012400543D

 28 29  0     1  0  0  0  0  0999 V2000
   -1.0366    1.3610    0.8572 O   0  0  0  0  0  0  0  0  0  0  0  0
   -2.7595   -0.0284    0.0551 N   0  0  1  0  0  0  0  0  0  0  0  0
   -1.4834   -0.6507   -0.3105 C   0  0  1  0  0  0  0  0  0  0  0  0
   -0.5500    0.0117    0.7134 C   0  0  1  0  0  0  0  0  0  0  0  0
   -2.3717    1.3520    0.3332 C   0  0  0  0  0  0  0  0  0  0  0  0
    0.9017    0.0264    0.3021 C   0  0  0  0  0  0  0  0  0  0  0  0
   -1.5029   -2.1693   -0.1866 C   0  0  0  0  0  0  0  0  0  0  0  0
   -3.7723   -0.1144   -0.9877 C   0  0  0  0  0  0  0  0  0  0  0  0
    1.7395   -1.0347    0.6518 C   0  0  0  0  0  0  0  0  0  0  0  0
    1.4116    1.1008   -0.4298 C   0  0  0  0  0  0  0  0  0  0  0  0
    3.0815   -1.0212    0.2714 C   0  0  0  0  0  0  0  0  0  0  0  0
    2.7536    1.1140   -0.8101 C   0  0  0  0  0  0  0  0  0  0  0  0
    3.5885    0.0529   -0.4595 C   0  0  0  0  0  0  0  0  0  0  0  0
   -1.1932   -0.3652   -1.3317 H   0  0  0  0  0  0  0  0  0  0  0  0
   -0.6457   -0.4508    1.7054 H   0  0  0  0  0  0  0  0  0  0  0  0
   -2.3614    1.9775   -0.5679 H   0  0  0  0  0  0  0  0  0  0  0  0
   -3.0407    1.8122    1.0669 H   0  0  0  0  0  0  0  0  0  0  0  0
   -0.5231   -2.5951   -0.4232 H   0  0  0  0  0  0  0  0  0  0  0  0
   -1.7727   -2.4875    0.8265 H   0  0  0  0  0  0  0  0  0  0  0  0
   -2.2244   -2.6134   -0.8801 H   0  0  0  0  0  0  0  0  0  0  0  0
   -3.4315    0.3067   -1.9405 H   0  0  0  0  0  0  0  0  0  0  0  0
   -4.6773    0.4219   -0.6817 H   0  0  0  0  0  0  0  0  0  0  0  0
   -4.0672   -1.1547   -1.1588 H   0  0  0  0  0  0  0  0  0  0  0  0
    1.3583   -1.8763    1.2239 H   0  0  0  0  0  0  0  0  0  0  0  0
    0.7813    1.9342   -0.7274 H   0  0  0  0  0  0  0  0  0  0  0  0
    3.7318   -1.8471    0.5449 H   0  0  0  0  0  0  0  0  0  0  0  0
    3.1481    1.9489   -1.3819 H   0  0  0  0  0  0  0  0  0  0  0  0
    4.6332    0.0630   -0.7562 H   0  0  0  0  0  0  0  0  0  0  0  0
  1  4  1  0  0  0  0
  1  5  1  0  0  0  0
  2  3  1  0  0  0  0
  2  5  1  0  0  0  0
  2  8  1  0  0  0  0
  3  4  1  0  0  0  0
  3  7  1  0  0  0  0
  3 14  1  0  0  0  0
  4  6  1  0  0  0  0
  4 15  1  0  0  0  0
  5 16  1  0  0  0  0
  5 17  1  0  0  0  0
  6  9  2  0  0  0  0
  6 10  1  0  0  0  0
  7 18  1  0  0  0  0
  7 19  1  0  0  0  0
  7 20  1  0  0  0  0
  8 21  1  0  0  0  0
  8 22  1  0  0  0  0
  8 23  1  0  0  0  0
  9 11  1  0  0  0  0
  9 24  1  0  0  0  0
 10 12  2  0  0  0  0
 10 25  1  0  0  0  0
 11 13  2  0  0  0  0
 11 26  1  0  0  0  0
 12 13  1  0  0  0  0
 12 27  1  0  0  0  0
 13 28  1  0  0  0  0
M  END
> <PUBCHEM_COMPOUND_CID>
12668282

> <PUBCHEM_CONFORMER_RMSD>
0.6

> <PUBCHEM_CONFORMER_DIVERSEORDER>
1
3
2

> <PUBCHEM_MMFF94_PARTIAL_CHARGES>
17
1 -0.56
10 -0.15
11 -0.15
12 -0.15
13 -0.15
2 -0.81
24 0.15
25 0.15
26 0.15
27 0.15
28 0.15
3 0.27
4 0.42
5 0.55
6 -0.14
8 0.27
9 -0.15

> <PUBCHEM_EFFECTIVE_ROTOR_COUNT>
2

> <PUBCHEM_PHARMACOPHORE_FEATURES>
4
1 1 acceptor
1 2 cation
5 1 2 3 4 5 rings
6 6 9 10 11 12 13 rings

> <PUBCHEM_HEAVY_ATOM_COUNT>
13

> <PUBCHEM_ATOM_DEF_STEREO_COUNT>
2

> <PUBCHEM_ATOM_UDEF_STEREO_COUNT>
0

> <PUBCHEM_BOND_DEF_STEREO_COUNT>
0

> <PUBCHEM_BOND_UDEF_STEREO_COUNT>
0

> <PUBCHEM_ISOTOPIC_ATOM_COUNT>
0

> <PUBCHEM_COMPONENT_COUNT>
1

> <PUBCHEM_CACTVS_TAUTO_COUNT>
1

> <PUBCHEM_CONFORMER_ID>
00C14D7A00000001

> <PUBCHEM_MMFF94_ENERGY>
32.9331

> <PUBCHEM_FEATURE_SELFOVERLAP>
20.297

> <PUBCHEM_SHAPE_FINGERPRINT>
11031198 65 16950286187075480714
11401426 45 18259982691622445148
12202030 40 15984560982393781606
12897270 3 18339645654127529608
12932764 1 18343310287791628552
13538477 17 18409724097070742218
14115302 16 18411416245444563295
14144814 61 18409451362462937048
14897335 6 18334573577103143456
14993402 34 18408604729898541990
15219459 52 18337392630301211346
15775835 57 18113340825171897550
16945 1 18413390946842546080
18186145 218 17894352150645044411
18619055 16 18408880754472063591
20279233 1 16486973999001603326
20645476 183 18261106391963226583
20645477 70 18040992895455591586
20653085 51 17458343052634530997
20871999 31 18266170811546103983
21119208 17 18334856117052408662
23402539 116 18130782326515375661
23402655 69 18259981556923099237
23463225 33 18265894653374895586
23552423 10 18191588759778839976
23559900 14 18131064940370199538
25 1 17458343005141827946
2748010 2 17911227644334754859
3312278 4 18338238283460023834
528886 8 18114179756991760634
57096353 35 18411141376254206716
63268167 104 18113901554717027248
7364860 26 18201153373154349408
74978 22 18410014363998183332
77492 1 18410295774476590128
8030462 33 18412266142315965608
81228 2 16772694121123979848
93112 12 18336266824899135934
9939556 21 18335422391405540454

> <PUBCHEM_SHAPE_MULTIPOLES>
256.68
5.96
1.63
0.91
0.02
0.39
-0.03
-0.12
-1.53
0.26
0.02
0.12
-0.09
-0.68

> <PUBCHEM_SHAPE_SELFOVERLAP>
535.481

> <PUBCHEM_SHAPE_VOLUME>
147.1

> <PUBCHEM_COORDINATE_TYPE>
2
5
10

$$$$
