262105
  -OEChem-11012400583D

 77 80  0     1  0  0  0  0  0999 V2000
    7.2813    1.2228    0.1615 O   0  0  0  0  0  0  0  0  0  0  0  0
   -1.1311   -1.0777   -0.4475 C   0  0  1  0  0  0  0  0  0  0  0  0
   -0.4316   -0.7387    0.8839 C   0  0  2  0  0  0  0  0  0  0  0  0
    1.0892   -0.9162    0.8314 C   0  0  1  0  0  0  0  0  0  0  0  0
    1.6785   -0.0190   -0.2958 C   0  0  1  0  0  0  0  0  0  0  0  0
   -2.6019   -0.8543   -0.0186 C   0  0  2  0  0  0  0  0  0  0  0  0
   -0.6128   -0.0927   -1.5046 C   0  0  0  0  0  0  0  0  0  0  0  0
    3.2454   -0.1958   -0.4164 C   0  0  2  0  0  0  0  0  0  0  0  0
   -1.2280   -1.5231    1.9221 C   0  0  0  0  0  0  0  0  0  0  0  0
    0.9176   -0.1684   -1.6422 C   0  0  0  0  0  0  0  0  0  0  0  0
   -2.6729   -1.4892    1.3902 C   0  0  0  0  0  0  0  0  0  0  0  0
    1.7259   -0.5551    2.1818 C   0  0  0  0  0  0  0  0  0  0  0  0
   -3.6737   -1.3827   -0.9610 C   0  0  1  0  0  0  0  0  0  0  0  0
   -0.9039   -2.5332   -0.9262 C   0  0  0  0  0  0  0  0  0  0  0  0
    3.9029   -0.1985    0.9708 C   0  0  0  0  0  0  0  0  0  0  0  0
    3.8086    0.9972   -1.2453 C   0  0  0  0  0  0  0  0  0  0  0  0
    3.2045   -0.3456    2.1101 C   0  0  0  0  0  0  0  0  0  0  0  0
    3.6091   -1.5255   -1.1201 C   0  0  0  0  0  0  0  0  0  0  0  0
    5.4024   -0.0179    1.0240 C   0  0  0  0  0  0  0  0  0  0  0  0
    5.3318    1.1168   -1.2217 C   0  0  0  0  0  0  0  0  0  0  0  0
   -5.1046   -1.0946   -0.4600 C   0  0  0  0  0  0  0  0  0  0  0  0
    5.8584    1.1879    0.2071 C   0  0  2  0  0  0  0  0  0  0  0  0
   -3.4947   -0.7708   -2.3562 C   0  0  0  0  0  0  0  0  0  0  0  0
   -5.4458    0.3805   -0.2104 C   0  0  0  0  0  0  0  0  0  0  0  0
   -6.8531    0.5947    0.3560 C   0  0  0  0  0  0  0  0  0  0  0  0
   -7.2207    2.0802    0.5392 C   0  0  0  0  0  0  0  0  0  0  0  0
    7.7493    2.3326   -0.5911 C   0  0  0  0  0  0  0  0  0  0  0  0
   -7.1149    2.8764   -0.7624 C   0  0  0  0  0  0  0  0  0  0  0  0
   -6.3157    2.7099    1.6016 C   0  0  0  0  0  0  0  0  0  0  0  0
   -0.6132    0.3270    1.1051 H   0  0  0  0  0  0  0  0  0  0  0  0
    1.3249   -1.9662    0.6252 H   0  0  0  0  0  0  0  0  0  0  0  0
    1.4984    1.0203    0.0245 H   0  0  0  0  0  0  0  0  0  0  0  0
   -2.7351    0.2294    0.1033 H   0  0  0  0  0  0  0  0  0  0  0  0
   -0.8910    0.9348   -1.2374 H   0  0  0  0  0  0  0  0  0  0  0  0
   -1.0188   -0.2790   -2.4989 H   0  0  0  0  0  0  0  0  0  0  0  0
   -1.1599   -1.0720    2.9173 H   0  0  0  0  0  0  0  0  0  0  0  0
   -0.8745   -2.5572    2.0020 H   0  0  0  0  0  0  0  0  0  0  0  0
    1.1720   -1.1171   -2.1237 H   0  0  0  0  0  0  0  0  0  0  0  0
    1.2345    0.6205   -2.3338 H   0  0  0  0  0  0  0  0  0  0  0  0
   -3.0786   -2.5070    1.3671 H   0  0  0  0  0  0  0  0  0  0  0  0
   -3.3158   -0.8943    2.0483 H   0  0  0  0  0  0  0  0  0  0  0  0
    1.5189   -1.3571    2.9007 H   0  0  0  0  0  0  0  0  0  0  0  0
    1.2764    0.3591    2.5894 H   0  0  0  0  0  0  0  0  0  0  0  0
   -3.5945   -2.4728   -1.0580 H   0  0  0  0  0  0  0  0  0  0  0  0
   -1.3495   -2.7096   -1.9096 H   0  0  0  0  0  0  0  0  0  0  0  0
    0.1563   -2.7824   -1.0224 H   0  0  0  0  0  0  0  0  0  0  0  0
   -1.3351   -3.2693   -0.2403 H   0  0  0  0  0  0  0  0  0  0  0  0
    3.3909    1.9387   -0.8630 H   0  0  0  0  0  0  0  0  0  0  0  0
    3.4872    0.9196   -2.2909 H   0  0  0  0  0  0  0  0  0  0  0  0
    3.7241   -0.3178    3.0649 H   0  0  0  0  0  0  0  0  0  0  0  0
    3.1413   -2.3859   -0.6306 H   0  0  0  0  0  0  0  0  0  0  0  0
    3.2987   -1.5259   -2.1699 H   0  0  0  0  0  0  0  0  0  0  0  0
    4.6882   -1.7131   -1.1236 H   0  0  0  0  0  0  0  0  0  0  0  0
    5.7605    0.0999    2.0550 H   0  0  0  0  0  0  0  0  0  0  0  0
    5.8969   -0.9262    0.6572 H   0  0  0  0  0  0  0  0  0  0  0  0
    5.7947    0.2807   -1.7601 H   0  0  0  0  0  0  0  0  0  0  0  0
    5.5871    2.0167   -1.7921 H   0  0  0  0  0  0  0  0  0  0  0  0
   -5.8245   -1.5058   -1.1800 H   0  0  0  0  0  0  0  0  0  0  0  0
   -5.2721   -1.6523    0.4702 H   0  0  0  0  0  0  0  0  0  0  0  0
    5.4969    2.1026    0.6967 H   0  0  0  0  0  0  0  0  0  0  0  0
   -3.2773    0.3012   -2.3200 H   0  0  0  0  0  0  0  0  0  0  0  0
   -4.4119   -0.8898   -2.9460 H   0  0  0  0  0  0  0  0  0  0  0  0
   -2.7251   -1.2897   -2.9305 H   0  0  0  0  0  0  0  0  0  0  0  0
   -4.7246    0.8024    0.4934 H   0  0  0  0  0  0  0  0  0  0  0  0
   -5.3358    0.9212   -1.1549 H   0  0  0  0  0  0  0  0  0  0  0  0
   -6.9463    0.0711    1.3155 H   0  0  0  0  0  0  0  0  0  0  0  0
   -7.5828    0.1345   -0.3222 H   0  0  0  0  0  0  0  0  0  0  0  0
   -8.2578    2.1272    0.8939 H   0  0  0  0  0  0  0  0  0  0  0  0
    8.7925    2.5056   -0.3089 H   0  0  0  0  0  0  0  0  0  0  0  0
    7.1887    3.2474   -0.3725 H   0  0  0  0  0  0  0  0  0  0  0  0
    7.7436    2.1108   -1.6621 H   0  0  0  0  0  0  0  0  0  0  0  0
   -6.0792    3.0047   -1.0919 H   0  0  0  0  0  0  0  0  0  0  0  0
   -7.5361    3.8786   -0.6261 H   0  0  0  0  0  0  0  0  0  0  0  0
   -7.6761    2.3873   -1.5653 H   0  0  0  0  0  0  0  0  0  0  0  0
   -5.2793    2.8086    1.2640 H   0  0  0  0  0  0  0  0  0  0  0  0
   -6.6714    3.7164    1.8494 H   0  0  0  0  0  0  0  0  0  0  0  0
   -6.3239    2.1218    2.5252 H   0  0  0  0  0  0  0  0  0  0  0  0
  1 22  1  0  0  0  0
  1 27  1  0  0  0  0
  2  3  1  0  0  0  0
  2  6  1  0  0  0  0
  2  7  1  0  0  0  0
  2 14  1  0  0  0  0
  3  4  1  0  0  0  0
  3  9  1  0  0  0  0
  3 30  1  0  0  0  0
  4  5  1  0  0  0  0
  4 12  1  0  0  0  0
  4 31  1  0  0  0  0
  5  8  1  0  0  0  0
  5 10  1  0  0  0  0
  5 32  1  0  0  0  0
  6 11  1  0  0  0  0
  6 13  1  0  0  0  0
  6 33  1  0  0  0  0
  7 10  1  0  0  0  0
  7 34  1  0  0  0  0
  7 35  1  0  0  0  0
  8 15  1  0  0  0  0
  8 16  1  0  0  0  0
  8 18  1  0  0  0  0
  9 11  1  0  0  0  0
  9 36  1  0  0  0  0
  9 37  1  0  0  0  0
 10 38  1  0  0  0  0
 10 39  1  0  0  0  0
 11 40  1  0  0  0  0
 11 41  1  0  0  0  0
 12 17  1  0  0  0  0
 12 42  1  0  0  0  0
 12 43  1  0  0  0  0
 13 21  1  0  0  0  0
 13 23  1  0  0  0  0
 13 44  1  0  0  0  0
 14 45  1  0  0  0  0
 14 46  1  0  0  0  0
 14 47  1  0  0  0  0
 15 17  2  0  0  0  0
 15 19  1  0  0  0  0
 16 20  1  0  0  0  0
 16 48  1  0  0  0  0
 16 49  1  0  0  0  0
 17 50  1  0  0  0  0
 18 51  1  0  0  0  0
 18 52  1  0  0  0  0
 18 53  1  0  0  0  0
 19 22  1  0  0  0  0
 19 54  1  0  0  0  0
 19 55  1  0  0  0  0
 20 22  1  0  0  0  0
 20 56  1  0  0  0  0
 20 57  1  0  0  0  0
 21 24  1  0  0  0  0
 21 58  1  0  0  0  0
 21 59  1  0  0  0  0
 22 60  1  0  0  0  0
 23 61  1  0  0  0  0
 23 62  1  0  0  0  0
 23 63  1  0  0  0  0
 24 25  1  0  0  0  0
 24 64  1  0  0  0  0
 24 65  1  0  0  0  0
 25 26  1  0  0  0  0
 25 66  1  0  0  0  0
 25 67  1  0  0  0  0
 26 28  1  0  0  0  0
 26 29  1  0  0  0  0
 26 68  1  0  0  0  0
 27 69  1  0  0  0  0
 27 70  1  0  0  0  0
 27 71  1  0  0  0  0
 28 72  1  0  0  0  0
 28 73  1  0  0  0  0
 28 74  1  0  0  0  0
 29 75  1  0  0  0  0
 29 76  1  0  0  0  0
 29 77  1  0  0  0  0
M  END
> <PUBCHEM_COMPOUND_CID>
262105

> <PUBCHEM_CONFORMER_RMSD>
1

> <PUBCHEM_CONFORMER_DIVERSEORDER>
1
4
3
2

> <PUBCHEM_MMFF94_PARTIAL_CHARGES>
9
1 -0.56
12 0.14
15 -0.28
17 -0.29
19 0.14
22 0.28
27 0.28
50 0.15
8 0.14

> <PUBCHEM_EFFECTIVE_ROTOR_COUNT>
8

> <PUBCHEM_PHARMACOPHORE_FEATURES>
8
1 1 acceptor
1 23 hydrophobe
3 26 28 29 hydrophobe
5 13 21 24 25 26 hydrophobe
5 2 3 6 9 11 rings
6 2 3 4 5 7 10 rings
6 4 5 8 12 15 17 rings
6 8 15 16 19 20 22 rings

> <PUBCHEM_HEAVY_ATOM_COUNT>
29

> <PUBCHEM_ATOM_DEF_STEREO_COUNT>
8

> <PUBCHEM_ATOM_UDEF_STEREO_COUNT>
0

> <PUBCHEM_BOND_DEF_STEREO_COUNT>
0

> <PUBCHEM_BOND_UDEF_STEREO_COUNT>
0

> <PUBCHEM_ISOTOPIC_ATOM_COUNT>
0

> <PUBCHEM_COMPONENT_COUNT>
1

> <PUBCHEM_CACTVS_TAUTO_COUNT>
1

> <PUBCHEM_CONFORMER_ID>
0003FFD900000001

> <PUBCHEM_MMFF94_ENERGY>
91.7067

> <PUBCHEM_FEATURE_SELFOVERLAP>
40.696

> <PUBCHEM_SHAPE_FINGERPRINT>
10 15 15068620522078445740
10190206 1 16845581872680180937
10554248 39 17915732090382036703
10693767 8 13542473016437998836
10906281 52 18113628905935091886
11181472 205 18343028753445186688
11456790 92 17894343389630010888
11578080 2 17774735142677816981
11646440 116 16443062803017683460
12011746 2 15984828172594309602
12035758 1 15357699686630699913
12236239 1 18259979396665507298
12788726 201 18261379040745253188
13690498 29 16557891468855243447
14251764 18 17822009848005620991
14394314 77 18040152895033287141
14415361 349 11671791498467902668
14765038 42 17531247270325120651
14849402 71 17894916290542531101
15183329 4 15985105181110890283
15188451 53 10737290151944647177
15238133 3 18410005541956126601
15840311 113 18115590332132416765
16728433 281 17703238308350719281
16994733 274 18411415159361650440
18222031 100 13542464254498855854
20105231 36 15719391708016566906
21033648 29 17988630921946155867
21130935 74 17894628166935341170
21267235 1 15936683779808438354
21279426 13 15697991981122941063
21424621 283 18410857638225298315
21521239 73 13542458761303957261
21623969 137 15213019336688042569
21756936 100 18333449863930941851
21781055 127 17676499315914110268
21792961 116 16702026396120905527
22122407 14 18336558225498490017
22149856 69 15792296977705345461
2215653 11 15123791794508401594
22393880 68 16128362809914541447
23559900 14 14836116723595768474
23569914 152 15262868814643685285
23576562 1 16271066263631025273
2747138 104 14923942319350352572
2838139 119 18340205288672530501
3004659 81 15769774688727404346
3178227 256 15791735213247261356
335352 9 14907909309635159003
350125 39 16226321629975701806
3633792 109 17774450386757730766
3882209 13 15549689608039697919
392239 28 16443067218570851055
397830 11 12540988442261890111
4093350 32 18335137579883176434
4098825 35 18271808982444908990
4340502 62 16298385755757112026
44802255 64 17775569754219503935
465052 167 12179850502128498134
5104073 3 15430862229730580525
5385378 56 17530962449616684482
59755656 215 15913332389937157774
999808 66 13406792229403399561

> <PUBCHEM_SHAPE_MULTIPOLES>
590.94
19.78
2.4
1.99
4.78
1.28
-0.29
19.86
-0.1
2.95
0.04
0.03
-0.39
-1.66

> <PUBCHEM_SHAPE_SELFOVERLAP>
1220.164

> <PUBCHEM_SHAPE_VOLUME>
339

> <PUBCHEM_COORDINATE_TYPE>
2
5
10

$$$$
