614352
  -OEChem-11012400583D

 37 36  0     0  0  0  0  0  0999 V2000
   -1.5701   -0.2063    0.0128 Si  0  0  0  0  0  0  0  0  0  0  0  0
    1.5684    0.2100    0.0115 Si  0  0  0  0  0  0  0  0  0  0  0  0
   -0.0010    0.0032   -0.5325 O   0  0  0  0  0  0  0  0  0  0  0  0
   -2.5881   -0.3419   -1.3137 O   0  0  0  0  0  0  0  0  0  0  0  0
   -2.0116    1.1341    0.9188 O   0  0  0  0  0  0  0  0  0  0  0  0
    2.5971    0.3417   -1.3071 O   0  0  0  0  0  0  0  0  0  0  0  0
    1.9911   -1.1359    0.9183 O   0  0  0  0  0  0  0  0  0  0  0  0
   -1.6782   -1.7669    1.0510 C   0  0  0  0  0  0  0  0  0  0  0  0
    1.6849    1.7656    1.0587 C   0  0  0  0  0  0  0  0  0  0  0  0
   -1.3004   -3.0590    0.3387 C   0  0  0  0  0  0  0  0  0  0  0  0
    1.3249    3.0648    0.3501 C   0  0  0  0  0  0  0  0  0  0  0  0
   -2.6668    0.7307   -2.2422 C   0  0  0  0  0  0  0  0  0  0  0  0
   -3.3123    1.2005    1.4846 C   0  0  0  0  0  0  0  0  0  0  0  0
    2.6751   -0.7244   -2.2429 C   0  0  0  0  0  0  0  0  0  0  0  0
    3.2871   -1.2163    1.4939 C   0  0  0  0  0  0  0  0  0  0  0  0
   -1.0347   -1.6471    1.9301 H   0  0  0  0  0  0  0  0  0  0  0  0
   -2.7036   -1.8657    1.4249 H   0  0  0  0  0  0  0  0  0  0  0  0
    1.0343    1.6476    1.9328 H   0  0  0  0  0  0  0  0  0  0  0  0
    2.7088    1.8521    1.4396 H   0  0  0  0  0  0  0  0  0  0  0  0
   -0.2657   -3.0337   -0.0193 H   0  0  0  0  0  0  0  0  0  0  0  0
   -1.9509   -3.2454   -0.5229 H   0  0  0  0  0  0  0  0  0  0  0  0
   -1.3978   -3.9083    1.0230 H   0  0  0  0  0  0  0  0  0  0  0  0
    0.2923    3.0509   -0.0149 H   0  0  0  0  0  0  0  0  0  0  0  0
    1.9830    3.2488   -0.5062 H   0  0  0  0  0  0  0  0  0  0  0  0
    1.4258    3.9098    1.0391 H   0  0  0  0  0  0  0  0  0  0  0  0
   -3.0314    1.6458   -1.7627 H   0  0  0  0  0  0  0  0  0  0  0  0
   -3.3800    0.4514   -3.0238 H   0  0  0  0  0  0  0  0  0  0  0  0
   -1.6971    0.9133   -2.7184 H   0  0  0  0  0  0  0  0  0  0  0  0
   -3.4171    2.1704    1.9805 H   0  0  0  0  0  0  0  0  0  0  0  0
   -3.4541    0.4194    2.2391 H   0  0  0  0  0  0  0  0  0  0  0  0
   -4.0886    1.1295    0.7148 H   0  0  0  0  0  0  0  0  0  0  0  0
    3.3970   -0.4455   -3.0164 H   0  0  0  0  0  0  0  0  0  0  0  0
    1.7077   -0.8955   -2.7279 H   0  0  0  0  0  0  0  0  0  0  0  0
    3.0279   -1.6458   -1.7667 H   0  0  0  0  0  0  0  0  0  0  0  0
    4.0696   -1.1500    0.7301 H   0  0  0  0  0  0  0  0  0  0  0  0
    3.3789   -2.1888    1.9874 H   0  0  0  0  0  0  0  0  0  0  0  0
    3.4302   -0.4390    2.2520 H   0  0  0  0  0  0  0  0  0  0  0  0
  1  3  1  0  0  0  0
  1  4  1  0  0  0  0
  1  5  1  0  0  0  0
  1  8  1  0  0  0  0
  2  3  1  0  0  0  0
  2  6  1  0  0  0  0
  2  7  1  0  0  0  0
  2  9  1  0  0  0  0
  4 12  1  0  0  0  0
  5 13  1  0  0  0  0
  6 14  1  0  0  0  0
  7 15  1  0  0  0  0
  8 10  1  0  0  0  0
  8 16  1  0  0  0  0
  8 17  1  0  0  0  0
  9 11  1  0  0  0  0
  9 18  1  0  0  0  0
  9 19  1  0  0  0  0
 10 20  1  0  0  0  0
 10 21  1  0  0  0  0
 10 22  1  0  0  0  0
 11 23  1  0  0  0  0
 11 24  1  0  0  0  0
 11 25  1  0  0  0  0
 12 26  1  0  0  0  0
 12 27  1  0  0  0  0
 12 28  1  0  0  0  0
 13 29  1  0  0  0  0
 13 30  1  0  0  0  0
 13 31  1  0  0  0  0
 14 32  1  0  0  0  0
 14 33  1  0  0  0  0
 14 34  1  0  0  0  0
 15 35  1  0  0  0  0
 15 36  1  0  0  0  0
 15 37  1  0  0  0  0
M  END
> <PUBCHEM_COMPOUND_CID>
614352

> <PUBCHEM_CONFORMER_RMSD>
0.8

> <PUBCHEM_CONFORMER_DIVERSEORDER>
3
46
4
38
42
57
26
15
1
21
32
14
2
40
24
5
12
54
20
28
27
19
62
61
48
33
22
18
29
51
17
25
41
49
44
30
43
45
53
47
63
37
31
6
7
60
65
11
35
10
23
56
52
36
9
8
66
58
16
64
39
67
55
34
50
59
13

> <PUBCHEM_MMFF94_PARTIAL_CHARGES>
13
1 0.97
12 0.28
13 0.28
14 0.28
15 0.28
2 0.97
3 -0.59
4 -0.58
5 -0.58
6 -0.58
7 -0.58
8 -0.08
9 -0.08

> <PUBCHEM_EFFECTIVE_ROTOR_COUNT>
8

> <PUBCHEM_PHARMACOPHORE_FEATURES>
0

> <PUBCHEM_HEAVY_ATOM_COUNT>
15

> <PUBCHEM_ATOM_DEF_STEREO_COUNT>
0

> <PUBCHEM_ATOM_UDEF_STEREO_COUNT>
0

> <PUBCHEM_BOND_DEF_STEREO_COUNT>
0

> <PUBCHEM_BOND_UDEF_STEREO_COUNT>
0

> <PUBCHEM_ISOTOPIC_ATOM_COUNT>
0

> <PUBCHEM_COMPONENT_COUNT>
1

> <PUBCHEM_CACTVS_TAUTO_COUNT>
1

> <PUBCHEM_CONFORMER_ID>
00095FD000000003

> <PUBCHEM_MMFF94_ENERGY>
11.3939

> <PUBCHEM_FEATURE_SELFOVERLAP>
0

> <PUBCHEM_SHAPE_FINGERPRINT>
10382601 240 16472957192610671913
12500047 106 17897138369118444566
12932764 1 18040722501488677565
14648413 74 17987538029031963088
16945 1 18410855434358358155
17980427 23 17559368384323739512
18186145 218 18339912788730743701
20600515 1 18342453704246723984
20711985 344 17984153565080796436
21069387 34 18126533856514288198
232386 152 18409729522089022130
23419403 2 15027500264336271782
3286 77 18261096466525400941
74978 22 18410856593999528114
81228 2 17842289068675034520

> <PUBCHEM_SHAPE_MULTIPOLES>
315.77
5.22
2.69
2.02
0.03
0
1.11
0.03
0.08
-0.02
-1.02
-0.01
0
0.12

> <PUBCHEM_SHAPE_SELFOVERLAP>
560.183

> <PUBCHEM_SHAPE_VOLUME>
206.8

> <PUBCHEM_COORDINATE_TYPE>
2
5
10

$$$$
