11942
  -OEChem-11012400333D

 36 37  0     0  0  0  0  0  0999 V2000
   -5.4868   -1.8175    0.3997 O   0  0  0  0  0  0  0  0  0  0  0  0
    5.4869   -1.8175   -0.3996 O   0  0  0  0  0  0  0  0  0  0  0  0
   -4.9054    0.3934   -0.1767 N   0  0  0  0  0  0  0  0  0  0  0  0
    4.9054    0.3934    0.1767 N   0  0  0  0  0  0  0  0  0  0  0  0
   -0.7230    0.3921   -0.0266 C   0  0  0  0  0  0  0  0  0  0  0  0
    0.7230    0.3921    0.0265 C   0  0  0  0  0  0  0  0  0  0  0  0
   -1.4084    1.5589   -0.3645 C   0  0  0  0  0  0  0  0  0  0  0  0
    1.4084    1.5589    0.3645 C   0  0  0  0  0  0  0  0  0  0  0  0
   -1.4316   -0.7744    0.2615 C   0  0  0  0  0  0  0  0  0  0  0  0
    1.4315   -0.7745   -0.2615 C   0  0  0  0  0  0  0  0  0  0  0  0
   -3.5111    0.3928   -0.1264 C   0  0  0  0  0  0  0  0  0  0  0  0
    3.5110    0.3928    0.1264 C   0  0  0  0  0  0  0  0  0  0  0  0
   -2.8024    1.5593   -0.4143 C   0  0  0  0  0  0  0  0  0  0  0  0
    2.8023    1.5593    0.4143 C   0  0  0  0  0  0  0  0  0  0  0  0
   -2.8256   -0.7741    0.2116 C   0  0  0  0  0  0  0  0  0  0  0  0
    2.8256   -0.7742   -0.2116 C   0  0  0  0  0  0  0  0  0  0  0  0
   -5.7807   -0.6708    0.0778 C   0  0  0  0  0  0  0  0  0  0  0  0
    5.7807   -0.6707   -0.0778 C   0  0  0  0  0  0  0  0  0  0  0  0
   -7.2226   -0.2597   -0.0845 C   0  0  0  0  0  0  0  0  0  0  0  0
    7.2226   -0.2598    0.0846 C   0  0  0  0  0  0  0  0  0  0  0  0
   -0.8989    2.4822   -0.6263 H   0  0  0  0  0  0  0  0  0  0  0  0
    0.8989    2.4823    0.6263 H   0  0  0  0  0  0  0  0  0  0  0  0
   -0.9413   -1.6973    0.5596 H   0  0  0  0  0  0  0  0  0  0  0  0
    0.9413   -1.6973   -0.5595 H   0  0  0  0  0  0  0  0  0  0  0  0
   -3.3239    2.4740   -0.6855 H   0  0  0  0  0  0  0  0  0  0  0  0
    3.3238    2.4738    0.6857 H   0  0  0  0  0  0  0  0  0  0  0  0
   -3.3051   -1.7123    0.4540 H   0  0  0  0  0  0  0  0  0  0  0  0
    3.3050   -1.7123   -0.4540 H   0  0  0  0  0  0  0  0  0  0  0  0
   -5.3302    1.2828   -0.4311 H   0  0  0  0  0  0  0  0  0  0  0  0
    5.3302    1.2827    0.4312 H   0  0  0  0  0  0  0  0  0  0  0  0
   -7.4655    0.5271    0.6351 H   0  0  0  0  0  0  0  0  0  0  0  0
   -7.8754   -1.1188    0.0938 H   0  0  0  0  0  0  0  0  0  0  0  0
   -7.3916    0.1087   -1.1003 H   0  0  0  0  0  0  0  0  0  0  0  0
    7.4654    0.5278   -0.6344 H   0  0  0  0  0  0  0  0  0  0  0  0
    7.8754   -1.1185   -0.0947 H   0  0  0  0  0  0  0  0  0  0  0  0
    7.3918    0.1077    1.1007 H   0  0  0  0  0  0  0  0  0  0  0  0
  1 17  2  0  0  0  0
  2 18  2  0  0  0  0
  3 11  1  0  0  0  0
  3 17  1  0  0  0  0
  3 29  1  0  0  0  0
  4 12  1  0  0  0  0
  4 18  1  0  0  0  0
  4 30  1  0  0  0  0
  5  6  1  0  0  0  0
  5  7  2  0  0  0  0
  5  9  1  0  0  0  0
  6  8  2  0  0  0  0
  6 10  1  0  0  0  0
  7 13  1  0  0  0  0
  7 21  1  0  0  0  0
  8 14  1  0  0  0  0
  8 22  1  0  0  0  0
  9 15  2  0  0  0  0
  9 23  1  0  0  0  0
 10 16  2  0  0  0  0
 10 24  1  0  0  0  0
 11 13  2  0  0  0  0
 11 15  1  0  0  0  0
 12 14  2  0  0  0  0
 12 16  1  0  0  0  0
 13 25  1  0  0  0  0
 14 26  1  0  0  0  0
 15 27  1  0  0  0  0
 16 28  1  0  0  0  0
 17 19  1  0  0  0  0
 18 20  1  0  0  0  0
 19 31  1  0  0  0  0
 19 32  1  0  0  0  0
 19 33  1  0  0  0  0
 20 34  1  0  0  0  0
 20 35  1  0  0  0  0
 20 36  1  0  0  0  0
M  END
> <PUBCHEM_COMPOUND_CID>
11942

> <PUBCHEM_CONFORMER_RMSD>
0.8

> <PUBCHEM_CONFORMER_DIVERSEORDER>
1
2

> <PUBCHEM_MMFF94_PARTIAL_CHARGES>
28
1 -0.57
10 -0.15
11 0.12
12 0.12
13 -0.15
14 -0.15
15 -0.15
16 -0.15
17 0.57
18 0.57
19 0.06
2 -0.57
20 0.06
21 0.15
22 0.15
23 0.15
24 0.15
25 0.15
26 0.15
27 0.15
28 0.15
29 0.37
3 -0.55
30 0.37
4 -0.55
7 -0.15
8 -0.15
9 -0.15

> <PUBCHEM_EFFECTIVE_ROTOR_COUNT>
5

> <PUBCHEM_PHARMACOPHORE_FEATURES>
6
1 1 acceptor
1 2 acceptor
1 3 donor
1 4 donor
6 5 7 9 11 13 15 rings
6 6 8 10 12 14 16 rings

> <PUBCHEM_HEAVY_ATOM_COUNT>
20

> <PUBCHEM_ATOM_DEF_STEREO_COUNT>
0

> <PUBCHEM_ATOM_UDEF_STEREO_COUNT>
0

> <PUBCHEM_BOND_DEF_STEREO_COUNT>
0

> <PUBCHEM_BOND_UDEF_STEREO_COUNT>
0

> <PUBCHEM_ISOTOPIC_ATOM_COUNT>
0

> <PUBCHEM_COMPONENT_COUNT>
1

> <PUBCHEM_CACTVS_TAUTO_COUNT>
3

> <PUBCHEM_CONFORMER_ID>
00002EA600000001

> <PUBCHEM_MMFF94_ENERGY>
68.1515

> <PUBCHEM_FEATURE_SELFOVERLAP>
30.447

> <PUBCHEM_SHAPE_FINGERPRINT>
10 15 18339913914418461376
10366900 7 16370723725192012081
10968037 39 18187085061572943583
11315181 36 18410015446620326321
11524674 6 16917349255635746695
11963148 33 18336258015848683890
12166972 35 18334860536569241492
12236239 1 16056878048164504489
12403259 415 18338504300781241060
12516196 113 18273493468818912160
12616971 3 16558742446882347909
13073987 5 18130506319664801776
13288520 33 18408886239699279493
13533116 47 17988923388271678176
13685833 64 18413671305676372866
13862211 1 18410572885639985762
13885169 127 18341331098685785593
14170010 4 18343579672963162040
1420 363 18410576188638589559
14251764 18 18342178873510742120
14251764 46 18410573989446437931
14350574 20 18408885135296715420
18006028 8 18272931626777252913
18222031 100 17385439934075930004
19141452 34 18131348652276175087
200 152 17989485212395125913
21130935 74 18202565051373801498
21150785 3 15936412251437687398
21267235 1 18410860957686437089
21682296 61 18058178241044732062
220451 1 15068334632054800553
22224240 67 16845567626057394678
2297311 6 18410015412033864500
23035841 295 18259985977077280371
23402539 116 18409443713722262479
23522609 53 18194433093170937956
23559900 14 18334572490439721865
300161 21 9439404618398887885
3004659 81 18040995158987570544
335352 9 18411699915175897223
34797466 226 17846787325932846588
3545911 37 18410572885639823366
4073 2 18115029726382229026
4214541 1 18410855434754399665
4340502 62 14045744824530450276
465052 167 18272091591514583862
5104073 3 18271801268462210304
542803 24 14345792734129222300
59682541 35 18272359894354014898
59755656 215 18259702285454918003
59755656 520 16877939473262233811

> <PUBCHEM_SHAPE_MULTIPOLES>
389.89
17.28
1.59
0.66
0
0.14
0
-6.56
0
0
0
0
0.03
0.73

> <PUBCHEM_SHAPE_SELFOVERLAP>
832.243

> <PUBCHEM_SHAPE_VOLUME>
216.8

> <PUBCHEM_COORDINATE_TYPE>
2
5
10

$$$$
