12484780
  -OEChem-11012400573D

 44 46  0     1  0  0  0  0  0999 V2000
   -1.4110   -0.2723   -0.1578 S   0  0  0  0  0  0  0  0  0  0  0  0
    1.5267   -0.6622   -0.4647 Si  0  0  0  0  0  0  0  0  0  0  0  0
    1.7407    0.9829   -0.7211 O   0  0  0  0  0  0  0  0  0  0  0  0
    1.6882   -0.9685    1.1779 O   0  0  0  0  0  0  0  0  0  0  0  0
    2.7460   -1.4821   -1.2777 O   0  0  0  0  0  0  0  0  0  0  0  0
    4.4816    0.3087    0.6058 N   0  0  0  0  0  0  0  0  0  0  0  0
    3.9474    1.6142    0.2262 C   0  0  0  0  0  0  0  0  0  0  0  0
    2.4103    1.7890    0.2523 C   0  0  1  0  0  0  0  0  0  0  0  0
    3.9855   -0.2953    1.8381 C   0  0  0  0  0  0  0  0  0  0  0  0
    4.9139   -0.5862   -0.4630 C   0  0  0  0  0  0  0  0  0  0  0  0
    2.9377   -1.4119    1.7009 C   0  0  0  0  0  0  0  0  0  0  0  0
    3.9446   -0.7994   -1.6371 C   0  0  0  0  0  0  0  0  0  0  0  0
   -0.1519   -1.2083   -1.0727 C   0  0  0  0  0  0  0  0  0  0  0  0
    2.0590    3.2399   -0.0872 C   0  0  0  0  0  0  0  0  0  0  0  0
   -2.8871   -0.9957   -0.9117 C   0  0  0  0  0  0  0  0  0  0  0  0
   -4.1547   -0.4123   -0.3508 C   0  0  0  0  0  0  0  0  0  0  0  0
   -4.7157    0.7088   -0.9480 C   0  0  0  0  0  0  0  0  0  0  0  0
   -4.7488   -1.0024    0.7572 C   0  0  0  0  0  0  0  0  0  0  0  0
   -5.8915    1.2498   -0.4280 C   0  0  0  0  0  0  0  0  0  0  0  0
   -5.9248   -0.4614    1.2771 C   0  0  0  0  0  0  0  0  0  0  0  0
   -6.4961    0.6647    0.6844 C   0  0  0  0  0  0  0  0  0  0  0  0
    4.3336    1.8975   -0.7615 H   0  0  0  0  0  0  0  0  0  0  0  0
    4.3795    2.3463    0.9212 H   0  0  0  0  0  0  0  0  0  0  0  0
    2.0061    1.5966    1.2544 H   0  0  0  0  0  0  0  0  0  0  0  0
    3.6010    0.4822    2.5098 H   0  0  0  0  0  0  0  0  0  0  0  0
    4.8505   -0.7231    2.3610 H   0  0  0  0  0  0  0  0  0  0  0  0
    5.1966   -1.5606   -0.0455 H   0  0  0  0  0  0  0  0  0  0  0  0
    5.8418   -0.1721   -0.8778 H   0  0  0  0  0  0  0  0  0  0  0  0
    3.3184   -2.2772    1.1440 H   0  0  0  0  0  0  0  0  0  0  0  0
    2.7253   -1.7900    2.7087 H   0  0  0  0  0  0  0  0  0  0  0  0
    3.7273    0.1321   -2.1748 H   0  0  0  0  0  0  0  0  0  0  0  0
    4.4496   -1.4422   -2.3688 H   0  0  0  0  0  0  0  0  0  0  0  0
   -0.2908   -2.2789   -0.8965 H   0  0  0  0  0  0  0  0  0  0  0  0
   -0.2535   -1.0085   -2.1434 H   0  0  0  0  0  0  0  0  0  0  0  0
    2.5085    3.9369    0.6267 H   0  0  0  0  0  0  0  0  0  0  0  0
    2.3981    3.5005   -1.0960 H   0  0  0  0  0  0  0  0  0  0  0  0
    0.9726    3.3815   -0.0743 H   0  0  0  0  0  0  0  0  0  0  0  0
   -2.8547   -0.8353   -1.9957 H   0  0  0  0  0  0  0  0  0  0  0  0
   -2.8785   -2.0806   -0.7542 H   0  0  0  0  0  0  0  0  0  0  0  0
   -4.2531    1.1734   -1.8143 H   0  0  0  0  0  0  0  0  0  0  0  0
   -4.3121   -1.8791    1.2274 H   0  0  0  0  0  0  0  0  0  0  0  0
   -6.3363    2.1267   -0.8892 H   0  0  0  0  0  0  0  0  0  0  0  0
   -6.3954   -0.9167    2.1436 H   0  0  0  0  0  0  0  0  0  0  0  0
   -7.4115    1.0860    1.0893 H   0  0  0  0  0  0  0  0  0  0  0  0
  1 13  1  0  0  0  0
  1 15  1  0  0  0  0
  2  3  1  0  0  0  0
  2  4  1  0  0  0  0
  2  5  1  0  0  0  0
  2 13  1  0  0  0  0
  3  8  1  0  0  0  0
  4 11  1  0  0  0  0
  5 12  1  0  0  0  0
  6  7  1  0  0  0  0
  6  9  1  0  0  0  0
  6 10  1  0  0  0  0
  7  8  1  0  0  0  0
  7 22  1  0  0  0  0
  7 23  1  0  0  0  0
  8 14  1  0  0  0  0
  8 24  1  0  0  0  0
  9 11  1  0  0  0  0
  9 25  1  0  0  0  0
  9 26  1  0  0  0  0
 10 12  1  0  0  0  0
 10 27  1  0  0  0  0
 10 28  1  0  0  0  0
 11 29  1  0  0  0  0
 11 30  1  0  0  0  0
 12 31  1  0  0  0  0
 12 32  1  0  0  0  0
 13 33  1  0  0  0  0
 13 34  1  0  0  0  0
 14 35  1  0  0  0  0
 14 36  1  0  0  0  0
 14 37  1  0  0  0  0
 15 16  1  0  0  0  0
 15 38  1  0  0  0  0
 15 39  1  0  0  0  0
 16 17  2  0  0  0  0
 16 18  1  0  0  0  0
 17 19  1  0  0  0  0
 17 40  1  0  0  0  0
 18 20  2  0  0  0  0
 18 41  1  0  0  0  0
 19 21  2  0  0  0  0
 19 42  1  0  0  0  0
 20 21  1  0  0  0  0
 20 43  1  0  0  0  0
 21 44  1  0  0  0  0
M  END
> <PUBCHEM_COMPOUND_CID>
12484780

> <PUBCHEM_CONFORMER_RMSD>
0.8

> <PUBCHEM_CONFORMER_DIVERSEORDER>
1
13
16
7
19
11
17
20
2
6
18
12
15
8
14
3
9
5
10
4

> <PUBCHEM_MMFF94_PARTIAL_CHARGES>
25
1 -0.46
10 0.27
11 0.28
12 0.28
13 0.15
15 0.37
16 -0.14
17 -0.15
18 -0.15
19 -0.15
2 0.97
20 -0.15
21 -0.15
3 -0.58
4 -0.58
40 0.15
41 0.15
42 0.15
43 0.15
44 0.15
5 -0.58
6 -0.81
7 0.27
8 0.28
9 0.27

> <PUBCHEM_EFFECTIVE_ROTOR_COUNT>
5.8

> <PUBCHEM_PHARMACOPHORE_FEATURES>
2
1 6 cation
6 16 17 18 19 20 21 rings

> <PUBCHEM_HEAVY_ATOM_COUNT>
21

> <PUBCHEM_ATOM_DEF_STEREO_COUNT>
0

> <PUBCHEM_ATOM_UDEF_STEREO_COUNT>
1

> <PUBCHEM_BOND_DEF_STEREO_COUNT>
0

> <PUBCHEM_BOND_UDEF_STEREO_COUNT>
0

> <PUBCHEM_ISOTOPIC_ATOM_COUNT>
0

> <PUBCHEM_COMPONENT_COUNT>
1

> <PUBCHEM_CACTVS_TAUTO_COUNT>
1

> <PUBCHEM_CONFORMER_ID>
00BE80AC00000001

> <PUBCHEM_MMFF94_ENERGY>
61.5264

> <PUBCHEM_FEATURE_SELFOVERLAP>
10.148

> <PUBCHEM_SHAPE_FINGERPRINT>
11405975 8 18334575780685246883
12596602 18 18261395572216209515
12616971 3 18341046402229940839
12633257 1 18337378418191073615
12670546 177 12319455506850807763
13533116 47 17822005359358738779
13583140 156 17895737557356636375
14251764 75 17982171428604509169
14341114 176 18186802482800362657
14528608 73 14908172058649313687
15183329 4 14045744807661661059
15238133 3 18186800266670902740
15348495 7 18261961846732884547
15788980 27 18272931631156421471
15799311 1 16443362952791655083
1601671 61 18131629010745881244
17844677 252 18260832613952837193
21033648 29 17631719470746114081
21503847 285 18412827996889176660
23503953 91 18272928358312337575
23559900 14 17989494012804546158
239999 70 18408890641845416782
3411729 13 18263645237669291716
351380 3 13262396670389263873
4340502 62 17240762926313641156
5104073 3 18338792446089712563
542803 24 18131350813071856063
633830 44 18341888623710436159
7495541 125 17749106707597214685
90127 26 18409173225234984431
960060 61 10159703503707672811
9971528 1 17847059965164387820

> <PUBCHEM_SHAPE_MULTIPOLES>
431.64
15.11
2.05
1.51
22.5
1.74
-0.33
1.76
-2.72
-1.75
0.12
-0.9
-0.57
0.43

> <PUBCHEM_SHAPE_SELFOVERLAP>
865.257

> <PUBCHEM_SHAPE_VOLUME>
253

> <PUBCHEM_COORDINATE_TYPE>
2
5
10

$$$$
