73695
  -OEChem-11012400573D

 42 44  0     0  0  0  0  0  0999 V2000
   -0.0063   -0.0383    0.5776 Si  0  0  0  0  0  0  0  0  0  0  0  0
    0.1261    0.1180    2.2239 O   0  0  0  0  0  0  0  0  0  0  0  0
   -1.6199   -0.8473    0.1134 C   0  0  0  0  0  0  0  0  0  0  0  0
   -0.0697    1.6460   -0.2140 C   0  0  0  0  0  0  0  0  0  0  0  0
    1.4340   -0.9872   -0.0996 C   0  0  0  0  0  0  0  0  0  0  0  0
   -1.9407   -1.0439   -1.2298 C   0  0  0  0  0  0  0  0  0  0  0  0
   -0.6057    2.7279    0.4860 C   0  0  0  0  0  0  0  0  0  0  0  0
    1.3475   -2.3731   -0.2797 C   0  0  0  0  0  0  0  0  0  0  0  0
   -2.5063   -1.2571    1.1093 C   0  0  0  0  0  0  0  0  0  0  0  0
    0.4197    1.8288   -1.5082 C   0  0  0  0  0  0  0  0  0  0  0  0
    2.6213   -0.3263   -0.4380 C   0  0  0  0  0  0  0  0  0  0  0  0
    1.2760    0.7089    2.8112 C   0  0  0  0  0  0  0  0  0  0  0  0
   -3.1479   -1.6503   -1.5769 C   0  0  0  0  0  0  0  0  0  0  0  0
   -0.6522    3.9897   -0.1067 C   0  0  0  0  0  0  0  0  0  0  0  0
    2.4316   -3.0870   -0.7905 C   0  0  0  0  0  0  0  0  0  0  0  0
   -3.7135   -1.8638    0.7622 C   0  0  0  0  0  0  0  0  0  0  0  0
    0.3736    3.0907   -2.1010 C   0  0  0  0  0  0  0  0  0  0  0  0
    3.7052   -1.0401   -0.9491 C   0  0  0  0  0  0  0  0  0  0  0  0
   -4.0342   -2.0604   -0.5810 C   0  0  0  0  0  0  0  0  0  0  0  0
   -0.1624    4.1711   -1.4002 C   0  0  0  0  0  0  0  0  0  0  0  0
    3.6103   -2.4206   -1.1253 C   0  0  0  0  0  0  0  0  0  0  0  0
    1.1135    0.7143    4.3162 C   0  0  0  0  0  0  0  0  0  0  0  0
   -1.2692   -0.7408   -2.0294 H   0  0  0  0  0  0  0  0  0  0  0  0
   -0.9996    2.6165    1.4937 H   0  0  0  0  0  0  0  0  0  0  0  0
    0.4475   -2.9266   -0.0221 H   0  0  0  0  0  0  0  0  0  0  0  0
   -2.2855   -1.1185    2.1649 H   0  0  0  0  0  0  0  0  0  0  0  0
    0.8175    1.0096   -2.1011 H   0  0  0  0  0  0  0  0  0  0  0  0
    2.7458    0.7437   -0.2897 H   0  0  0  0  0  0  0  0  0  0  0  0
    2.1739    0.1324    2.5589 H   0  0  0  0  0  0  0  0  0  0  0  0
    1.4079    1.7392    2.4610 H   0  0  0  0  0  0  0  0  0  0  0  0
   -3.3974   -1.8048   -2.6227 H   0  0  0  0  0  0  0  0  0  0  0  0
   -1.0710    4.8308    0.4380 H   0  0  0  0  0  0  0  0  0  0  0  0
    2.3589   -4.1622   -0.9258 H   0  0  0  0  0  0  0  0  0  0  0  0
   -4.4038   -2.1833    1.5375 H   0  0  0  0  0  0  0  0  0  0  0  0
    0.7482    3.2310   -3.1106 H   0  0  0  0  0  0  0  0  0  0  0  0
    4.6255   -0.5225   -1.2037 H   0  0  0  0  0  0  0  0  0  0  0  0
   -4.9739   -2.5330   -0.8513 H   0  0  0  0  0  0  0  0  0  0  0  0
   -0.2003    5.1532   -1.8624 H   0  0  0  0  0  0  0  0  0  0  0  0
    4.4550   -2.9768   -1.5213 H   0  0  0  0  0  0  0  0  0  0  0  0
    1.9859    1.1595    4.8026 H   0  0  0  0  0  0  0  0  0  0  0  0
    0.2214    1.2797    4.6053 H   0  0  0  0  0  0  0  0  0  0  0  0
    0.9806   -0.3050    4.6939 H   0  0  0  0  0  0  0  0  0  0  0  0
  1  2  1  0  0  0  0
  1  3  1  0  0  0  0
  1  4  1  0  0  0  0
  1  5  1  0  0  0  0
  2 12  1  0  0  0  0
  3  6  2  0  0  0  0
  3  9  1  0  0  0  0
  4  7  2  0  0  0  0
  4 10  1  0  0  0  0
  5  8  2  0  0  0  0
  5 11  1  0  0  0  0
  6 13  1  0  0  0  0
  6 23  1  0  0  0  0
  7 14  1  0  0  0  0
  7 24  1  0  0  0  0
  8 15  1  0  0  0  0
  8 25  1  0  0  0  0
  9 16  2  0  0  0  0
  9 26  1  0  0  0  0
 10 17  2  0  0  0  0
 10 27  1  0  0  0  0
 11 18  2  0  0  0  0
 11 28  1  0  0  0  0
 12 22  1  0  0  0  0
 12 29  1  0  0  0  0
 12 30  1  0  0  0  0
 13 19  2  0  0  0  0
 13 31  1  0  0  0  0
 14 20  2  0  0  0  0
 14 32  1  0  0  0  0
 15 21  2  0  0  0  0
 15 33  1  0  0  0  0
 16 19  1  0  0  0  0
 16 34  1  0  0  0  0
 17 20  1  0  0  0  0
 17 35  1  0  0  0  0
 18 21  1  0  0  0  0
 18 36  1  0  0  0  0
 19 37  1  0  0  0  0
 20 38  1  0  0  0  0
 21 39  1  0  0  0  0
 22 40  1  0  0  0  0
 22 41  1  0  0  0  0
 22 42  1  0  0  0  0
M  END
> <PUBCHEM_COMPOUND_CID>
73695

> <PUBCHEM_CONFORMER_RMSD>
0.8

> <PUBCHEM_CONFORMER_DIVERSEORDER>
1
2
3

> <PUBCHEM_MMFF94_PARTIAL_CHARGES>
36
1 0.96
10 -0.15
11 -0.15
12 0.28
13 -0.15
14 -0.15
15 -0.15
16 -0.15
17 -0.15
18 -0.15
19 -0.15
2 -0.58
20 -0.15
21 -0.15
23 0.15
24 0.15
25 0.15
26 0.15
27 0.15
28 0.15
3 -0.22
31 0.15
32 0.15
33 0.15
34 0.15
35 0.15
36 0.15
37 0.15
38 0.15
39 0.15
4 -0.22
5 -0.22
6 -0.15
7 -0.15
8 -0.15
9 -0.15

> <PUBCHEM_EFFECTIVE_ROTOR_COUNT>
5

> <PUBCHEM_PHARMACOPHORE_FEATURES>
3
6 3 6 9 13 16 19 rings
6 4 7 10 14 17 20 rings
6 5 8 11 15 18 21 rings

> <PUBCHEM_HEAVY_ATOM_COUNT>
22

> <PUBCHEM_ATOM_DEF_STEREO_COUNT>
0

> <PUBCHEM_ATOM_UDEF_STEREO_COUNT>
0

> <PUBCHEM_BOND_DEF_STEREO_COUNT>
0

> <PUBCHEM_BOND_UDEF_STEREO_COUNT>
0

> <PUBCHEM_ISOTOPIC_ATOM_COUNT>
0

> <PUBCHEM_COMPONENT_COUNT>
1

> <PUBCHEM_CACTVS_TAUTO_COUNT>
1

> <PUBCHEM_CONFORMER_ID>
00011FDF00000001

> <PUBCHEM_MMFF94_ENERGY>
53.228

> <PUBCHEM_FEATURE_SELFOVERLAP>
15.223

> <PUBCHEM_SHAPE_FINGERPRINT>
10871710 139 17975734699025478564
11045515 52 18260840297010903479
11101153 10 18262255369615029094
11578080 2 18059845139047474104
12714826 92 18057326089389215494
12788726 201 18045781191453670311
13004483 165 18337392621685117663
13149001 5 17410742814824499728
13681431 1 18263644120475978781
13911987 19 17754206320522398654
14022347 108 18116135706847566897
14817 1 8171012879452758984
14863182 85 17267199746399765343
15210252 30 18040989605858465333
1813 80 18410578409041969995
20600515 1 17970043695090003547
20602899 9 17046832945943166806
21285901 2 17983293734166206655
21304303 282 17320944613509763828
21524375 3 17033895014083244756
23419403 2 17630016344166625296
23557571 272 18119783890285729522
238 59 17686917411023474511
25222932 49 16376955573222326953
298252 57 16962956705802659434
394222 165 16831573089234929449
46194498 28 18044084881836860615
5845 1 17416708867785446295
68419 9 17099165421542678992
81228 2 18191575363828779789

> <PUBCHEM_SHAPE_MULTIPOLES>
465.09
5.07
4.82
2.8
1.57
5.12
-3.98
-6.92
1.7
0
2.84
-1.15
1.35
0.74

> <PUBCHEM_SHAPE_SELFOVERLAP>
985.879

> <PUBCHEM_SHAPE_VOLUME>
258.7

> <PUBCHEM_COORDINATE_TYPE>
2
5
10

$$$$
