135418545
  -OEChem-11012401123D

 26 27  0     0  0  0  0  0  0999 V2000
    0.0671   -0.0012   -1.7100 O   0  5  0  0  0  0  0  0  0  0  0  0
   -0.0653   -0.0014    1.7096 O   0  5  0  0  0  0  0  0  0  0  0  0
   -0.4061    0.0001   -0.5188 N   0  3  0  0  0  0  0  0  0  0  0  0
    0.3927    0.0001    0.5210 N   0  3  0  0  0  0  0  0  0  0  0  0
   -1.8090    0.0002   -0.2800 C   0  0  0  0  0  0  0  0  0  0  0  0
    1.8109    0.0002    0.2795 C   0  0  0  0  0  0  0  0  0  0  0  0
   -2.4965    1.2081   -0.1628 C   0  0  0  0  0  0  0  0  0  0  0  0
    2.4984    1.2082    0.1625 C   0  0  0  0  0  0  0  0  0  0  0  0
   -2.4964   -1.2077   -0.1629 C   0  0  0  0  0  0  0  0  0  0  0  0
    2.4984   -1.2077    0.1625 C   0  0  0  0  0  0  0  0  0  0  0  0
   -3.8716    1.2082    0.0714 C   0  0  0  0  0  0  0  0  0  0  0  0
    3.8736    1.2082   -0.0716 C   0  0  0  0  0  0  0  0  0  0  0  0
   -3.8715   -1.2078    0.0712 C   0  0  0  0  0  0  0  0  0  0  0  0
    3.8734   -1.2079   -0.0716 C   0  0  0  0  0  0  0  0  0  0  0  0
   -4.5591    0.0001    0.1885 C   0  0  0  0  0  0  0  0  0  0  0  0
    4.5611    0.0002   -0.1887 C   0  0  0  0  0  0  0  0  0  0  0  0
   -1.9696    2.1546   -0.2524 H   0  0  0  0  0  0  0  0  0  0  0  0
    1.9712    2.1543    0.2522 H   0  0  0  0  0  0  0  0  0  0  0  0
   -1.9696   -2.1542   -0.2526 H   0  0  0  0  0  0  0  0  0  0  0  0
    1.9711   -2.1539    0.2523 H   0  0  0  0  0  0  0  0  0  0  0  0
   -4.4070    2.1487    0.1627 H   0  0  0  0  0  0  0  0  0  0  0  0
    4.4089    2.1488   -0.1629 H   0  0  0  0  0  0  0  0  0  0  0  0
   -4.4068   -2.1484    0.1624 H   0  0  0  0  0  0  0  0  0  0  0  0
    4.4088   -2.1484   -0.1628 H   0  0  0  0  0  0  0  0  0  0  0  0
   -5.6297    0.0001    0.3709 H   0  0  0  0  0  0  0  0  0  0  0  0
    5.6317    0.0001   -0.3710 H   0  0  0  0  0  0  0  0  0  0  0  0
  1  3  1  0  0  0  0
  2  4  1  0  0  0  0
  3  4  2  0  0  0  0
  3  5  1  0  0  0  0
  4  6  1  0  0  0  0
  5  7  2  0  0  0  0
  5  9  1  0  0  0  0
  6  8  2  0  0  0  0
  6 10  1  0  0  0  0
  7 11  1  0  0  0  0
  7 17  1  0  0  0  0
  8 12  1  0  0  0  0
  8 18  1  0  0  0  0
  9 13  2  0  0  0  0
  9 19  1  0  0  0  0
 10 14  2  0  0  0  0
 10 20  1  0  0  0  0
 11 15  2  0  0  0  0
 11 21  1  0  0  0  0
 12 16  2  0  0  0  0
 12 22  1  0  0  0  0
 13 15  1  0  0  0  0
 13 23  1  0  0  0  0
 14 16  1  0  0  0  0
 14 24  1  0  0  0  0
 15 25  1  0  0  0  0
 16 26  1  0  0  0  0
M  CHG  4   1  -1   2  -1   3   1   4   1
M  END
> <PUBCHEM_COMPOUND_CID>
135418545

> <PUBCHEM_CONFORMER_RMSD>
0.6

> <PUBCHEM_CONFORMER_DIVERSEORDER>
1
3
2

> <PUBCHEM_MMFF94_PARTIAL_CHARGES>
26
1 -0.63
10 -0.15
11 -0.15
12 -0.15
13 -0.15
14 -0.15
15 -0.15
16 -0.15
17 0.15
18 0.15
19 0.15
2 -0.63
20 0.15
21 0.15
22 0.15
23 0.15
24 0.15
25 0.15
26 0.15
3 0.66
4 0.66
5 -0.03
6 -0.03
7 -0.15
8 -0.15
9 -0.15

> <PUBCHEM_EFFECTIVE_ROTOR_COUNT>
2

> <PUBCHEM_PHARMACOPHORE_FEATURES>
4
1 1 anion
1 2 anion
6 5 7 9 11 13 15 rings
6 6 8 10 12 14 16 rings

> <PUBCHEM_HEAVY_ATOM_COUNT>
16

> <PUBCHEM_ATOM_DEF_STEREO_COUNT>
0

> <PUBCHEM_ATOM_UDEF_STEREO_COUNT>
0

> <PUBCHEM_BOND_DEF_STEREO_COUNT>
1

> <PUBCHEM_BOND_UDEF_STEREO_COUNT>
0

> <PUBCHEM_ISOTOPIC_ATOM_COUNT>
0

> <PUBCHEM_COMPONENT_COUNT>
1

> <PUBCHEM_CACTVS_TAUTO_COUNT>
-1

> <PUBCHEM_CONFORMER_ID>
081252B100000001

> <PUBCHEM_MMFF94_ENERGY>
58.8035

> <PUBCHEM_FEATURE_SELFOVERLAP>
20.298

> <PUBCHEM_SHAPE_FINGERPRINT>
10616163 171 18340769342121739271
11132069 177 17095521815933070110
11615757 297 17918279774244157288
12107183 9 17690280413139023459
124424 183 17703787011996812483
13167823 11 18410854360616930278
13675066 3 17632289064913773518
13760787 19 18343864428577312598
14289901 80 18410011073868566545
14341114 176 18411145735630213433
15239154 128 18410575088958403489
15309172 13 15502376720705767041
16752209 62 16343426098553317426
17834072 33 18411979195624824983
17834074 16 18410575088958468451
18186145 218 17967526865882351216
19026448 4 18410572889934836133
19026448 5 18410572889934836134
19422 9 18410855460128181283
200 152 18273215296355404618
20645477 70 18342459197288888334
21267235 1 18410864260516391650
23175994 123 17060624399526415865
23402539 116 17023177215506963046
23402655 69 18409730647233329364
23557571 272 18340775861923863997
23559900 14 18200030612726253230
3545911 37 18410857663451880284
42 15 18409168800711820422
4214541 1 18410855438885596297
474 4 17532095071458646364
4990 188 18260268521242475754
5104073 3 18410572885660929826
633830 44 17458064858712011004
69090 78 18260265269609555787
7495541 125 17774437308439519171
74978 22 15625645236859059747
77779 3 18410856559639796068
8272917 22 18129668491150692022
9709674 26 18410862070094152943

> <PUBCHEM_SHAPE_MULTIPOLES>
307.57
9.51
1.38
0.92
0.02
0
0
0
0
0
0
0
0
0

> <PUBCHEM_SHAPE_SELFOVERLAP>
660.35

> <PUBCHEM_SHAPE_VOLUME>
169.1

> <PUBCHEM_COORDINATE_TYPE>
2
5
10

$$$$
