417945
  -OEChem-11012401273D

 31 31  0     0  0  0  0  0  0999 V2000
    0.2594    1.0510    1.5481 O   0  0  0  0  0  0  0  0  0  0  0  0
    2.3249   -0.0114    0.0702 N   0  0  0  0  0  0  0  0  0  0  0  0
    1.0453   -0.7185    0.1064 C   0  0  0  0  0  0  0  0  0  0  0  0
    2.2165    1.2005   -0.7409 C   0  0  0  0  0  0  0  0  0  0  0  0
    3.3762   -0.8838   -0.4520 C   0  0  0  0  0  0  0  0  0  0  0  0
   -0.0081    0.1927    0.7097 C   0  0  0  0  0  0  0  0  0  0  0  0
    3.5380    1.9486   -0.7896 C   0  0  0  0  0  0  0  0  0  0  0  0
    3.5445   -2.1201    0.4147 C   0  0  0  0  0  0  0  0  0  0  0  0
   -1.4242    0.0347    0.2629 C   0  0  0  0  0  0  0  0  0  0  0  0
   -1.8538   -1.2104   -0.1348 C   0  0  0  0  0  0  0  0  0  0  0  0
   -2.2432    1.1400    0.2670 C   0  0  0  0  0  0  0  0  0  0  0  0
   -3.1766   -1.3581   -0.5520 C   0  0  0  0  0  0  0  0  0  0  0  0
   -3.5660    0.9920   -0.1501 C   0  0  0  0  0  0  0  0  0  0  0  0
   -4.0326   -0.2571   -0.5596 C   0  0  0  0  0  0  0  0  0  0  0  0
    0.7522   -1.0324   -0.9022 H   0  0  0  0  0  0  0  0  0  0  0  0
    1.0751   -1.5922    0.7650 H   0  0  0  0  0  0  0  0  0  0  0  0
    1.8964    0.9710   -1.7659 H   0  0  0  0  0  0  0  0  0  0  0  0
    1.4851    1.9041   -0.3321 H   0  0  0  0  0  0  0  0  0  0  0  0
    3.1850   -1.1818   -1.4906 H   0  0  0  0  0  0  0  0  0  0  0  0
    4.3488   -0.3825   -0.4262 H   0  0  0  0  0  0  0  0  0  0  0  0
    3.9759    2.0677    0.2073 H   0  0  0  0  0  0  0  0  0  0  0  0
    4.2689    1.4701   -1.4488 H   0  0  0  0  0  0  0  0  0  0  0  0
    3.3728    2.9544   -1.1929 H   0  0  0  0  0  0  0  0  0  0  0  0
    3.6097   -1.8652    1.4782 H   0  0  0  0  0  0  0  0  0  0  0  0
    2.7374   -2.8450    0.2714 H   0  0  0  0  0  0  0  0  0  0  0  0
    4.4748   -2.6333    0.1452 H   0  0  0  0  0  0  0  0  0  0  0  0
   -1.2141   -2.0866   -0.1203 H   0  0  0  0  0  0  0  0  0  0  0  0
   -1.8914    2.1189    0.5778 H   0  0  0  0  0  0  0  0  0  0  0  0
   -3.5415   -2.3315   -0.8668 H   0  0  0  0  0  0  0  0  0  0  0  0
   -4.2325    1.8496   -0.1572 H   0  0  0  0  0  0  0  0  0  0  0  0
   -5.0628   -0.3724   -0.8837 H   0  0  0  0  0  0  0  0  0  0  0  0
  1  6  2  0  0  0  0
  2  3  1  0  0  0  0
  2  4  1  0  0  0  0
  2  5  1  0  0  0  0
  3  6  1  0  0  0  0
  3 15  1  0  0  0  0
  3 16  1  0  0  0  0
  4  7  1  0  0  0  0
  4 17  1  0  0  0  0
  4 18  1  0  0  0  0
  5  8  1  0  0  0  0
  5 19  1  0  0  0  0
  5 20  1  0  0  0  0
  6  9  1  0  0  0  0
  7 21  1  0  0  0  0
  7 22  1  0  0  0  0
  7 23  1  0  0  0  0
  8 24  1  0  0  0  0
  8 25  1  0  0  0  0
  8 26  1  0  0  0  0
  9 10  2  0  0  0  0
  9 11  1  0  0  0  0
 10 12  1  0  0  0  0
 10 27  1  0  0  0  0
 11 13  2  0  0  0  0
 11 28  1  0  0  0  0
 12 14  2  0  0  0  0
 12 29  1  0  0  0  0
 13 14  1  0  0  0  0
 13 30  1  0  0  0  0
 14 31  1  0  0  0  0
M  END
> <PUBCHEM_COMPOUND_CID>
417945

> <PUBCHEM_CONFORMER_RMSD>
0.6

> <PUBCHEM_CONFORMER_DIVERSEORDER>
1
47
30
10
3
35
23
49
39
4
44
14
21
43
36
51
45
27
13
26
40
25
53
37
50
17
16
46
20
38
33
29
31
28
9
48
52
18
6
41
5
7
32
24
12
42
8
15
11
19
2
34
22

> <PUBCHEM_MMFF94_PARTIAL_CHARGES>
17
1 -0.57
10 -0.15
11 -0.15
12 -0.15
13 -0.15
14 -0.15
2 -0.81
27 0.15
28 0.15
29 0.15
3 0.33
30 0.15
31 0.15
4 0.27
5 0.27
6 0.42
9 0.09

> <PUBCHEM_EFFECTIVE_ROTOR_COUNT>
5

> <PUBCHEM_PHARMACOPHORE_FEATURES>
3
1 1 acceptor
1 2 cation
6 9 10 11 12 13 14 rings

> <PUBCHEM_HEAVY_ATOM_COUNT>
14

> <PUBCHEM_ATOM_DEF_STEREO_COUNT>
0

> <PUBCHEM_ATOM_UDEF_STEREO_COUNT>
0

> <PUBCHEM_BOND_DEF_STEREO_COUNT>
0

> <PUBCHEM_BOND_UDEF_STEREO_COUNT>
0

> <PUBCHEM_ISOTOPIC_ATOM_COUNT>
0

> <PUBCHEM_COMPONENT_COUNT>
1

> <PUBCHEM_CACTVS_TAUTO_COUNT>
2

> <PUBCHEM_CONFORMER_ID>
0006609900000001

> <PUBCHEM_MMFF94_ENERGY>
32.9282

> <PUBCHEM_FEATURE_SELFOVERLAP>
15.223

> <PUBCHEM_SHAPE_FINGERPRINT>
10062212 137 18200867379787673175
10130415 120 18130786724445653923
10465860 250 17702934847155987218
10465860 71 17489038148500967453
11543360 7 18261392294982127911
11715629 250 17822002121037663437
12707595 3 16845293877383749928
12932764 1 17774439507209573347
13760787 5 18412263935214380895
14115302 16 18272651212229891107
14250199 8 18040442108928498660
14350558 41 18059858316302348374
15442244 35 18264770965481458564
18186145 218 17095242514241427227
18619055 16 18342176678281235374
19422 9 18412265034346330415
200 152 18344148090124718062
20279233 1 15913324671917791871
20281475 54 18201156641613788531
20361792 2 15769779073894230017
20645476 183 18341617082665929670
20645477 70 18410014329665280150
20671657 53 18263363595045918478
20871999 31 18266168621344794263
21119208 17 18334012757290061735
21501502 16 18413390938468928105
21618674 54 18335983180763669006
22096605 113 18263086659712606396
2255824 54 18259987063667433706
23402539 116 18058719188049195453
23402655 69 18335423447830598820
23463225 33 18341612572939679878
23532345 88 18407758132031417468
23557571 272 16701464433930711136
23559900 14 18130218264692828490
23598291 2 18338809905152745916
2748010 2 17044569605357029163
3082319 5 18409732880241666612
474 4 17458912668240331732
53777708 50 18411143549375613825
57096353 35 18340486789102131429
58051976 100 18335704910059577039
633830 44 17022905631476139565
67856867 119 18338227267491414824
7364860 26 18410855473704127704
81228 2 16127270878434278496
93112 12 18408042909437214382
9709674 26 18410862061620295446
9939556 21 18410013204167063828
9981440 41 17901385924719422552

> <PUBCHEM_SHAPE_MULTIPOLES>
277.26
7.74
1.91
0.94
0.11
0.1
0.16
0.59
-1.88
-1.64
-0.16
-0.12
-0.19
-0.87

> <PUBCHEM_SHAPE_SELFOVERLAP>
560.219

> <PUBCHEM_SHAPE_VOLUME>
163.7

> <PUBCHEM_COORDINATE_TYPE>
2
5
10

$$$$
