11443
  -OEChem-11012400573D

 19 19  0     0  0  0  0  0  0999 V2000
   -2.7406    2.2677    0.8250 O   0  0  0  0  0  0  0  0  0  0  0  0
    3.5932    1.3801    0.9852 O   0  0  0  0  0  0  0  0  0  0  0  0
   -2.1232    0.7394   -0.8570 N   0  0  0  0  0  0  0  0  0  0  0  0
    2.6597    0.0716   -0.7372 N   0  0  0  0  0  0  0  0  0  0  0  0
   -1.2056   -1.2664    0.1628 C   0  0  0  0  0  0  0  0  0  0  0  0
   -1.0242   -0.0485   -0.4925 C   0  0  0  0  0  0  0  0  0  0  0  0
   -0.0998   -2.0387    0.5184 C   0  0  0  0  0  0  0  0  0  0  0  0
    0.2631    0.3971   -0.7922 C   0  0  0  0  0  0  0  0  0  0  0  0
    1.3690   -0.3752   -0.4366 C   0  0  0  0  0  0  0  0  0  0  0  0
    1.1874   -1.5931    0.2187 C   0  0  0  0  0  0  0  0  0  0  0  0
   -2.5743   -1.7642    0.4954 C   0  0  0  0  0  0  0  0  0  0  0  0
   -2.4316    1.5039   -0.0150 C   0  0  0  0  0  0  0  0  0  0  0  0
    3.1268    0.7265    0.1250 C   0  0  0  0  0  0  0  0  0  0  0  0
   -0.2237   -2.9892    1.0305 H   0  0  0  0  0  0  0  0  0  0  0  0
    0.4054    1.3447   -1.3076 H   0  0  0  0  0  0  0  0  0  0  0  0
    2.0416   -2.2042    0.4990 H   0  0  0  0  0  0  0  0  0  0  0  0
   -3.2295   -1.7202   -0.3810 H   0  0  0  0  0  0  0  0  0  0  0  0
   -2.5550   -2.8094    0.8235 H   0  0  0  0  0  0  0  0  0  0  0  0
   -3.0107   -1.1703    1.3048 H   0  0  0  0  0  0  0  0  0  0  0  0
  1 12  2  0  0  0  0
  2 13  2  0  0  0  0
  3  6  1  0  0  0  0
  3 12  2  0  0  0  0
  4  9  1  0  0  0  0
  4 13  2  0  0  0  0
  5  6  2  0  0  0  0
  5  7  1  0  0  0  0
  5 11  1  0  0  0  0
  6  8  1  0  0  0  0
  7 10  2  0  0  0  0
  7 14  1  0  0  0  0
  8  9  2  0  0  0  0
  8 15  1  0  0  0  0
  9 10  1  0  0  0  0
 10 16  1  0  0  0  0
 11 17  1  0  0  0  0
 11 18  1  0  0  0  0
 11 19  1  0  0  0  0
M  END
> <PUBCHEM_COMPOUND_CID>
11443

> <PUBCHEM_CONFORMER_RMSD>
0.6

> <PUBCHEM_CONFORMER_DIVERSEORDER>
3
12
6
4
2
9
11
5
7
10
1
8

> <PUBCHEM_MMFF94_PARTIAL_CHARGES>
16
1 -0.49
10 -0.15
11 0.14
12 0.79
13 0.79
14 0.15
15 0.15
16 0.15
2 -0.49
3 -0.48
4 -0.48
5 -0.14
6 0.18
7 -0.15
8 -0.15
9 0.18

> <PUBCHEM_EFFECTIVE_ROTOR_COUNT>
2

> <PUBCHEM_PHARMACOPHORE_FEATURES>
3
1 3 acceptor
1 4 acceptor
6 5 6 7 8 9 10 rings

> <PUBCHEM_HEAVY_ATOM_COUNT>
13

> <PUBCHEM_ATOM_DEF_STEREO_COUNT>
0

> <PUBCHEM_ATOM_UDEF_STEREO_COUNT>
0

> <PUBCHEM_BOND_DEF_STEREO_COUNT>
0

> <PUBCHEM_BOND_UDEF_STEREO_COUNT>
0

> <PUBCHEM_ISOTOPIC_ATOM_COUNT>
0

> <PUBCHEM_COMPONENT_COUNT>
1

> <PUBCHEM_CACTVS_TAUTO_COUNT>
1

> <PUBCHEM_CONFORMER_ID>
00002CB300000003

> <PUBCHEM_MMFF94_ENERGY>
32.5854

> <PUBCHEM_FEATURE_SELFOVERLAP>
15.223

> <PUBCHEM_SHAPE_FINGERPRINT>
12382932 28 18260263027736724004
13380535 21 18262814955485839958
13764800 53 18411425007346723833
13839132 238 18413393124628387526
14614273 12 18040703775763830159
16945 1 18190753122325831278
17357990 137 17125928578387629225
19837323 101 18342458140478708247
20304884 271 18272090448399311193
20510252 161 18266179607158636418
20525323 117 18336824290074117415
20653085 51 17631740352602852301
21501502 16 18334857173556847658
21524375 3 18339357444552421783
2334 1 18260831492328212478
23402539 116 18194389211573925487
23419403 2 16121031480817990351
23500284 214 18342179946793870704
2748010 2 18260835855999213127
6333449 129 18409165532241747207
7364860 26 18124310506727657710
81228 2 18116444810895601899

> <PUBCHEM_SHAPE_MULTIPOLES>
245.83
4.9
2.25
0.9
2.69
0.08
-0.02
-2.53
-1.05
-1.51
-0.66
0.09
-0.2
0.22

> <PUBCHEM_SHAPE_SELFOVERLAP>
524.051

> <PUBCHEM_SHAPE_VOLUME>
134.9

> <PUBCHEM_COORDINATE_TYPE>
2
5
10

$$$$
