123183
  -OEChem-11012400303D

 18 17  0     0  0  0  0  0  0999 V2000
   -3.0706   -0.8276   -0.1944 O   0  5  0  0  0  0  0  0  0  0  0  0
   -2.2924    1.2220    0.1030 O   0  0  0  0  0  0  0  0  0  0  0  0
   -0.9297   -0.5419    0.1907 N   0  0  0  0  0  0  0  0  0  0  0  0
   -2.1749   -0.0044    0.0128 N   0  3  0  0  0  0  0  0  0  0  0  0
    1.5169   -0.4148    0.1194 C   0  0  0  0  0  0  0  0  0  0  0  0
    2.7176    0.4799   -0.1907 C   0  0  0  0  0  0  0  0  0  0  0  0
    0.2017    0.3337   -0.0902 C   0  0  0  0  0  0  0  0  0  0  0  0
    4.0312   -0.2469    0.0495 C   0  0  0  0  0  0  0  0  0  0  0  0
    1.5494   -1.3021   -0.5258 H   0  0  0  0  0  0  0  0  0  0  0  0
    1.5806   -0.7678    1.1566 H   0  0  0  0  0  0  0  0  0  0  0  0
    2.6856    1.3778    0.4373 H   0  0  0  0  0  0  0  0  0  0  0  0
    2.6749    0.8120   -1.2345 H   0  0  0  0  0  0  0  0  0  0  0  0
    0.1876    1.2072    0.5737 H   0  0  0  0  0  0  0  0  0  0  0  0
    0.1524    0.6934   -1.1257 H   0  0  0  0  0  0  0  0  0  0  0  0
    4.8756    0.4107   -0.1794 H   0  0  0  0  0  0  0  0  0  0  0  0
    4.1199   -0.5624    1.0940 H   0  0  0  0  0  0  0  0  0  0  0  0
    4.1100   -1.1348   -0.5859 H   0  0  0  0  0  0  0  0  0  0  0  0
   -0.8848   -1.4367   -0.2913 H   0  0  0  0  0  0  0  0  0  0  0  0
  1  4  1  0  0  0  0
  2  4  2  0  0  0  0
  3  4  1  0  0  0  0
  3  7  1  0  0  0  0
  3 18  1  0  0  0  0
  5  6  1  0  0  0  0
  5  7  1  0  0  0  0
  5  9  1  0  0  0  0
  5 10  1  0  0  0  0
  6  8  1  0  0  0  0
  6 11  1  0  0  0  0
  6 12  1  0  0  0  0
  7 13  1  0  0  0  0
  7 14  1  0  0  0  0
  8 15  1  0  0  0  0
  8 16  1  0  0  0  0
  8 17  1  0  0  0  0
M  CHG  2   1  -1   4   1
M  END
> <PUBCHEM_COMPOUND_CID>
123183

> <PUBCHEM_CONFORMER_RMSD>
0.6

> <PUBCHEM_CONFORMER_DIVERSEORDER>
1
22
31
30
27
29
3
34
2
26
28
36
12
35
33
21
7
24
13
32
16
20
19
4
17
5
8
15
23
10
9
11
14
6
18
25

> <PUBCHEM_MMFF94_PARTIAL_CHARGES>
6
1 -0.52
18 0.36
2 -0.52
3 -0.62
4 1.03
7 0.27

> <PUBCHEM_EFFECTIVE_ROTOR_COUNT>
4

> <PUBCHEM_PHARMACOPHORE_FEATURES>
4
1 1 acceptor
1 2 acceptor
1 3 donor
1 8 hydrophobe

> <PUBCHEM_HEAVY_ATOM_COUNT>
8

> <PUBCHEM_ATOM_DEF_STEREO_COUNT>
0

> <PUBCHEM_ATOM_UDEF_STEREO_COUNT>
0

> <PUBCHEM_BOND_DEF_STEREO_COUNT>
0

> <PUBCHEM_BOND_UDEF_STEREO_COUNT>
0

> <PUBCHEM_ISOTOPIC_ATOM_COUNT>
0

> <PUBCHEM_COMPONENT_COUNT>
1

> <PUBCHEM_CACTVS_TAUTO_COUNT>
1

> <PUBCHEM_CONFORMER_ID>
0001E12F00000001

> <PUBCHEM_MMFF94_ENERGY>
2.1668

> <PUBCHEM_FEATURE_SELFOVERLAP>
20.373

> <PUBCHEM_SHAPE_FINGERPRINT>
11062470 55 8358261445067175902
12932764 1 17203599385322360238
14325111 11 18411138030738290310
14390081 3 18412261735669106840
3248919 1 17603874407376053722
5460574 1 9295292737415922082

> <PUBCHEM_SHAPE_MULTIPOLES>
142.94
6.32
0.91
0.59
2.05
0.12
0
-0.4
-0.14
-0.42
0.01
0.11
0
-0.14

> <PUBCHEM_SHAPE_SELFOVERLAP>
254.721

> <PUBCHEM_SHAPE_VOLUME>
93.9

> <PUBCHEM_COORDINATE_TYPE>
2
5
10

$$$$
