61032
  -OEChem-11012400303D

 13 12  0     0  0  0  0  0  0999 V2000
   -1.2649   -0.3252    0.3415 O   0  0  0  0  0  0  0  0  0  0  0  0
    2.3128   -0.9224   -0.1123 N   0  0  0  0  0  0  0  0  0  0  0  0
   -0.7177    0.7903   -0.3508 C   0  0  0  0  0  0  0  0  0  0  0  0
    0.6659    1.1052    0.2003 C   0  0  0  0  0  0  0  0  0  0  0  0
   -2.5818   -0.6192   -0.1035 C   0  0  0  0  0  0  0  0  0  0  0  0
    1.5857   -0.0287    0.0249 C   0  0  0  0  0  0  0  0  0  0  0  0
   -0.6588    0.5603   -1.4218 H   0  0  0  0  0  0  0  0  0  0  0  0
   -1.3682    1.6622   -0.2147 H   0  0  0  0  0  0  0  0  0  0  0  0
    0.5901    1.3322    1.2701 H   0  0  0  0  0  0  0  0  0  0  0  0
    1.0685    1.9925   -0.2998 H   0  0  0  0  0  0  0  0  0  0  0  0
   -2.5805   -0.8669   -1.1694 H   0  0  0  0  0  0  0  0  0  0  0  0
   -3.2492    0.2270    0.0864 H   0  0  0  0  0  0  0  0  0  0  0  0
   -2.9488   -1.4844    0.4551 H   0  0  0  0  0  0  0  0  0  0  0  0
  1  3  1  0  0  0  0
  1  5  1  0  0  0  0
  2  6  3  0  0  0  0
  3  4  1  0  0  0  0
  3  7  1  0  0  0  0
  3  8  1  0  0  0  0
  4  6  1  0  0  0  0
  4  9  1  0  0  0  0
  4 10  1  0  0  0  0
  5 11  1  0  0  0  0
  5 12  1  0  0  0  0
  5 13  1  0  0  0  0
M  END
> <PUBCHEM_COMPOUND_CID>
61032

> <PUBCHEM_CONFORMER_RMSD>
0.4

> <PUBCHEM_CONFORMER_DIVERSEORDER>
1
5
6
7
4
3
2

> <PUBCHEM_MMFF94_PARTIAL_CHARGES>
6
1 -0.56
2 -0.56
3 0.28
4 0.2
5 0.28
6 0.36

> <PUBCHEM_EFFECTIVE_ROTOR_COUNT>
2

> <PUBCHEM_PHARMACOPHORE_FEATURES>
2
1 1 acceptor
1 2 acceptor

> <PUBCHEM_HEAVY_ATOM_COUNT>
6

> <PUBCHEM_ATOM_DEF_STEREO_COUNT>
0

> <PUBCHEM_ATOM_UDEF_STEREO_COUNT>
0

> <PUBCHEM_BOND_DEF_STEREO_COUNT>
0

> <PUBCHEM_BOND_UDEF_STEREO_COUNT>
0

> <PUBCHEM_ISOTOPIC_ATOM_COUNT>
0

> <PUBCHEM_COMPONENT_COUNT>
1

> <PUBCHEM_CACTVS_TAUTO_COUNT>
1

> <PUBCHEM_CONFORMER_ID>
0000EE6800000001

> <PUBCHEM_MMFF94_ENERGY>
6.1283

> <PUBCHEM_FEATURE_SELFOVERLAP>
10.149

> <PUBCHEM_SHAPE_FINGERPRINT>
139733 1 9367344833980250088
23552449 11 18201715210294171737
29004967 10 18411980295009865152
5460574 1 9295294940723595441

> <PUBCHEM_SHAPE_MULTIPOLES>
112.63
3.39
1.12
0.63
0.87
0.13
0.01
-1.45
0.09
-0.24
0.02
0.04
0.03
0.1

> <PUBCHEM_SHAPE_SELFOVERLAP>
197.005

> <PUBCHEM_SHAPE_VOLUME>
72.8

> <PUBCHEM_COORDINATE_TYPE>
2
5
10

$$$$
