81899
  -OEChem-11012400363D

 14 13  0     0  0  0  0  0  0999 V2000
   -0.5328    0.6401   -0.5496 S   0  0  0  0  0  0  0  0  0  0  0  0
    2.9236   -0.9837    0.1612 O   0  0  0  0  0  0  0  0  0  0  0  0
    2.3438    1.1846   -0.1967 O   0  0  0  0  0  0  0  0  0  0  0  0
   -2.9257    0.8443    0.5525 N   0  0  0  0  0  0  0  0  0  0  0  0
   -2.3689   -1.2751   -0.3288 N   0  0  0  0  0  0  0  0  0  0  0  0
    0.6220   -0.4066    0.3627 C   0  0  0  0  0  0  0  0  0  0  0  0
    2.0286    0.0329    0.0744 C   0  0  0  0  0  0  0  0  0  0  0  0
   -2.0905   -0.0364   -0.0755 C   0  0  0  0  0  0  0  0  0  0  0  0
    0.4987   -1.4438    0.0382 H   0  0  0  0  0  0  0  0  0  0  0  0
    0.4407   -0.3349    1.4385 H   0  0  0  0  0  0  0  0  0  0  0  0
   -3.8475    0.5625    0.8681 H   0  0  0  0  0  0  0  0  0  0  0  0
   -2.6477    1.8047    0.7220 H   0  0  0  0  0  0  0  0  0  0  0  0
    3.8388   -0.6821   -0.0223 H   0  0  0  0  0  0  0  0  0  0  0  0
   -1.5759   -1.7046   -0.8164 H   0  0  0  0  0  0  0  0  0  0  0  0
  1  6  1  0  0  0  0
  1  8  1  0  0  0  0
  2  7  1  0  0  0  0
  2 13  1  0  0  0  0
  3  7  2  0  0  0  0
  4  8  1  0  0  0  0
  4 11  1  0  0  0  0
  4 12  1  0  0  0  0
  5  8  2  0  0  0  0
  5 14  1  0  0  0  0
  6  7  1  0  0  0  0
  6  9  1  0  0  0  0
  6 10  1  0  0  0  0
M  END
> <PUBCHEM_COMPOUND_CID>
81899

> <PUBCHEM_CONFORMER_RMSD>
0.6

> <PUBCHEM_CONFORMER_DIVERSEORDER>
1
9
10
2
3
7
6
11
8
4
5

> <PUBCHEM_MMFF94_PARTIAL_CHARGES>
12
1 -0.37
11 0.4
12 0.4
13 0.5
14 0.4
2 -0.65
3 -0.57
4 -0.85
5 -0.85
6 0.29
7 0.66
8 0.64

> <PUBCHEM_EFFECTIVE_ROTOR_COUNT>
3

> <PUBCHEM_PHARMACOPHORE_FEATURES>
6
1 2 acceptor
1 3 acceptor
1 4 donor
1 5 donor
3 2 3 7 anion
3 4 5 8 cation

> <PUBCHEM_HEAVY_ATOM_COUNT>
8

> <PUBCHEM_ATOM_DEF_STEREO_COUNT>
0

> <PUBCHEM_ATOM_UDEF_STEREO_COUNT>
0

> <PUBCHEM_BOND_DEF_STEREO_COUNT>
0

> <PUBCHEM_BOND_UDEF_STEREO_COUNT>
0

> <PUBCHEM_ISOTOPIC_ATOM_COUNT>
0

> <PUBCHEM_COMPONENT_COUNT>
1

> <PUBCHEM_CACTVS_TAUTO_COUNT>
1

> <PUBCHEM_CONFORMER_ID>
00013FEB00000001

> <PUBCHEM_MMFF94_ENERGY>
10.0412

> <PUBCHEM_FEATURE_SELFOVERLAP>
30.542

> <PUBCHEM_SHAPE_FINGERPRINT>
12897270 3 17968087625186297278
12932764 1 17676762102374928350
14325111 11 18411138056101886208
14390081 3 18201154446484567273
23235687 12 18411699867962853318
23552423 10 18260546727432608470
29004967 10 16515404066623388333
3248919 1 18060697277738362477
5460574 1 10303817587549607141

> <PUBCHEM_SHAPE_MULTIPOLES>
146.79
4.78
1.16
0.7
0.16
0.05
0.02
0.29
-0.39
0
0.06
-0.17
-0.05
-0.32

> <PUBCHEM_SHAPE_SELFOVERLAP>
261.955

> <PUBCHEM_SHAPE_VOLUME>
95.2

> <PUBCHEM_COORDINATE_TYPE>
2
5
10

$$$$
