144750
  -OEChem-11012400533D

 20 19  0     0  0  0  0  0  0999 V2000
    1.3695   -0.1467    0.0007 O   0  0  0  0  0  0  0  0  0  0  0  0
   -1.0473   -1.3027   -0.0132 O   0  0  0  0  0  0  0  0  0  0  0  0
   -2.3154    0.7514   -0.0057 C   0  0  0  0  0  0  0  0  0  0  0  0
    0.2537    0.7185   -0.0092 C   0  0  0  0  0  0  0  0  0  0  0  0
   -1.0398   -0.0726   -0.0094 C   0  0  0  0  0  0  0  0  0  0  0  0
    2.5991    0.5727    0.0012 C   0  0  0  0  0  0  0  0  0  0  0  0
   -3.5672   -0.1068    0.0235 C   0  0  0  0  0  0  0  0  0  0  0  0
    3.7474   -0.4138    0.0121 C   0  0  0  0  0  0  0  0  0  0  0  0
   -2.3205    1.3768   -0.9045 H   0  0  0  0  0  0  0  0  0  0  0  0
   -2.2991    1.4024    0.8746 H   0  0  0  0  0  0  0  0  0  0  0  0
    0.2725    1.3402   -0.9107 H   0  0  0  0  0  0  0  0  0  0  0  0
    0.2660    1.3510    0.8849 H   0  0  0  0  0  0  0  0  0  0  0  0
    2.6593    1.2009   -0.8946 H   0  0  0  0  0  0  0  0  0  0  0  0
    2.6522    1.2122    0.8894 H   0  0  0  0  0  0  0  0  0  0  0  0
   -3.6152   -0.7623   -0.8524 H   0  0  0  0  0  0  0  0  0  0  0  0
   -3.5895   -0.7393    0.9171 H   0  0  0  0  0  0  0  0  0  0  0  0
   -4.4616    0.5236    0.0281 H   0  0  0  0  0  0  0  0  0  0  0  0
    4.7095    0.1060    0.0127 H   0  0  0  0  0  0  0  0  0  0  0  0
    3.6934   -1.0584    0.8955 H   0  0  0  0  0  0  0  0  0  0  0  0
    3.7006   -1.0697   -0.8635 H   0  0  0  0  0  0  0  0  0  0  0  0
  1  4  1  0  0  0  0
  1  6  1  0  0  0  0
  2  5  2  0  0  0  0
  3  5  1  0  0  0  0
  3  7  1  0  0  0  0
  3  9  1  0  0  0  0
  3 10  1  0  0  0  0
  4  5  1  0  0  0  0
  4 11  1  0  0  0  0
  4 12  1  0  0  0  0
  6  8  1  0  0  0  0
  6 13  1  0  0  0  0
  6 14  1  0  0  0  0
  7 15  1  0  0  0  0
  7 16  1  0  0  0  0
  7 17  1  0  0  0  0
  8 18  1  0  0  0  0
  8 19  1  0  0  0  0
  8 20  1  0  0  0  0
M  END
> <PUBCHEM_COMPOUND_CID>
144750

> <PUBCHEM_CONFORMER_RMSD>
0.6

> <PUBCHEM_CONFORMER_DIVERSEORDER>
1
34
29
6
43
44
25
10
12
42
39
4
15
16
17
28
46
35
3
30
40
45
41
18
38
7
31
8
21
32
11
37
22
33
9
27
36
26
2
5
14
24
13
23
20
19

> <PUBCHEM_MMFF94_PARTIAL_CHARGES>
6
1 -0.56
2 -0.57
3 0.06
4 0.34
5 0.45
6 0.28

> <PUBCHEM_EFFECTIVE_ROTOR_COUNT>
4

> <PUBCHEM_PHARMACOPHORE_FEATURES>
3
1 1 acceptor
1 2 acceptor
1 7 hydrophobe

> <PUBCHEM_HEAVY_ATOM_COUNT>
8

> <PUBCHEM_ATOM_DEF_STEREO_COUNT>
0

> <PUBCHEM_ATOM_UDEF_STEREO_COUNT>
0

> <PUBCHEM_BOND_DEF_STEREO_COUNT>
0

> <PUBCHEM_BOND_UDEF_STEREO_COUNT>
0

> <PUBCHEM_ISOTOPIC_ATOM_COUNT>
0

> <PUBCHEM_COMPONENT_COUNT>
1

> <PUBCHEM_CACTVS_TAUTO_COUNT>
3

> <PUBCHEM_CONFORMER_ID>
0002356E00000001

> <PUBCHEM_MMFF94_ENERGY>
3.6467

> <PUBCHEM_FEATURE_SELFOVERLAP>
15.23

> <PUBCHEM_SHAPE_FINGERPRINT>
11062470 55 12967129410691819857
12932764 1 16805871979208026140
14325111 11 18410855447296098373
14390081 3 18272647956629122960
190213 19 17458346342415890724
5460574 1 9295289439007775717

> <PUBCHEM_SHAPE_MULTIPOLES>
152.9
6.27
0.97
0.59
1.86
0.1
0
0.35
-0.05
-0.13
0
0
-0.02
0

> <PUBCHEM_SHAPE_SELFOVERLAP>
272.729

> <PUBCHEM_SHAPE_VOLUME>
100.1

> <PUBCHEM_COORDINATE_TYPE>
2
5
10

$$$$
