136574
  -OEChem-11012401153D

 32 31  0     0  0  0  0  0  0999 V2000
   -2.7387    2.3633   -0.5354 O   0  0  0  0  0  0  0  0  0  0  0  0
   -2.3341   -2.3970   -0.6886 O   0  0  0  0  0  0  0  0  0  0  0  0
   -3.1498    1.2123    1.3723 O   0  0  0  0  0  0  0  0  0  0  0  0
   -2.9231   -1.4561    1.2865 O   0  0  0  0  0  0  0  0  0  0  0  0
    1.4876    0.1324   -0.7283 C   0  0  0  0  0  0  0  0  0  0  0  0
    0.0939    0.0430   -0.1004 C   0  0  0  0  0  0  0  0  0  0  0  0
    2.6236    0.0125    0.2921 C   0  0  0  0  0  0  0  0  0  0  0  0
   -1.0009    0.1330   -1.1734 C   0  0  0  0  0  0  0  0  0  0  0  0
    4.0430    0.0740   -0.2815 C   0  0  0  0  0  0  0  0  0  0  0  0
   -2.4294   -0.0074   -0.6186 C   0  0  0  0  0  0  0  0  0  0  0  0
    5.1757    0.0097    0.7456 C   0  0  0  0  0  0  0  0  0  0  0  0
    6.5614   -0.0081    0.1197 C   0  0  0  0  0  0  0  0  0  0  0  0
   -2.8132    1.2197    0.1960 C   0  0  0  0  0  0  0  0  0  0  0  0
   -2.5961   -1.3313    0.1140 C   0  0  0  0  0  0  0  0  0  0  0  0
    1.6003   -0.6619   -1.4765 H   0  0  0  0  0  0  0  0  0  0  0  0
    1.5858    1.0860   -1.2614 H   0  0  0  0  0  0  0  0  0  0  0  0
   -0.0298    0.8521    0.6288 H   0  0  0  0  0  0  0  0  0  0  0  0
    0.0137   -0.9026    0.4473 H   0  0  0  0  0  0  0  0  0  0  0  0
    2.5102   -0.9323    0.8385 H   0  0  0  0  0  0  0  0  0  0  0  0
    2.5127    0.8132    1.0342 H   0  0  0  0  0  0  0  0  0  0  0  0
   -0.8965    1.0827   -1.7125 H   0  0  0  0  0  0  0  0  0  0  0  0
   -0.8285   -0.6563   -1.9167 H   0  0  0  0  0  0  0  0  0  0  0  0
    4.1478    0.9997   -0.8613 H   0  0  0  0  0  0  0  0  0  0  0  0
    4.1636   -0.7517   -0.9944 H   0  0  0  0  0  0  0  0  0  0  0  0
   -3.1448   -0.0377   -1.4519 H   0  0  0  0  0  0  0  0  0  0  0  0
    5.0549   -0.8905    1.3598 H   0  0  0  0  0  0  0  0  0  0  0  0
    5.0991    0.8687    1.4226 H   0  0  0  0  0  0  0  0  0  0  0  0
    6.7314    0.8939   -0.4767 H   0  0  0  0  0  0  0  0  0  0  0  0
    6.6845   -0.8790   -0.5317 H   0  0  0  0  0  0  0  0  0  0  0  0
    7.3298   -0.0527    0.8977 H   0  0  0  0  0  0  0  0  0  0  0  0
   -2.9838    3.1519   -0.0059 H   0  0  0  0  0  0  0  0  0  0  0  0
   -2.4397   -3.2477   -0.2118 H   0  0  0  0  0  0  0  0  0  0  0  0
  1 13  1  0  0  0  0
  1 31  1  0  0  0  0
  2 14  1  0  0  0  0
  2 32  1  0  0  0  0
  3 13  2  0  0  0  0
  4 14  2  0  0  0  0
  5  6  1  0  0  0  0
  5  7  1  0  0  0  0
  5 15  1  0  0  0  0
  5 16  1  0  0  0  0
  6  8  1  0  0  0  0
  6 17  1  0  0  0  0
  6 18  1  0  0  0  0
  7  9  1  0  0  0  0
  7 19  1  0  0  0  0
  7 20  1  0  0  0  0
  8 10  1  0  0  0  0
  8 21  1  0  0  0  0
  8 22  1  0  0  0  0
  9 11  1  0  0  0  0
  9 23  1  0  0  0  0
  9 24  1  0  0  0  0
 10 13  1  0  0  0  0
 10 14  1  0  0  0  0
 10 25  1  0  0  0  0
 11 12  1  0  0  0  0
 11 26  1  0  0  0  0
 11 27  1  0  0  0  0
 12 28  1  0  0  0  0
 12 29  1  0  0  0  0
 12 30  1  0  0  0  0
M  END
> <PUBCHEM_COMPOUND_CID>
136574

> <PUBCHEM_CONFORMER_RMSD>
0.8

> <PUBCHEM_CONFORMER_DIVERSEORDER>
1
106
114
75
111
122
57
94
107
21
100
45
102
11
95
58
109
64
37
63
36
41
101
12
86
7
123
118
83
44
110
98
87
112
5
104
38
124
117
49
92
20
77
119
103
51
61
62
73
90
108
39
24
33
3
121
54
113
42
30
120
27
82
97
18
40
8
10
22
105
43
9
79
96
81
4
13
14
76
70
60
2
35
55
15
85
34
65
31
67
59
74
56
93
88
16
99
91
115
26
69
89
71
6
19
46
52
23
68
48
84
17
29
116
28
50
47
32
80
72
25
78
53
66

> <PUBCHEM_MMFF94_PARTIAL_CHARGES>
9
1 -0.65
10 0.12
13 0.66
14 0.66
2 -0.65
3 -0.57
31 0.5
32 0.5
4 -0.57

> <PUBCHEM_EFFECTIVE_ROTOR_COUNT>
8

> <PUBCHEM_PHARMACOPHORE_FEATURES>
8
1 1 acceptor
1 10 anion
1 12 hydrophobe
1 2 acceptor
1 3 acceptor
1 4 acceptor
3 1 3 13 anion
3 2 4 14 anion

> <PUBCHEM_HEAVY_ATOM_COUNT>
14

> <PUBCHEM_ATOM_DEF_STEREO_COUNT>
0

> <PUBCHEM_ATOM_UDEF_STEREO_COUNT>
0

> <PUBCHEM_BOND_DEF_STEREO_COUNT>
0

> <PUBCHEM_BOND_UDEF_STEREO_COUNT>
0

> <PUBCHEM_ISOTOPIC_ATOM_COUNT>
0

> <PUBCHEM_COMPONENT_COUNT>
1

> <PUBCHEM_CACTVS_TAUTO_COUNT>
1

> <PUBCHEM_CONFORMER_ID>
0002157E00000001

> <PUBCHEM_MMFF94_ENERGY>
7.8606

> <PUBCHEM_FEATURE_SELFOVERLAP>
41.211

> <PUBCHEM_SHAPE_FINGERPRINT>
10680689 15 18272367594544580262
10912923 1 17894907443621349256
11315181 36 18335697273828939388
12091667 2 17632853140850032148
12500047 106 18339916026582177140
13167823 11 18187359931417727146
13214271 11 18201997729180102612
13675066 3 17917990594882061988
14251718 22 10737294537322540492
17093844 174 18340477907864111048
17844677 252 18343304795240756176
20645477 56 18341332206180537101
20828058 44 18408602561483356830
2306618 200 17988927786117612265
23402539 116 18272643580874937895
27216 239 17346600781151861145
57265010 4 18409169904513153800
90127 26 17632573873280874440

> <PUBCHEM_SHAPE_MULTIPOLES>
264.64
11.36
1.68
1.07
22.62
0.15
-0.13
-0.3
-2.37
-3.06
0.03
-0.64
0.01
-0.05

> <PUBCHEM_SHAPE_SELFOVERLAP>
496.831

> <PUBCHEM_SHAPE_VOLUME>
163.8

> <PUBCHEM_COORDINATE_TYPE>
2
5
10

$$$$
