9571125
  -OEChem-11012401193D

 14 13  0     0  0  0  0  0  0999 V2000
    1.4585    1.9571    0.0914 S   0  0  0  0  0  0  0  0  0  0  0  0
    1.5444   -0.6839    0.1737 N   0  0  0  0  0  0  0  0  0  0  0  0
   -0.5261    0.2209   -0.5402 N   0  0  0  0  0  0  0  0  0  0  0  0
    1.0604   -1.9628   -0.0257 N   0  0  0  0  0  0  0  0  0  0  0  0
    0.7628    0.4278   -0.0929 C   0  0  0  0  0  0  0  0  0  0  0  0
   -1.4331    0.1324    0.3776 C   0  0  0  0  0  0  0  0  0  0  0  0
   -2.8670   -0.0916    0.0162 C   0  0  0  0  0  0  0  0  0  0  0  0
    2.5022   -0.5830    0.4937 H   0  0  0  0  0  0  0  0  0  0  0  0
   -1.1954    0.2141    1.4534 H   0  0  0  0  0  0  0  0  0  0  0  0
   -3.4635    0.7362    0.4078 H   0  0  0  0  0  0  0  0  0  0  0  0
   -2.9932   -0.1558   -1.0672 H   0  0  0  0  0  0  0  0  0  0  0  0
   -3.2078   -1.0197    0.4820 H   0  0  0  0  0  0  0  0  0  0  0  0
    1.7357   -2.4455   -0.6170 H   0  0  0  0  0  0  0  0  0  0  0  0
    1.0901   -2.4334    0.8778 H   0  0  0  0  0  0  0  0  0  0  0  0
  1  5  2  0  0  0  0
  2  4  1  0  0  0  0
  2  5  1  0  0  0  0
  2  8  1  0  0  0  0
  3  5  1  0  0  0  0
  3  6  2  0  0  0  0
  4 13  1  0  0  0  0
  4 14  1  0  0  0  0
  6  7  1  0  0  0  0
  6  9  1  0  0  0  0
  7 10  1  0  0  0  0
  7 11  1  0  0  0  0
  7 12  1  0  0  0  0
M  END
> <PUBCHEM_COMPOUND_CID>
9571125

> <PUBCHEM_CONFORMER_RMSD>
0.4

> <PUBCHEM_CONFORMER_DIVERSEORDER>
1
4
8
11
6
7
5
2
3
10
9

> <PUBCHEM_MMFF94_PARTIAL_CHARGES>
11
1 -0.38
13 0.36
14 0.36
2 -0.42
3 -0.66
4 -0.73
5 0.65
6 0.33
7 0.06
8 0.37
9 0.06

> <PUBCHEM_EFFECTIVE_ROTOR_COUNT>
2

> <PUBCHEM_PHARMACOPHORE_FEATURES>
4
1 1 acceptor
1 2 donor
1 3 acceptor
1 4 donor

> <PUBCHEM_HEAVY_ATOM_COUNT>
7

> <PUBCHEM_ATOM_DEF_STEREO_COUNT>
0

> <PUBCHEM_ATOM_UDEF_STEREO_COUNT>
0

> <PUBCHEM_BOND_DEF_STEREO_COUNT>
1

> <PUBCHEM_BOND_UDEF_STEREO_COUNT>
0

> <PUBCHEM_ISOTOPIC_ATOM_COUNT>
0

> <PUBCHEM_COMPONENT_COUNT>
1

> <PUBCHEM_CACTVS_TAUTO_COUNT>
2

> <PUBCHEM_CONFORMER_ID>
00920B3500000001

> <PUBCHEM_MMFF94_ENERGY>
12.8465

> <PUBCHEM_FEATURE_SELFOVERLAP>
21.806

> <PUBCHEM_SHAPE_FINGERPRINT>
14390081 3 18200034091718334721
20096714 4 18199189679335396936
21040471 1 17977949308406370308
23552449 11 18260536806152925115
29004967 10 18337107852346664858

> <PUBCHEM_SHAPE_MULTIPOLES>
132.96
3.14
1.79
0.66
2.45
0.62
0
-0.88
0.14
-1.4
0.05
0.03
-0.07
-0.01

> <PUBCHEM_SHAPE_SELFOVERLAP>
232.093

> <PUBCHEM_SHAPE_VOLUME>
89.1

> <PUBCHEM_COORDINATE_TYPE>
2
5
10

$$$$
