137911
  -OEChem-11012400403D

 26 26  0     1  0  0  0  0  0999 V2000
    0.6274    0.1958   -0.0612 O   0  0  0  0  0  0  0  0  0  0  0  0
    2.8861   -1.3374    0.6584 O   0  0  0  0  0  0  0  0  0  0  0  0
    5.3368   -0.7030   -0.4731 O   0  0  0  0  0  0  0  0  0  0  0  0
   -0.3440    2.1970    0.5312 O   0  0  0  0  0  0  0  0  0  0  0  0
    2.9858   -0.2658   -0.2825 C   0  0  1  0  0  0  0  0  0  0  0  0
    1.9231    0.7760    0.0479 C   0  0  0  0  0  0  0  0  0  0  0  0
    4.3887    0.3186   -0.1823 C   0  0  0  0  0  0  0  0  0  0  0  0
   -1.7087    0.2991    0.0617 C   0  0  0  0  0  0  0  0  0  0  0  0
   -0.4199    1.0215    0.2089 C   0  0  0  0  0  0  0  0  0  0  0  0
   -2.8292    1.0062   -0.3240 C   0  0  0  0  0  0  0  0  0  0  0  0
   -1.7459   -1.0569    0.3146 C   0  0  0  0  0  0  0  0  0  0  0  0
   -4.0399    0.3275   -0.4626 C   0  0  0  0  0  0  0  0  0  0  0  0
   -2.9567   -1.7355    0.1758 C   0  0  0  0  0  0  0  0  0  0  0  0
   -4.1036   -1.0432   -0.2128 C   0  0  0  0  0  0  0  0  0  0  0  0
    2.8115   -0.7062   -1.2698 H   0  0  0  0  0  0  0  0  0  0  0  0
    2.0011    1.6219   -0.6451 H   0  0  0  0  0  0  0  0  0  0  0  0
    2.0560    1.1367    1.0754 H   0  0  0  0  0  0  0  0  0  0  0  0
    4.6028    0.6915    0.8249 H   0  0  0  0  0  0  0  0  0  0  0  0
    4.5313    1.1336   -0.8979 H   0  0  0  0  0  0  0  0  0  0  0  0
   -2.7914    2.0727   -0.5247 H   0  0  0  0  0  0  0  0  0  0  0  0
   -0.8708   -1.6163    0.6314 H   0  0  0  0  0  0  0  0  0  0  0  0
    3.0300   -0.9708    1.5477 H   0  0  0  0  0  0  0  0  0  0  0  0
   -4.9329    0.8662   -0.7659 H   0  0  0  0  0  0  0  0  0  0  0  0
   -3.0075   -2.8023    0.3733 H   0  0  0  0  0  0  0  0  0  0  0  0
   -5.0464   -1.5714   -0.3202 H   0  0  0  0  0  0  0  0  0  0  0  0
    5.1949   -1.4225    0.1657 H   0  0  0  0  0  0  0  0  0  0  0  0
  1  6  1  0  0  0  0
  1  9  1  0  0  0  0
  2  5  1  0  0  0  0
  2 22  1  0  0  0  0
  3  7  1  0  0  0  0
  3 26  1  0  0  0  0
  4  9  2  0  0  0  0
  5  6  1  0  0  0  0
  5  7  1  0  0  0  0
  5 15  1  0  0  0  0
  6 16  1  0  0  0  0
  6 17  1  0  0  0  0
  7 18  1  0  0  0  0
  7 19  1  0  0  0  0
  8  9  1  0  0  0  0
  8 10  2  0  0  0  0
  8 11  1  0  0  0  0
 10 12  1  0  0  0  0
 10 20  1  0  0  0  0
 11 13  2  0  0  0  0
 11 21  1  0  0  0  0
 12 14  2  0  0  0  0
 12 23  1  0  0  0  0
 13 14  1  0  0  0  0
 13 24  1  0  0  0  0
 14 25  1  0  0  0  0
M  END
> <PUBCHEM_COMPOUND_CID>
137911

> <PUBCHEM_CONFORMER_RMSD>
0.6

> <PUBCHEM_CONFORMER_DIVERSEORDER>
1
135
95
156
165
60
96
131
38
115
166
33
163
169
148
70
94
177
172
8
109
171
15
178
88
82
106
179
35
151
125
154
48
61
91
108
93
111
69
80
90
105
155
152
6
68
81
71
144
36
87
37
118
67
170
52
66
168
86
76
160
145
100
112
53
85
117
28
5
4
51
134
167
75
42
56
98
57
175
159
99
140
64
102
7
78
11
174
119
173
43
24
41
77
47
176
45
164
136
84
137
158
162
54
58
62
31
18
143
59
141
103
150
147
83
79
92
126
157
129
9
130
55
44
110
142
104
116
139
65
46
146
120
113
17
127
26
25
22
63
161
20
10
49
121
23
101
19
34
29
138
27
74
97
149
12
89
13
114
3
107
122
133
128
30
132
123
14
16
73
124
153
50
21
32
40
39
2
72

> <PUBCHEM_MMFF94_PARTIAL_CHARGES>
21
1 -0.43
10 -0.15
11 -0.15
12 -0.15
13 -0.15
14 -0.15
2 -0.68
20 0.15
21 0.15
22 0.4
23 0.15
24 0.15
25 0.15
26 0.4
3 -0.68
4 -0.57
5 0.28
6 0.28
7 0.28
8 0.09
9 0.63

> <PUBCHEM_EFFECTIVE_ROTOR_COUNT>
5

> <PUBCHEM_PHARMACOPHORE_FEATURES>
6
1 2 acceptor
1 2 donor
1 3 acceptor
1 3 donor
1 4 acceptor
6 8 10 11 12 13 14 rings

> <PUBCHEM_HEAVY_ATOM_COUNT>
14

> <PUBCHEM_ATOM_DEF_STEREO_COUNT>
0

> <PUBCHEM_ATOM_UDEF_STEREO_COUNT>
1

> <PUBCHEM_BOND_DEF_STEREO_COUNT>
0

> <PUBCHEM_BOND_UDEF_STEREO_COUNT>
0

> <PUBCHEM_ISOTOPIC_ATOM_COUNT>
0

> <PUBCHEM_COMPONENT_COUNT>
1

> <PUBCHEM_CACTVS_TAUTO_COUNT>
1

> <PUBCHEM_CONFORMER_ID>
00021AB700000001

> <PUBCHEM_MMFF94_ENERGY>
34.5063

> <PUBCHEM_FEATURE_SELFOVERLAP>
30.456

> <PUBCHEM_SHAPE_FINGERPRINT>
10465860 250 18342454850354411360
11046707 91 18413390946874272382
11458722 379 18334858311665126506
12032990 46 18341896328717851073
12251169 10 11600007656373842073
124424 183 18413105082905131085
13288520 33 18342179955626067054
13296908 3 18342735264516306993
14252887 29 17561091306417505294
14911166 2 18409157819213765149
14943859 89 12035446151052745176
15242433 33 18261392226072902890
17804303 29 18411138078188678389
17834072 8 18335413561353583397
17870717 6 18339091414236124222
18186145 218 14490474222196171228
19107657 46 18411981368635897926
200 152 18410293614329501684
20201158 50 18412827984210210951
20279233 1 18131639975697129022
20374829 77 18411696590828992210
20432913 95 16415203364539718318
20645477 70 18271524294452742406
20671657 53 18343308097242607200
20871999 31 18187357723387714741
21119208 17 17530683216628271332
21267235 1 18410020952388617403
221490 88 18191031311799831338
22485316 2 18409726270450482730
23402539 116 18273208682359171341
23403322 49 18412826884513966879
23557571 272 18200881660717605756
23559900 14 18411130368522396352
2871803 45 18408040697998652630
2916195 48 12179850545510727230
3312278 4 18409168800722357010
4214541 1 18408885109600842644
4921388 177 15936701453234722075
58051976 100 18186519929797313055
7364860 26 18124594442578353545
76465 3 17987509498049642855
8809292 202 18335142054716658051
9709674 26 18410299090297324790

> <PUBCHEM_SHAPE_MULTIPOLES>
264.64
9.47
1.62
0.69
8.55
0.12
0
-2.95
-1.68
-0.74
0.24
0
0
0.13

> <PUBCHEM_SHAPE_SELFOVERLAP>
541.247

> <PUBCHEM_SHAPE_VOLUME>
152.7

> <PUBCHEM_COORDINATE_TYPE>
2
5
10

$$$$
