8601
  -OEChem-11012400523D

 20 21  0     0  0  0  0  0  0999 V2000
   -0.6280    2.7109    0.0004 O   0  0  0  0  0  0  0  0  0  0  0  0
   -3.3251   -1.1992    0.0001 O   0  0  0  0  0  0  0  0  0  0  0  0
    0.4586    0.5537    0.0001 C   0  0  0  0  0  0  0  0  0  0  0  0
    0.3321   -0.8560    0.0001 C   0  0  0  0  0  0  0  0  0  0  0  0
   -0.7002    1.3471   -0.0001 C   0  0  0  0  0  0  0  0  0  0  0  0
   -0.9494   -1.4305    0.0001 C   0  0  0  0  0  0  0  0  0  0  0  0
    1.7401    1.1282   -0.0001 C   0  0  0  0  0  0  0  0  0  0  0  0
    1.4908   -1.6494    0.0002 C   0  0  0  0  0  0  0  0  0  0  0  0
   -2.0899   -0.6269   -0.0002 C   0  0  0  0  0  0  0  0  0  0  0  0
   -1.9655    0.7593   -0.0003 C   0  0  0  0  0  0  0  0  0  0  0  0
    2.8805    0.3245   -0.0002 C   0  0  0  0  0  0  0  0  0  0  0  0
    2.7561   -1.0617    0.0000 C   0  0  0  0  0  0  0  0  0  0  0  0
   -1.0639   -2.5130    0.0003 H   0  0  0  0  0  0  0  0  0  0  0  0
    1.8981    2.2027   -0.0165 H   0  0  0  0  0  0  0  0  0  0  0  0
    1.4175   -2.7350    0.0000 H   0  0  0  0  0  0  0  0  0  0  0  0
   -2.8514    1.3899   -0.0003 H   0  0  0  0  0  0  0  0  0  0  0  0
    3.8662    0.7808   -0.0041 H   0  0  0  0  0  0  0  0  0  0  0  0
    3.6443   -1.6868   -0.0010 H   0  0  0  0  0  0  0  0  0  0  0  0
    0.1921    3.0062    0.4251 H   0  0  0  0  0  0  0  0  0  0  0  0
   -3.9983   -0.4972   -0.0001 H   0  0  0  0  0  0  0  0  0  0  0  0
  1  5  1  0  0  0  0
  1 19  1  0  0  0  0
  2  9  1  0  0  0  0
  2 20  1  0  0  0  0
  3  4  1  0  0  0  0
  3  5  1  0  0  0  0
  3  7  2  0  0  0  0
  4  6  1  0  0  0  0
  4  8  2  0  0  0  0
  5 10  2  0  0  0  0
  6  9  2  0  0  0  0
  6 13  1  0  0  0  0
  7 11  1  0  0  0  0
  7 14  1  0  0  0  0
  8 12  1  0  0  0  0
  8 15  1  0  0  0  0
  9 10  1  0  0  0  0
 10 16  1  0  0  0  0
 11 12  2  0  0  0  0
 11 17  1  0  0  0  0
 12 18  1  0  0  0  0
M  END
> <PUBCHEM_COMPOUND_CID>
8601

> <PUBCHEM_CONFORMER_RMSD>
0.4

> <PUBCHEM_CONFORMER_DIVERSEORDER>
1

> <PUBCHEM_MMFF94_PARTIAL_CHARGES>
18
1 -0.53
10 -0.15
11 -0.15
12 -0.15
13 0.15
14 0.15
15 0.15
16 0.15
17 0.15
18 0.15
19 0.45
2 -0.53
20 0.45
5 0.08
6 -0.15
7 -0.15
8 -0.15
9 0.08

> <PUBCHEM_EFFECTIVE_ROTOR_COUNT>
0

> <PUBCHEM_PHARMACOPHORE_FEATURES>
4
1 1 donor
1 2 donor
6 3 4 5 6 9 10 rings
6 3 4 7 8 11 12 rings

> <PUBCHEM_HEAVY_ATOM_COUNT>
12

> <PUBCHEM_ATOM_DEF_STEREO_COUNT>
0

> <PUBCHEM_ATOM_UDEF_STEREO_COUNT>
0

> <PUBCHEM_BOND_DEF_STEREO_COUNT>
0

> <PUBCHEM_BOND_UDEF_STEREO_COUNT>
0

> <PUBCHEM_ISOTOPIC_ATOM_COUNT>
0

> <PUBCHEM_COMPONENT_COUNT>
1

> <PUBCHEM_CACTVS_TAUTO_COUNT>
12

> <PUBCHEM_CONFORMER_ID>
0000219900000001

> <PUBCHEM_MMFF94_ENERGY>
36.1421

> <PUBCHEM_FEATURE_SELFOVERLAP>
20.324

> <PUBCHEM_SHAPE_FINGERPRINT>
10967382 1 18194401319007124038
11206711 2 18337113358626535980
12032990 46 18410018770545354459
12423570 1 12098845177222002722
12524768 44 18341618134959180006
12897270 3 18410572872897411350
13380535 76 17907852908110064637
14325111 11 18410573980977913568
161256 15 18341611542389933464
16945 1 18266740177726614182
17844478 74 18041006150103968331
193761 8 17978229353058653639
19973954 147 18339081458760141070
20201158 50 18335418001754031915
20871998 184 18201717310517400935
21040471 1 17906453229918513024
21501502 16 18338520725036205274
2334 1 18410574002510681381
23463225 33 18409450301458321742
23552423 10 18260833670034497270
23559900 14 17478894884218087214
241688 4 18410012113314131153
2748010 2 18411133632391124989
5084963 1 18273214162404982114
528886 8 18339639065684783378

> <PUBCHEM_SHAPE_MULTIPOLES>
235.22
4.03
2.12
0.6
0.02
0.81
0
-1.15
0
0.37
0
-0.03
-0.01
0

> <PUBCHEM_SHAPE_SELFOVERLAP>
520.388

> <PUBCHEM_SHAPE_VOLUME>
126.9

> <PUBCHEM_COORDINATE_TYPE>
2
5
10

$$$$
