141630
  -OEChem-11012401273D

 14 15  0     1  0  0  0  0  0999 V2000
    2.5290   -0.2468   -0.2987 N   0  0  0  0  0  0  0  0  0  0  0  0
    0.0384    0.0760    0.3572 C   0  0  1  0  0  0  0  0  0  0  0  0
   -0.9552    0.5719   -0.6411 C   0  0  2  0  0  0  0  0  0  0  0  0
   -0.4711    1.4789    0.4445 C   0  0  0  0  0  0  0  0  0  0  0  0
   -0.7649   -1.1452    0.5876 C   0  0  0  0  0  0  0  0  0  0  0  0
   -1.7920   -0.6324   -0.4441 C   0  0  0  0  0  0  0  0  0  0  0  0
    1.4157   -0.1025   -0.0054 C   0  0  0  0  0  0  0  0  0  0  0  0
   -0.6448    0.7166   -1.6664 H   0  0  0  0  0  0  0  0  0  0  0  0
    0.1758    2.3011    0.1609 H   0  0  0  0  0  0  0  0  0  0  0  0
   -1.1571    1.7224    1.2476 H   0  0  0  0  0  0  0  0  0  0  0  0
   -1.1620   -1.2358    1.6051 H   0  0  0  0  0  0  0  0  0  0  0  0
   -0.3063   -2.1026    0.3157 H   0  0  0  0  0  0  0  0  0  0  0  0
   -1.8991   -1.2692   -1.3283 H   0  0  0  0  0  0  0  0  0  0  0  0
   -2.7868   -0.4349   -0.0319 H   0  0  0  0  0  0  0  0  0  0  0  0
  1  7  3  0  0  0  0
  2  3  1  0  0  0  0
  2  4  1  0  0  0  0
  2  5  1  0  0  0  0
  2  7  1  0  0  0  0
  3  4  1  0  0  0  0
  3  6  1  0  0  0  0
  3  8  1  0  0  0  0
  4  9  1  0  0  0  0
  4 10  1  0  0  0  0
  5  6  1  0  0  0  0
  5 11  1  0  0  0  0
  5 12  1  0  0  0  0
  6 13  1  0  0  0  0
  6 14  1  0  0  0  0
M  END
> <PUBCHEM_COMPOUND_CID>
141630

> <PUBCHEM_CONFORMER_RMSD>
0.4

> <PUBCHEM_CONFORMER_DIVERSEORDER>
1
2

> <PUBCHEM_MMFF94_PARTIAL_CHARGES>
10
1 -0.56
10 0.1
2 0.03
3 -0.18
4 -0.2
5 0.08
6 0.08
7 0.45
8 0.1
9 0.1

> <PUBCHEM_EFFECTIVE_ROTOR_COUNT>
0.6

> <PUBCHEM_PHARMACOPHORE_FEATURES>
2
1 1 acceptor
5 2 3 4 5 6 rings

> <PUBCHEM_HEAVY_ATOM_COUNT>
7

> <PUBCHEM_ATOM_DEF_STEREO_COUNT>
0

> <PUBCHEM_ATOM_UDEF_STEREO_COUNT>
2

> <PUBCHEM_BOND_DEF_STEREO_COUNT>
0

> <PUBCHEM_BOND_UDEF_STEREO_COUNT>
0

> <PUBCHEM_ISOTOPIC_ATOM_COUNT>
0

> <PUBCHEM_COMPONENT_COUNT>
1

> <PUBCHEM_CACTVS_TAUTO_COUNT>
1

> <PUBCHEM_CONFORMER_ID>
0002293E00000001

> <PUBCHEM_MMFF94_ENERGY>
14.0542

> <PUBCHEM_FEATURE_SELFOVERLAP>
10.148

> <PUBCHEM_SHAPE_FINGERPRINT>
137420 1 9707843042469105449
16714656 1 18335139786762708135
21040471 1 17979625737036526545
23552423 10 18189620453819522910
29004967 10 18059571463704602338
369184 2 18342734087990537098
5943 1 13517860616042719217

> <PUBCHEM_SHAPE_MULTIPOLES>
139.08
2.34
1.24
0.8
1.49
0.26
0.01
-0.53
-0.49
-0.38
0.2
-0.13
0.01
0.05

> <PUBCHEM_SHAPE_SELFOVERLAP>
292.521

> <PUBCHEM_SHAPE_VOLUME>
80

> <PUBCHEM_COORDINATE_TYPE>
2
5
10

$$$$
