144456
  -OEChem-11012400503D

 21 21  0     1  0  0  0  0  0999 V2000
    0.6305   -0.4458   -0.3880 C   0  0  2  0  0  0  0  0  0  0  0  0
   -0.6392   -0.4427    0.3793 C   0  0  2  0  0  0  0  0  0  0  0  0
    0.0166   -1.7387    0.0023 C   0  0  0  0  0  0  0  0  0  0  0  0
    1.8976   -0.0133    0.3303 C   0  0  0  0  0  0  0  0  0  0  0  0
   -1.8804   -0.0298   -0.3205 C   0  0  0  0  0  0  0  0  0  0  0  0
    2.3837    1.3413   -0.1565 C   0  0  0  0  0  0  0  0  0  0  0  0
   -2.4086    1.3290    0.1533 C   0  0  0  0  0  0  0  0  0  0  0  0
    0.6370   -0.2110   -1.4448 H   0  0  0  0  0  0  0  0  0  0  0  0
   -0.6412   -0.1956    1.4336 H   0  0  0  0  0  0  0  0  0  0  0  0
   -0.4368   -2.3402   -0.7766 H   0  0  0  0  0  0  0  0  0  0  0  0
    0.4775   -2.3180    0.7934 H   0  0  0  0  0  0  0  0  0  0  0  0
    2.6785   -0.7580    0.1365 H   0  0  0  0  0  0  0  0  0  0  0  0
    1.7453    0.0196    1.4154 H   0  0  0  0  0  0  0  0  0  0  0  0
   -2.6580   -0.7798   -0.1315 H   0  0  0  0  0  0  0  0  0  0  0  0
   -1.7385    0.0059   -1.4074 H   0  0  0  0  0  0  0  0  0  0  0  0
    2.5985    1.3196   -1.2300 H   0  0  0  0  0  0  0  0  0  0  0  0
    1.6259    2.1122    0.0179 H   0  0  0  0  0  0  0  0  0  0  0  0
    3.2981    1.6313    0.3698 H   0  0  0  0  0  0  0  0  0  0  0  0
   -2.6298    1.3093    1.2254 H   0  0  0  0  0  0  0  0  0  0  0  0
   -1.6668    2.1143   -0.0242 H   0  0  0  0  0  0  0  0  0  0  0  0
   -3.3257    1.5891   -0.3837 H   0  0  0  0  0  0  0  0  0  0  0  0
  1  2  1  0  0  0  0
  1  3  1  0  0  0  0
  1  4  1  0  0  0  0
  1  8  1  0  0  0  0
  2  3  1  0  0  0  0
  2  5  1  0  0  0  0
  2  9  1  0  0  0  0
  3 10  1  0  0  0  0
  3 11  1  0  0  0  0
  4  6  1  0  0  0  0
  4 12  1  0  0  0  0
  4 13  1  0  0  0  0
  5  7  1  0  0  0  0
  5 14  1  0  0  0  0
  5 15  1  0  0  0  0
  6 16  1  0  0  0  0
  6 17  1  0  0  0  0
  6 18  1  0  0  0  0
  7 19  1  0  0  0  0
  7 20  1  0  0  0  0
  7 21  1  0  0  0  0
M  END
> <PUBCHEM_COMPOUND_CID>
144456

> <PUBCHEM_CONFORMER_RMSD>
0.4

> <PUBCHEM_CONFORMER_DIVERSEORDER>
1
5
10
9
11
8
6
2
7
12
13
4
14
3

> <PUBCHEM_MMFF94_PARTIAL_CHARGES>
9
1 -0.19
10 0.1
11 0.1
2 -0.19
3 -0.2
4 0.09
5 0.09
8 0.1
9 0.1

> <PUBCHEM_EFFECTIVE_ROTOR_COUNT>
2.6

> <PUBCHEM_PHARMACOPHORE_FEATURES>
2
1 6 hydrophobe
1 7 hydrophobe

> <PUBCHEM_HEAVY_ATOM_COUNT>
7

> <PUBCHEM_ATOM_DEF_STEREO_COUNT>
0

> <PUBCHEM_ATOM_UDEF_STEREO_COUNT>
2

> <PUBCHEM_BOND_DEF_STEREO_COUNT>
0

> <PUBCHEM_BOND_UDEF_STEREO_COUNT>
0

> <PUBCHEM_ISOTOPIC_ATOM_COUNT>
0

> <PUBCHEM_COMPONENT_COUNT>
1

> <PUBCHEM_CACTVS_TAUTO_COUNT>
1

> <PUBCHEM_CONFORMER_ID>
0002344800000001

> <PUBCHEM_MMFF94_ENERGY>
6.9484

> <PUBCHEM_FEATURE_SELFOVERLAP>
10.149

> <PUBCHEM_SHAPE_FINGERPRINT>
100427 49 16826721197508086277
14390081 3 18342173375451573177
20096714 4 18410572872791955186
20653085 51 18272664440792576744
21040471 1 18411980286488482682
23552449 1 17835519697319989414
5084963 1 18273494572045115474

> <PUBCHEM_SHAPE_MULTIPOLES>
144.06
3.39
1.61
0.7
0.04
0.1
0
-2.12
0.01
-0.01
0
0
0.01
-0.11

> <PUBCHEM_SHAPE_SELFOVERLAP>
265.187

> <PUBCHEM_SHAPE_VOLUME>
93.9

> <PUBCHEM_COORDINATE_TYPE>
2
5
10

$$$$
