138409
  -OEChem-11012400363D

 27 28  0     1  0  0  0  0  0999 V2000
    2.1097    2.6404    0.3165 O   0  0  0  0  0  0  0  0  0  0  0  0
    2.3400   -2.6828    0.3292 O   0  0  0  0  0  0  0  0  0  0  0  0
    1.2109   -0.7396    0.8297 N   0  0  0  0  0  0  0  0  0  0  0  0
    3.1552    0.6865   -0.3005 N   0  0  0  0  0  0  0  0  0  0  0  0
    0.8288    0.6053    0.4280 C   0  0  2  0  0  0  0  0  0  0  0  0
   -0.0931    0.6129   -0.7817 C   0  0  0  0  0  0  0  0  0  0  0  0
    2.0877    1.4179    0.1839 C   0  0  0  0  0  0  0  0  0  0  0  0
   -1.5093    0.2583   -0.4101 C   0  0  0  0  0  0  0  0  0  0  0  0
    3.0164   -0.6694   -0.7866 C   0  0  0  0  0  0  0  0  0  0  0  0
    2.1987   -1.4692    0.1963 C   0  0  0  0  0  0  0  0  0  0  0  0
   -1.9091   -1.0702   -0.4338 C   0  0  0  0  0  0  0  0  0  0  0  0
   -2.3930    1.2655   -0.0498 C   0  0  0  0  0  0  0  0  0  0  0  0
   -3.2204   -1.3983   -0.0898 C   0  0  0  0  0  0  0  0  0  0  0  0
   -3.7043    0.9373    0.2943 C   0  0  0  0  0  0  0  0  0  0  0  0
   -4.1181   -0.3947    0.2744 C   0  0  0  0  0  0  0  0  0  0  0  0
    0.3363    1.0487    1.3028 H   0  0  0  0  0  0  0  0  0  0  0  0
    0.2573   -0.0694   -1.5662 H   0  0  0  0  0  0  0  0  0  0  0  0
   -0.0935    1.6063   -1.2509 H   0  0  0  0  0  0  0  0  0  0  0  0
    0.6093   -1.2286    1.4856 H   0  0  0  0  0  0  0  0  0  0  0  0
    4.0176   -1.0996   -0.8724 H   0  0  0  0  0  0  0  0  0  0  0  0
    2.5275   -0.6546   -1.7639 H   0  0  0  0  0  0  0  0  0  0  0  0
    4.0126    1.1862   -0.5158 H   0  0  0  0  0  0  0  0  0  0  0  0
   -1.2189   -1.8599   -0.7169 H   0  0  0  0  0  0  0  0  0  0  0  0
   -2.0803    2.3057   -0.0286 H   0  0  0  0  0  0  0  0  0  0  0  0
   -3.5427   -2.4353   -0.1056 H   0  0  0  0  0  0  0  0  0  0  0  0
   -4.4031    1.7187    0.5785 H   0  0  0  0  0  0  0  0  0  0  0  0
   -5.1390   -0.6502    0.5424 H   0  0  0  0  0  0  0  0  0  0  0  0
  1  7  2  0  0  0  0
  2 10  2  0  0  0  0
  3  5  1  0  0  0  0
  3 10  1  0  0  0  0
  3 19  1  0  0  0  0
  4  7  1  0  0  0  0
  4  9  1  0  0  0  0
  4 22  1  0  0  0  0
  5  6  1  0  0  0  0
  5  7  1  0  0  0  0
  5 16  1  0  0  0  0
  6  8  1  0  0  0  0
  6 17  1  0  0  0  0
  6 18  1  0  0  0  0
  8 11  2  0  0  0  0
  8 12  1  0  0  0  0
  9 10  1  0  0  0  0
  9 20  1  0  0  0  0
  9 21  1  0  0  0  0
 11 13  1  0  0  0  0
 11 23  1  0  0  0  0
 12 14  2  0  0  0  0
 12 24  1  0  0  0  0
 13 15  2  0  0  0  0
 13 25  1  0  0  0  0
 14 15  1  0  0  0  0
 14 26  1  0  0  0  0
 15 27  1  0  0  0  0
M  END
> <PUBCHEM_COMPOUND_CID>
138409

> <PUBCHEM_CONFORMER_RMSD>
0.6

> <PUBCHEM_CONFORMER_DIVERSEORDER>
2
13
11
6
10
12
5
9
8
3
14
7
4
1

> <PUBCHEM_MMFF94_PARTIAL_CHARGES>
22
1 -0.57
10 0.57
11 -0.15
12 -0.15
13 -0.15
14 -0.15
15 -0.15
19 0.37
2 -0.57
22 0.37
23 0.15
24 0.15
25 0.15
26 0.15
27 0.15
3 -0.73
4 -0.73
5 0.36
6 0.14
7 0.57
8 -0.14
9 0.36

> <PUBCHEM_EFFECTIVE_ROTOR_COUNT>
2.8

> <PUBCHEM_PHARMACOPHORE_FEATURES>
6
1 1 acceptor
1 2 acceptor
1 3 donor
1 4 donor
6 3 4 5 7 9 10 rings
6 8 11 12 13 14 15 rings

> <PUBCHEM_HEAVY_ATOM_COUNT>
15

> <PUBCHEM_ATOM_DEF_STEREO_COUNT>
0

> <PUBCHEM_ATOM_UDEF_STEREO_COUNT>
1

> <PUBCHEM_BOND_DEF_STEREO_COUNT>
0

> <PUBCHEM_BOND_UDEF_STEREO_COUNT>
0

> <PUBCHEM_ISOTOPIC_ATOM_COUNT>
0

> <PUBCHEM_COMPONENT_COUNT>
1

> <PUBCHEM_CACTVS_TAUTO_COUNT>
4

> <PUBCHEM_CONFORMER_ID>
00021CA900000002

> <PUBCHEM_MMFF94_ENERGY>
48.2569

> <PUBCHEM_FEATURE_SELFOVERLAP>
30.454

> <PUBCHEM_SHAPE_FINGERPRINT>
10608611 8 18410289224894452989
10616163 171 18341051934011356575
10980938 120 18410573993905033008
11715629 250 18337945787686986797
12251169 10 18341892978748757831
12932764 1 17968088699265783349
13221675 6 18411700984686076639
13296908 3 17531240635059434773
13380535 21 18408890654524629123
14144814 61 18412261714357599225
15375462 189 18262521385965548426
15375462 6 18410574019833293861
15442244 35 18268431226589132281
15501101 241 18259703389224148252
15536298 74 18413670222785451491
15775835 57 18409736157507428671
16945 1 18410562994351304740
17804303 29 18338524015123728407
17834074 16 18410577305419783203
18186145 218 18412545396915981429
19107657 162 17968384545435207851
19422 9 18335707083291741187
201361 129 18341334486686884560
20339313 130 18130792196539826988
20442098 301 18272082829385816975
20559304 39 18413105039633802136
20645477 70 18343862225596622287
21501502 16 18412542107002681247
21730867 7 18334855043236776932
221490 88 18337118946500755290
22445834 79 18410855456186732823
2255824 54 18335424616367528340
22854114 111 18411699919455202264
23402539 116 16805601439465886852
23463225 33 18339924822838781711
23557571 272 13334729129016860447
23559900 14 18412819183732440257
2838139 119 16154575197570361638
581208 293 18335978782711746644
7364860 26 18341611538047532384
74978 22 18341045238135606333
93112 12 18411981347466704677
9709674 26 18410859901452004159

> <PUBCHEM_SHAPE_MULTIPOLES>
286.99
6.83
2.17
0.79
3.45
0.14
-0.04
0.65
0.16
-1.52
0.28
-0.12
0.04
-0.09

> <PUBCHEM_SHAPE_SELFOVERLAP>
607.797

> <PUBCHEM_SHAPE_VOLUME>
158.4

> <PUBCHEM_COORDINATE_TYPE>
2
5
10

$$$$
