9097
  -OEChem-11012401023D

 34 35  0     0  0  0  0  0  0999 V2000
   -0.2750   -0.2284   -0.2005 C   0  0  0  0  0  0  0  0  0  0  0  0
   -1.1858    0.4245   -1.2813 C   0  0  0  0  0  0  0  0  0  0  0  0
   -1.1434   -1.2093    0.6390 C   0  0  0  0  0  0  0  0  0  0  0  0
    0.3270    0.8505    0.7432 C   0  0  0  0  0  0  0  0  0  0  0  0
    0.8196   -1.0396   -0.9495 C   0  0  0  0  0  0  0  0  0  0  0  0
   -2.4805    1.0327   -0.7395 C   0  0  0  0  0  0  0  0  0  0  0  0
   -2.4082   -0.5684    1.2095 C   0  0  0  0  0  0  0  0  0  0  0  0
    1.5498    1.5996    0.2077 C   0  0  0  0  0  0  0  0  0  0  0  0
    2.0452   -1.4322   -0.1231 C   0  0  0  0  0  0  0  0  0  0  0  0
   -3.2668    0.0409    0.1083 C   0  0  0  0  0  0  0  0  0  0  0  0
    2.8652    0.9114    0.5703 C   0  0  0  0  0  0  0  0  0  0  0  0
    3.1529   -0.3817   -0.1841 C   0  0  0  0  0  0  0  0  0  0  0  0
   -1.4598   -0.3370   -2.0247 H   0  0  0  0  0  0  0  0  0  0  0  0
   -0.6330    1.1979   -1.8282 H   0  0  0  0  0  0  0  0  0  0  0  0
   -0.5556   -1.6332    1.4621 H   0  0  0  0  0  0  0  0  0  0  0  0
   -1.4481   -2.0592    0.0133 H   0  0  0  0  0  0  0  0  0  0  0  0
    0.5865    0.3977    1.7094 H   0  0  0  0  0  0  0  0  0  0  0  0
   -0.4369    1.5977    0.9844 H   0  0  0  0  0  0  0  0  0  0  0  0
    1.1513   -0.4888   -1.8400 H   0  0  0  0  0  0  0  0  0  0  0  0
    0.3662   -1.9600   -1.3421 H   0  0  0  0  0  0  0  0  0  0  0  0
   -3.1027    1.3636   -1.5796 H   0  0  0  0  0  0  0  0  0  0  0  0
   -2.2622    1.9300   -0.1504 H   0  0  0  0  0  0  0  0  0  0  0  0
   -2.1454    0.2001    1.9454 H   0  0  0  0  0  0  0  0  0  0  0  0
   -2.9900   -1.3278    1.7447 H   0  0  0  0  0  0  0  0  0  0  0  0
    1.5648    2.5908    0.6792 H   0  0  0  0  0  0  0  0  0  0  0  0
    1.4815    1.7749   -0.8710 H   0  0  0  0  0  0  0  0  0  0  0  0
    2.4535   -2.3567   -0.5514 H   0  0  0  0  0  0  0  0  0  0  0  0
    1.7814   -1.6646    0.9139 H   0  0  0  0  0  0  0  0  0  0  0  0
   -4.1363    0.5404    0.5501 H   0  0  0  0  0  0  0  0  0  0  0  0
   -3.6536   -0.7592   -0.5350 H   0  0  0  0  0  0  0  0  0  0  0  0
    2.8912    0.7141    1.6494 H   0  0  0  0  0  0  0  0  0  0  0  0
    3.6879    1.6095    0.3713 H   0  0  0  0  0  0  0  0  0  0  0  0
    3.3778   -0.1462   -1.2320 H   0  0  0  0  0  0  0  0  0  0  0  0
    4.0696   -0.8194    0.2305 H   0  0  0  0  0  0  0  0  0  0  0  0
  1  2  1  0  0  0  0
  1  3  1  0  0  0  0
  1  4  1  0  0  0  0
  1  5  1  0  0  0  0
  2  6  1  0  0  0  0
  2 13  1  0  0  0  0
  2 14  1  0  0  0  0
  3  7  1  0  0  0  0
  3 15  1  0  0  0  0
  3 16  1  0  0  0  0
  4  8  1  0  0  0  0
  4 17  1  0  0  0  0
  4 18  1  0  0  0  0
  5  9  1  0  0  0  0
  5 19  1  0  0  0  0
  5 20  1  0  0  0  0
  6 10  1  0  0  0  0
  6 21  1  0  0  0  0
  6 22  1  0  0  0  0
  7 10  1  0  0  0  0
  7 23  1  0  0  0  0
  7 24  1  0  0  0  0
  8 11  1  0  0  0  0
  8 25  1  0  0  0  0
  8 26  1  0  0  0  0
  9 12  1  0  0  0  0
  9 27  1  0  0  0  0
  9 28  1  0  0  0  0
 10 29  1  0  0  0  0
 10 30  1  0  0  0  0
 11 12  1  0  0  0  0
 11 31  1  0  0  0  0
 11 32  1  0  0  0  0
 12 33  1  0  0  0  0
 12 34  1  0  0  0  0
M  END
> <PUBCHEM_COMPOUND_CID>
9097

> <PUBCHEM_CONFORMER_RMSD>
0.6

> <PUBCHEM_CONFORMER_DIVERSEORDER>
1
2
3
4

> <PUBCHEM_MMFF94_PARTIAL_CHARGES>
0

> <PUBCHEM_EFFECTIVE_ROTOR_COUNT>
2.2

> <PUBCHEM_PHARMACOPHORE_FEATURES>
2
6 1 2 3 6 7 10 rings
7 1 4 5 8 9 11 12 rings

> <PUBCHEM_HEAVY_ATOM_COUNT>
12

> <PUBCHEM_ATOM_DEF_STEREO_COUNT>
0

> <PUBCHEM_ATOM_UDEF_STEREO_COUNT>
0

> <PUBCHEM_BOND_DEF_STEREO_COUNT>
0

> <PUBCHEM_BOND_UDEF_STEREO_COUNT>
0

> <PUBCHEM_ISOTOPIC_ATOM_COUNT>
0

> <PUBCHEM_COMPONENT_COUNT>
1

> <PUBCHEM_CACTVS_TAUTO_COUNT>
1

> <PUBCHEM_CONFORMER_ID>
0000238900000001

> <PUBCHEM_MMFF94_ENERGY>
24.7296

> <PUBCHEM_FEATURE_SELFOVERLAP>
10.149

> <PUBCHEM_SHAPE_FINGERPRINT>
10219947 1 17988645172811160982
10608611 8 18335415772671377533
10857977 72 17676211290262862191
11031198 65 18343022215724058732
12138202 97 18040702676125569111
12423570 1 14109153578235772591
124424 183 18188481389784858762
12491281 212 15698010668541268914
12716758 59 17749670671315866243
12932764 1 18408608058398274782
13581323 91 17312820485100443147
13839132 238 18041551434756882525
14993402 34 16845853485836829669
15219456 202 18408040718972186321
15775835 57 17132113575843299816
16945 1 18410574002420991156
17844478 74 18260835899159512105
18175812 5 18261113005938055615
18186145 218 18264769861500692957
19049666 15 18189612735419978385
20201158 50 18410293584022306442
20645464 45 18260260858851871753
21501502 16 18338515377606963847
23402539 116 18114731720730231167
2748010 2 17841431432451451580
369184 2 18411980252086578775
5084963 1 18128808823365386235
528862 383 18272650160152937570
528886 8 18060692905598896018
53812653 166 18115025195550057041
63268167 104 17846774117969037544
77492 1 16630806599403408463

> <PUBCHEM_SHAPE_MULTIPOLES>
246.95
4.86
1.49
1.11
0.04
0.05
-0.06
0.29
0.41
0.57
0.04
-0.44
-0.02
0.72

> <PUBCHEM_SHAPE_SELFOVERLAP>
490.148

> <PUBCHEM_SHAPE_VOLUME>
143.5

> <PUBCHEM_COORDINATE_TYPE>
2
5
10

$$$$
