3270485
  -OEChem-11012400533D

 41 40  0     0  0  0  0  0  0999 V2000
   -0.0020    0.0063   -0.0483 Si  0  0  0  0  0  0  0  0  0  0  0  0
    1.4442    1.0475   -0.6287 C   0  0  0  0  0  0  0  0  0  0  0  0
   -1.6001    0.7302   -0.6537 C   0  0  0  0  0  0  0  0  0  0  0  0
    0.1968   -1.7472   -0.6234 C   0  0  0  0  0  0  0  0  0  0  0  0
    2.8478    0.6561   -0.1213 C   0  0  0  0  0  0  0  0  0  0  0  0
   -1.9960    2.1217   -0.1170 C   0  0  0  0  0  0  0  0  0  0  0  0
   -0.8478   -2.7744   -0.1394 C   0  0  0  0  0  0  0  0  0  0  0  0
    2.8564    0.6270    1.4105 C   0  0  0  0  0  0  0  0  0  0  0  0
    3.9337    1.6184   -0.6143 C   0  0  0  0  0  0  0  0  0  0  0  0
   -2.0247    2.0981    1.4147 C   0  0  0  0  0  0  0  0  0  0  0  0
   -3.3609    2.5805   -0.6410 C   0  0  0  0  0  0  0  0  0  0  0  0
   -0.9081   -2.7711    1.3917 C   0  0  0  0  0  0  0  0  0  0  0  0
   -0.5392   -4.1930   -0.6297 C   0  0  0  0  0  0  0  0  0  0  0  0
   -0.0082    0.0098    1.4351 H   0  0  0  0  0  0  0  0  0  0  0  0
    1.4530    1.0317   -1.7255 H   0  0  0  0  0  0  0  0  0  0  0  0
    1.2421    2.0874   -0.3423 H   0  0  0  0  0  0  0  0  0  0  0  0
   -1.5631    0.7798   -1.7490 H   0  0  0  0  0  0  0  0  0  0  0  0
   -2.4049    0.0235   -0.4145 H   0  0  0  0  0  0  0  0  0  0  0  0
    0.2008   -1.7508   -1.7206 H   0  0  0  0  0  0  0  0  0  0  0  0
    1.1931   -2.0934   -0.3204 H   0  0  0  0  0  0  0  0  0  0  0  0
    3.0995   -0.3483   -0.4854 H   0  0  0  0  0  0  0  0  0  0  0  0
   -1.2496    2.8611   -0.4352 H   0  0  0  0  0  0  0  0  0  0  0  0
   -1.8379   -2.4960   -0.5227 H   0  0  0  0  0  0  0  0  0  0  0  0
    2.4530    1.5527    1.8357 H   0  0  0  0  0  0  0  0  0  0  0  0
    3.8811    0.5143    1.7839 H   0  0  0  0  0  0  0  0  0  0  0  0
    2.2951   -0.2208    1.8134 H   0  0  0  0  0  0  0  0  0  0  0  0
    3.7568    2.6362   -0.2504 H   0  0  0  0  0  0  0  0  0  0  0  0
    3.9518    1.6482   -1.7087 H   0  0  0  0  0  0  0  0  0  0  0  0
    4.9238    1.3005   -0.2712 H   0  0  0  0  0  0  0  0  0  0  0  0
   -2.6208    1.2619    1.7967 H   0  0  0  0  0  0  0  0  0  0  0  0
   -2.4713    3.0217    1.8017 H   0  0  0  0  0  0  0  0  0  0  0  0
   -1.0223    2.0460    1.8488 H   0  0  0  0  0  0  0  0  0  0  0  0
   -4.1574    1.8995   -0.3223 H   0  0  0  0  0  0  0  0  0  0  0  0
   -3.3606    2.6130   -1.7355 H   0  0  0  0  0  0  0  0  0  0  0  0
   -3.6035    3.5840   -0.2758 H   0  0  0  0  0  0  0  0  0  0  0  0
    0.0872   -2.8790    1.8368 H   0  0  0  0  0  0  0  0  0  0  0  0
   -1.5195   -3.6073    1.7508 H   0  0  0  0  0  0  0  0  0  0  0  0
   -1.3762   -1.8655    1.7879 H   0  0  0  0  0  0  0  0  0  0  0  0
    0.4252   -4.5440   -0.2471 H   0  0  0  0  0  0  0  0  0  0  0  0
   -0.5004   -4.2209   -1.7236 H   0  0  0  0  0  0  0  0  0  0  0  0
   -1.3121   -4.8969   -0.3036 H   0  0  0  0  0  0  0  0  0  0  0  0
  1  2  1  0  0  0  0
  1  3  1  0  0  0  0
  1  4  1  0  0  0  0
  1 14  1  0  0  0  0
  2  5  1  0  0  0  0
  2 15  1  0  0  0  0
  2 16  1  0  0  0  0
  3  6  1  0  0  0  0
  3 17  1  0  0  0  0
  3 18  1  0  0  0  0
  4  7  1  0  0  0  0
  4 19  1  0  0  0  0
  4 20  1  0  0  0  0
  5  8  1  0  0  0  0
  5  9  1  0  0  0  0
  5 21  1  0  0  0  0
  6 10  1  0  0  0  0
  6 11  1  0  0  0  0
  6 22  1  0  0  0  0
  7 12  1  0  0  0  0
  7 13  1  0  0  0  0
  7 23  1  0  0  0  0
  8 24  1  0  0  0  0
  8 25  1  0  0  0  0
  8 26  1  0  0  0  0
  9 27  1  0  0  0  0
  9 28  1  0  0  0  0
  9 29  1  0  0  0  0
 10 30  1  0  0  0  0
 10 31  1  0  0  0  0
 10 32  1  0  0  0  0
 11 33  1  0  0  0  0
 11 34  1  0  0  0  0
 11 35  1  0  0  0  0
 12 36  1  0  0  0  0
 12 37  1  0  0  0  0
 12 38  1  0  0  0  0
 13 39  1  0  0  0  0
 13 40  1  0  0  0  0
 13 41  1  0  0  0  0
M  END
> <PUBCHEM_COMPOUND_CID>
3270485

> <PUBCHEM_CONFORMER_RMSD>
0.6

> <PUBCHEM_CONFORMER_DIVERSEORDER>
1
2
3

> <PUBCHEM_MMFF94_PARTIAL_CHARGES>
5
1 0.44
14 -0.2
2 -0.08
3 -0.08
4 -0.08

> <PUBCHEM_EFFECTIVE_ROTOR_COUNT>
6

> <PUBCHEM_PHARMACOPHORE_FEATURES>
3
3 5 8 9 hydrophobe
3 6 10 11 hydrophobe
3 7 12 13 hydrophobe

> <PUBCHEM_HEAVY_ATOM_COUNT>
13

> <PUBCHEM_ATOM_DEF_STEREO_COUNT>
0

> <PUBCHEM_ATOM_UDEF_STEREO_COUNT>
0

> <PUBCHEM_BOND_DEF_STEREO_COUNT>
0

> <PUBCHEM_BOND_UDEF_STEREO_COUNT>
0

> <PUBCHEM_ISOTOPIC_ATOM_COUNT>
0

> <PUBCHEM_COMPONENT_COUNT>
1

> <PUBCHEM_CACTVS_TAUTO_COUNT>
1

> <PUBCHEM_CONFORMER_ID>
0031E75500000001

> <PUBCHEM_MMFF94_ENERGY>
17.068

> <PUBCHEM_FEATURE_SELFOVERLAP>
15.223

> <PUBCHEM_SHAPE_FINGERPRINT>
1 1 18122059806229999340
11357001 24 18190745430191943242
12500047 106 18412257351056234136
12788726 201 18118395378909226538
13275264 69 18048598423674808058
136203 1 18266458900160085137
13681431 1 17329991296166721889
15309172 13 18335990761507988660
15502708 68 18120646933772573588
15906896 17 18261110832700603586
17841504 4 17329439341778367433
18410436 195 17404303391574045207
19021347 4 18410573963676614757
20097449 115 17474669928154375678
20361792 2 17475515457197408838
20510252 161 18342176725552405361
20645476 183 18335698343149604788
20645477 70 17832417602136997021
20711985 327 17261324007889987846
20711985 344 18192705880946745882
21524375 3 18200586982520576404
2255824 54 17908144278696609205
23419403 2 16836911110755641743
23557571 272 17982454003625077676
23558518 356 18336250284975538170
23598294 1 18192714672771044914
2748010 2 18265072257189262367
305870 269 18194679267847658044
3071541 236 18337939181990199840
4175511 71 17400939976909754783
474229 33 18408887360759551237
6049 1 17700984498897974712
7364860 26 17764581028314905341
81228 2 18194401314706823650
81539 233 18191861219841151965

> <PUBCHEM_SHAPE_MULTIPOLES>
285.75
4.81
4.74
1.26
3.63
5.72
-0.49
-5.77
0.21
-3.55
0.28
-0.02
-0.01
0.02

> <PUBCHEM_SHAPE_SELFOVERLAP>
506.018

> <PUBCHEM_SHAPE_VOLUME>
189.3

> <PUBCHEM_COORDINATE_TYPE>
2
5
10

$$$$
