142603
  -OEChem-11012400413D

 32 32  0     1  0  0  0  0  0999 V2000
    0.6995   -0.5159    0.5270 O   0  0  0  0  0  0  0  0  0  0  0  0
    3.4053    1.3731   -0.5509 O   0  0  0  0  0  0  0  0  0  0  0  0
   -0.2134   -1.4882   -0.0001 C   0  0  0  0  0  0  0  0  0  0  0  0
    2.1270    1.3298    0.0875 C   0  0  1  0  0  0  0  0  0  0  0  0
   -1.3821   -0.7172   -0.6475 C   0  0  0  0  0  0  0  0  0  0  0  0
    1.1836    0.3352   -0.4967 C   0  0  0  0  0  0  0  0  0  0  0  0
    3.3678    0.8871    0.7971 C   0  0  0  0  0  0  0  0  0  0  0  0
   -2.0743    0.3088    0.2538 C   0  0  0  0  0  0  0  0  0  0  0  0
   -0.6681   -2.3444    1.1822 C   0  0  0  0  0  0  0  0  0  0  0  0
    0.5543   -2.3436   -1.0101 C   0  0  0  0  0  0  0  0  0  0  0  0
   -3.1657    1.0634   -0.5088 C   0  0  0  0  0  0  0  0  0  0  0  0
   -3.8339    2.1118    0.3664 C   0  0  0  0  0  0  0  0  0  0  0  0
    1.6615    2.2560    0.3945 H   0  0  0  0  0  0  0  0  0  0  0  0
   -2.1363   -1.4569   -0.9534 H   0  0  0  0  0  0  0  0  0  0  0  0
   -1.0852   -0.2437   -1.5905 H   0  0  0  0  0  0  0  0  0  0  0  0
    1.7230   -0.2200   -1.2688 H   0  0  0  0  0  0  0  0  0  0  0  0
    0.3999    0.9269   -0.9737 H   0  0  0  0  0  0  0  0  0  0  0  0
    3.7710    1.5287    1.5698 H   0  0  0  0  0  0  0  0  0  0  0  0
    3.5368   -0.1707    0.9510 H   0  0  0  0  0  0  0  0  0  0  0  0
   -2.5272   -0.1947    1.1152 H   0  0  0  0  0  0  0  0  0  0  0  0
   -1.3511    1.0306    0.6483 H   0  0  0  0  0  0  0  0  0  0  0  0
   -1.4299   -3.0716    0.8833 H   0  0  0  0  0  0  0  0  0  0  0  0
    0.1800   -2.8919    1.6103 H   0  0  0  0  0  0  0  0  0  0  0  0
   -1.0680   -1.7301    1.9957 H   0  0  0  0  0  0  0  0  0  0  0  0
    0.0053   -3.2684   -1.2225 H   0  0  0  0  0  0  0  0  0  0  0  0
    0.6864   -1.8482   -1.9777 H   0  0  0  0  0  0  0  0  0  0  0  0
    1.5470   -2.6171   -0.6346 H   0  0  0  0  0  0  0  0  0  0  0  0
   -2.7337    1.5561   -1.3877 H   0  0  0  0  0  0  0  0  0  0  0  0
   -3.9230    0.3581   -0.8704 H   0  0  0  0  0  0  0  0  0  0  0  0
   -3.1076    2.8529    0.7153 H   0  0  0  0  0  0  0  0  0  0  0  0
   -4.3026    1.6510    1.2418 H   0  0  0  0  0  0  0  0  0  0  0  0
   -4.6108    2.6373   -0.1977 H   0  0  0  0  0  0  0  0  0  0  0  0
  1  3  1  0  0  0  0
  1  6  1  0  0  0  0
  2  4  1  0  0  0  0
  2  7  1  0  0  0  0
  3  5  1  0  0  0  0
  3  9  1  0  0  0  0
  3 10  1  0  0  0  0
  4  6  1  0  0  0  0
  4  7  1  0  0  0  0
  4 13  1  0  0  0  0
  5  8  1  0  0  0  0
  5 14  1  0  0  0  0
  5 15  1  0  0  0  0
  6 16  1  0  0  0  0
  6 17  1  0  0  0  0
  7 18  1  0  0  0  0
  7 19  1  0  0  0  0
  8 11  1  0  0  0  0
  8 20  1  0  0  0  0
  8 21  1  0  0  0  0
  9 22  1  0  0  0  0
  9 23  1  0  0  0  0
  9 24  1  0  0  0  0
 10 25  1  0  0  0  0
 10 26  1  0  0  0  0
 10 27  1  0  0  0  0
 11 12  1  0  0  0  0
 11 28  1  0  0  0  0
 11 29  1  0  0  0  0
 12 30  1  0  0  0  0
 12 31  1  0  0  0  0
 12 32  1  0  0  0  0
M  END
> <PUBCHEM_COMPOUND_CID>
142603

> <PUBCHEM_CONFORMER_RMSD>
0.6

> <PUBCHEM_CONFORMER_DIVERSEORDER>
2
21
27
5
14
32
18
35
4
15
17
1
23
11
28
34
6
19
38
7
22
8
25
3
37
20
30
16
12
10
33
31
29
13
24
26
9
36

> <PUBCHEM_MMFF94_PARTIAL_CHARGES>
9
1 -0.56
13 0.1
18 0.1
19 0.1
2 -0.3
3 0.28
4 -0.05
6 0.38
7 -0.05

> <PUBCHEM_EFFECTIVE_ROTOR_COUNT>
6.6

> <PUBCHEM_PHARMACOPHORE_FEATURES>
4
1 1 acceptor
1 12 hydrophobe
1 2 acceptor
3 3 9 10 hydrophobe

> <PUBCHEM_HEAVY_ATOM_COUNT>
12

> <PUBCHEM_ATOM_DEF_STEREO_COUNT>
0

> <PUBCHEM_ATOM_UDEF_STEREO_COUNT>
1

> <PUBCHEM_BOND_DEF_STEREO_COUNT>
0

> <PUBCHEM_BOND_UDEF_STEREO_COUNT>
0

> <PUBCHEM_ISOTOPIC_ATOM_COUNT>
0

> <PUBCHEM_COMPONENT_COUNT>
1

> <PUBCHEM_CACTVS_TAUTO_COUNT>
1

> <PUBCHEM_CONFORMER_ID>
00022D0B00000002

> <PUBCHEM_MMFF94_ENERGY>
28.5959

> <PUBCHEM_FEATURE_SELFOVERLAP>
20.297

> <PUBCHEM_SHAPE_FINGERPRINT>
10149128 76 18410856538407682625
10465860 228 18197500623527634537
10922049 32 18410299111724337611
122479 349 18410012182065437984
12500047 106 18129656538942164904
12841375 7 10809353238697445737
12932764 1 17768818911659451656
13380535 76 18410289216130191711
13618510 140 18411136892482799285
14123255 52 18341890766893971521
14648413 74 18126009256793331623
15775835 57 18411979148375202049
15906896 17 18264766751797229563
170605 34 18339079285717685853
1741750 31 18340202002885321104
18186145 218 17775014500235585368
19021347 4 18335420196672204875
19837323 101 18269273637116409239
20524608 308 18199186381027204814
20645477 56 17985833872214198504
20653085 51 18342745147288705110
20671657 1 18196373611361288927
21028194 46 18411703222316467563
21524375 3 18410001144120455807
23402539 116 18055056920711831543
25 1 18341616971007147061
305870 269 18334289829851453915
3250762 1 18338535078712361879
5706482 22 18336815481180362043
7364860 26 18055632811380246007
81228 2 17904188583688879531
81539 233 18262514784901416789

> <PUBCHEM_SHAPE_MULTIPOLES>
235.22
5.64
2.66
1
1.12
1.16
0.07
-6.01
0.32
0.34
0.18
-0.09
0.4
0.11

> <PUBCHEM_SHAPE_SELFOVERLAP>
442.649

> <PUBCHEM_SHAPE_VOLUME>
148.2

> <PUBCHEM_COORDINATE_TYPE>
2
5
10

$$$$
