13432695
  -OEChem-11012400313D

 27 26  0     0  0  0  0  0  0999 V2000
    0.8850    1.1892   -2.2839 O   0  0  0  0  0  0  0  0  0  0  0  0
   -0.8975    1.2263    2.2701 O   0  0  0  0  0  0  0  0  0  0  0  0
   -2.0504    0.8096   -1.2398 O   0  5  0  0  0  0  0  0  0  0  0  0
    2.0265    0.8343    1.2514 O   0  5  0  0  0  0  0  0  0  0  0  0
   -2.5105   -1.4374   -0.2823 O   0  0  0  0  0  0  0  0  0  0  0  0
    2.5263   -1.4058    0.2976 O   0  0  0  0  0  0  0  0  0  0  0  0
   -1.2166    0.3096   -0.4085 N   0  3  0  0  0  0  0  0  0  0  0  0
    1.2085    0.3240    0.4107 N   0  3  0  0  0  0  0  0  0  0  0  0
   -1.3363   -0.8190    0.1743 N   0  0  0  0  0  0  0  0  0  0  0  0
    1.3491   -0.8026   -0.1713 N   0  0  0  0  0  0  0  0  0  0  0  0
   -0.0063    1.1173   -0.0061 C   0  0  0  0  0  0  0  0  0  0  0  0
    0.4456    1.9911   -1.1928 C   0  0  0  0  0  0  0  0  0  0  0  0
   -0.4626    2.0102    1.1644 C   0  0  0  0  0  0  0  0  0  0  0  0
   -2.6300   -2.6902    0.3740 C   0  0  0  0  0  0  0  0  0  0  0  0
    2.6693   -2.6567   -0.3578 C   0  0  0  0  0  0  0  0  0  0  0  0
   -0.3575    2.6416   -1.5551 H   0  0  0  0  0  0  0  0  0  0  0  0
    1.2807    2.6409   -0.9061 H   0  0  0  0  0  0  0  0  0  0  0  0
    0.3307    2.6817    1.5108 H   0  0  0  0  0  0  0  0  0  0  0  0
   -1.3082    2.6397    0.8646 H   0  0  0  0  0  0  0  0  0  0  0  0
    1.5970    0.6152   -1.9537 H   0  0  0  0  0  0  0  0  0  0  0  0
   -0.1597    0.6435    2.5184 H   0  0  0  0  0  0  0  0  0  0  0  0
   -1.7733   -3.3281    0.1352 H   0  0  0  0  0  0  0  0  0  0  0  0
   -3.5417   -3.1803    0.0223 H   0  0  0  0  0  0  0  0  0  0  0  0
   -2.7030   -2.5470    1.4566 H   0  0  0  0  0  0  0  0  0  0  0  0
    2.7515   -2.5120   -1.4395 H   0  0  0  0  0  0  0  0  0  0  0  0
    1.8187   -3.3059   -0.1280 H   0  0  0  0  0  0  0  0  0  0  0  0
    3.5837   -3.1347    0.0032 H   0  0  0  0  0  0  0  0  0  0  0  0
  1 12  1  0  0  0  0
  1 20  1  0  0  0  0
  2 13  1  0  0  0  0
  2 21  1  0  0  0  0
  3  7  1  0  0  0  0
  4  8  1  0  0  0  0
  5  9  1  0  0  0  0
  5 14  1  0  0  0  0
  6 10  1  0  0  0  0
  6 15  1  0  0  0  0
  7  9  2  0  0  0  0
  7 11  1  0  0  0  0
  8 10  2  0  0  0  0
  8 11  1  0  0  0  0
 11 12  1  0  0  0  0
 11 13  1  0  0  0  0
 12 16  1  0  0  0  0
 12 17  1  0  0  0  0
 13 18  1  0  0  0  0
 13 19  1  0  0  0  0
 14 22  1  0  0  0  0
 14 23  1  0  0  0  0
 14 24  1  0  0  0  0
 15 25  1  0  0  0  0
 15 26  1  0  0  0  0
 15 27  1  0  0  0  0
M  CHG  4   3  -1   4  -1   7   1   8   1
M  END
> <PUBCHEM_COMPOUND_CID>
13432695

> <PUBCHEM_CONFORMER_RMSD>
0.8

> <PUBCHEM_CONFORMER_DIVERSEORDER>
1
36
14
5
30
25
22
3
10
23
35
13
7
27
18
40
33
16
38
4
39
6
17
2
9
8
26
12
24
34
15
19
37
20
28
11
21
29
31
32

> <PUBCHEM_MMFF94_PARTIAL_CHARGES>
17
1 -0.68
10 -0.27
11 0.2
12 0.28
13 0.28
14 0.28
15 0.28
2 -0.68
20 0.4
21 0.4
3 -0.63
4 -0.63
5 -0.22
6 -0.22
7 0.74
8 0.74
9 -0.27

> <PUBCHEM_EFFECTIVE_ROTOR_COUNT>
6

> <PUBCHEM_PHARMACOPHORE_FEATURES>
6
1 1 acceptor
1 1 donor
1 2 acceptor
1 2 donor
1 3 anion
1 4 anion

> <PUBCHEM_HEAVY_ATOM_COUNT>
15

> <PUBCHEM_ATOM_DEF_STEREO_COUNT>
0

> <PUBCHEM_ATOM_UDEF_STEREO_COUNT>
0

> <PUBCHEM_BOND_DEF_STEREO_COUNT>
2

> <PUBCHEM_BOND_UDEF_STEREO_COUNT>
0

> <PUBCHEM_ISOTOPIC_ATOM_COUNT>
0

> <PUBCHEM_COMPONENT_COUNT>
1

> <PUBCHEM_CACTVS_TAUTO_COUNT>
1

> <PUBCHEM_CONFORMER_ID>
00CCF77700000001

> <PUBCHEM_MMFF94_ENERGY>
31.7578

> <PUBCHEM_FEATURE_SELFOVERLAP>
30.447

> <PUBCHEM_SHAPE_FINGERPRINT>
12326174 3 17271168953363694577
12423570 1 8200866733360860521
13024252 1 14926794353623209736
14128692 85 18261959659945619332
14817 1 15462677049303743857
15001771 113 18410586101396709003
16945 1 18338500997972255613
20645477 70 17755570896004572951
2748010 2 18337376197582348118
3060560 45 16889762770892937831
535629 181 16807304483897690980
568465 68 17912056641562927530
68419 9 17980520902726241044

> <PUBCHEM_SHAPE_MULTIPOLES>
253.55
3.44
3.03
1.61
0.1
1.76
0.01
3.62
-0.01
-0.06
-0.02
0
-1.27
-0.06

> <PUBCHEM_SHAPE_SELFOVERLAP>
481.72

> <PUBCHEM_SHAPE_VOLUME>
155.9

> <PUBCHEM_COORDINATE_TYPE>
2
5
10

$$$$
