643785
  -OEChem-11012401233D

 13 12  0     0  0  0  0  0  0999 V2000
   -1.3057    0.5717    0.0000 C   0  0  0  0  0  0  0  0  0  0  0  0
   -1.9694   -0.7662    0.0000 C   0  0  0  0  0  0  0  0  0  0  0  0
    0.0245    0.7424    0.0000 C   0  0  0  0  0  0  0  0  0  0  0  0
    0.9615   -0.3566    0.0000 C   0  0  0  0  0  0  0  0  0  0  0  0
    2.2890   -0.1913    0.0000 C   0  0  0  0  0  0  0  0  0  0  0  0
   -1.9464    1.4492    0.0161 H   0  0  0  0  0  0  0  0  0  0  0  0
   -1.9454   -1.2129    0.9986 H   0  0  0  0  0  0  0  0  0  0  0  0
   -1.5299   -1.4545   -0.7279 H   0  0  0  0  0  0  0  0  0  0  0  0
   -3.0210   -0.6457   -0.2824 H   0  0  0  0  0  0  0  0  0  0  0  0
    0.4241    1.7530    0.0054 H   0  0  0  0  0  0  0  0  0  0  0  0
    0.5877   -1.3754    0.0133 H   0  0  0  0  0  0  0  0  0  0  0  0
    2.9480   -1.0531    0.0064 H   0  0  0  0  0  0  0  0  0  0  0  0
    2.7460    0.7927   -0.0065 H   0  0  0  0  0  0  0  0  0  0  0  0
  1  2  1  0  0  0  0
  1  3  2  0  0  0  0
  1  6  1  0  0  0  0
  2  7  1  0  0  0  0
  2  8  1  0  0  0  0
  2  9  1  0  0  0  0
  3  4  1  0  0  0  0
  3 10  1  0  0  0  0
  4  5  2  0  0  0  0
  4 11  1  0  0  0  0
  5 12  1  0  0  0  0
  5 13  1  0  0  0  0
M  END
> <PUBCHEM_COMPOUND_CID>
643785

> <PUBCHEM_CONFORMER_RMSD>
0.4

> <PUBCHEM_CONFORMER_DIVERSEORDER>
1
2

> <PUBCHEM_MMFF94_PARTIAL_CHARGES>
10
1 -0.29
10 0.15
11 0.15
12 0.15
13 0.15
2 0.14
3 -0.15
4 -0.15
5 -0.3
6 0.15

> <PUBCHEM_EFFECTIVE_ROTOR_COUNT>
1

> <PUBCHEM_PHARMACOPHORE_FEATURES>
2
1 2 hydrophobe
1 5 hydrophobe

> <PUBCHEM_HEAVY_ATOM_COUNT>
5

> <PUBCHEM_ATOM_DEF_STEREO_COUNT>
0

> <PUBCHEM_ATOM_UDEF_STEREO_COUNT>
0

> <PUBCHEM_BOND_DEF_STEREO_COUNT>
1

> <PUBCHEM_BOND_UDEF_STEREO_COUNT>
0

> <PUBCHEM_ISOTOPIC_ATOM_COUNT>
0

> <PUBCHEM_COMPONENT_COUNT>
1

> <PUBCHEM_CACTVS_TAUTO_COUNT>
1

> <PUBCHEM_CONFORMER_ID>
0009D2C900000001

> <PUBCHEM_MMFF94_ENERGY>
4.858

> <PUBCHEM_FEATURE_SELFOVERLAP>
10.149

> <PUBCHEM_SHAPE_FINGERPRINT>
14390081 3 7925620094974085550
16714656 1 9583517633178944682
20096714 4 9583518715536985983
21040471 1 9295294940728902657
24536 1 10951467281203258192
29004967 10 17918273151578666442
5460574 1 18410856534001880580

> <PUBCHEM_SHAPE_MULTIPOLES>
102.9
2.97
0.94
0.62
0.6
0.02
0
-0.67
0
-0.27
0
0
0
0

> <PUBCHEM_SHAPE_SELFOVERLAP>
180.255

> <PUBCHEM_SHAPE_VOLUME>
67.9

> <PUBCHEM_COORDINATE_TYPE>
2
5
10

$$$$
