14344427
  -OEChem-11012401193D

 14 13  0     0  0  0  0  0  0999 V2000
   -2.5029    0.1134   -0.4418 O   0  5  0  0  0  0  0  0  0  0  0  0
   -0.0594   -2.1856   -0.5327 O   0  5  0  0  0  0  0  0  0  0  0  0
   -1.5913    1.7421    0.7182 O   0  0  0  0  0  0  0  0  0  0  0  0
   -0.3089   -1.4146    1.5099 O   0  0  0  0  0  0  0  0  0  0  0  0
   -1.5269    0.7175    0.0260 N   0  3  0  0  0  0  0  0  0  0  0  0
   -0.1714   -1.2644    0.2888 N   0  3  0  0  0  0  0  0  0  0  0  0
    0.9307    0.9848    0.3489 N   0  0  0  0  0  0  0  0  0  0  0  0
    2.1166    0.6511    0.1599 N   0  3  0  0  0  0  0  0  0  0  0  0
    3.1996    0.3398   -0.0173 N   0  5  0  0  0  0  0  0  0  0  0  0
   -0.1319    0.1582   -0.2677 C   0  0  0  0  0  0  0  0  0  0  0  0
    0.0458    0.1576   -1.7923 C   0  0  0  0  0  0  0  0  0  0  0  0
   -0.7490   -0.3920   -2.3110 H   0  0  0  0  0  0  0  0  0  0  0  0
    0.0366    1.1826   -2.1832 H   0  0  0  0  0  0  0  0  0  0  0  0
    0.9981   -0.2940   -2.0944 H   0  0  0  0  0  0  0  0  0  0  0  0
  1  5  1  0  0  0  0
  2  6  1  0  0  0  0
  3  5  2  0  0  0  0
  4  6  2  0  0  0  0
  5 10  1  0  0  0  0
  6 10  1  0  0  0  0
  7  8  2  0  0  0  0
  7 10  1  0  0  0  0
  8  9  2  0  0  0  0
 10 11  1  0  0  0  0
 11 12  1  0  0  0  0
 11 13  1  0  0  0  0
 11 14  1  0  0  0  0
M  CHG  6   1  -1   2  -1   5   1   6   1   8   1   9  -1
M  END
> <PUBCHEM_COMPOUND_CID>
14344427

> <PUBCHEM_CONFORMER_RMSD>
0.6

> <PUBCHEM_CONFORMER_DIVERSEORDER>
1
5
7
12
10
2
6
3
11
9
4
8

> <PUBCHEM_MMFF94_PARTIAL_CHARGES>
10
1 -0.52
10 0.73
2 -0.52
3 -0.52
4 -0.52
5 0.8
6 0.8
7 -0.56
8 0.69
9 -0.37

> <PUBCHEM_EFFECTIVE_ROTOR_COUNT>
3

> <PUBCHEM_PHARMACOPHORE_FEATURES>
6
1 1 acceptor
1 1 anion
1 2 acceptor
1 2 anion
1 3 acceptor
1 4 acceptor

> <PUBCHEM_HEAVY_ATOM_COUNT>
11

> <PUBCHEM_ATOM_DEF_STEREO_COUNT>
0

> <PUBCHEM_ATOM_UDEF_STEREO_COUNT>
0

> <PUBCHEM_BOND_DEF_STEREO_COUNT>
0

> <PUBCHEM_BOND_UDEF_STEREO_COUNT>
1

> <PUBCHEM_ISOTOPIC_ATOM_COUNT>
0

> <PUBCHEM_COMPONENT_COUNT>
1

> <PUBCHEM_CACTVS_TAUTO_COUNT>
1

> <PUBCHEM_CONFORMER_ID>
00DAE0EB00000001

> <PUBCHEM_MMFF94_ENERGY>
19.3282

> <PUBCHEM_FEATURE_SELFOVERLAP>
30.61

> <PUBCHEM_SHAPE_FINGERPRINT>
13024252 1 12613016306462309028
14993402 34 17313384568893614910
16945 1 18272927245483122229
20653085 51 17131564885387172456
21040471 1 18411419509841286624
29004967 10 10303809933912877508
5084963 1 18114175337138272540
528862 383 17387393676181149730
68250623 7 17986676956666011311

> <PUBCHEM_SHAPE_MULTIPOLES>
177.99
2.84
1.67
1.2
1.74
0.74
0.32
-1.13
-0.15
-0.42
-0.33
-0.15
0.16
-0.06

> <PUBCHEM_SHAPE_SELFOVERLAP>
344.062

> <PUBCHEM_SHAPE_VOLUME>
105.9

> <PUBCHEM_COORDINATE_TYPE>
2
5
10

$$$$
