136817
  -OEChem-11012401113D

 31 33  0     0  0  0  0  0  0999 V2000
   -0.0009   -0.6701   -0.0027 S   0  0  0  0  0  0  0  0  0  0  0  0
   -0.0007    3.7411    0.0026 O   0  0  0  0  0  0  0  0  0  0  0  0
   -1.3335    0.4238   -0.0013 C   0  0  0  0  0  0  0  0  0  0  0  0
    1.3336    0.4228   -0.0008 C   0  0  0  0  0  0  0  0  0  0  0  0
   -2.6398   -0.2160   -0.0006 C   0  0  0  0  0  0  0  0  0  0  0  0
    2.6387   -0.2156   -0.0006 C   0  0  0  0  0  0  0  0  0  0  0  0
   -1.2702    1.7597    0.0008 C   0  0  0  0  0  0  0  0  0  0  0  0
    1.2689    1.7595    0.0011 C   0  0  0  0  0  0  0  0  0  0  0  0
   -0.0006    2.5137    0.0018 C   0  0  0  0  0  0  0  0  0  0  0  0
   -3.2677   -0.5208   -1.2084 C   0  0  0  0  0  0  0  0  0  0  0  0
    3.2657   -0.5246    1.2077 C   0  0  0  0  0  0  0  0  0  0  0  0
   -3.2647   -0.5247    1.2078 C   0  0  0  0  0  0  0  0  0  0  0  0
    3.2680   -0.5210   -1.2084 C   0  0  0  0  0  0  0  0  0  0  0  0
   -4.5206   -1.1341   -1.2078 C   0  0  0  0  0  0  0  0  0  0  0  0
    4.5188   -1.1372    1.2080 C   0  0  0  0  0  0  0  0  0  0  0  0
   -4.5175   -1.1381    1.2081 C   0  0  0  0  0  0  0  0  0  0  0  0
    4.5212   -1.1338   -1.2080 C   0  0  0  0  0  0  0  0  0  0  0  0
   -5.1454   -1.4428    0.0004 C   0  0  0  0  0  0  0  0  0  0  0  0
    5.1465   -1.4418    0.0003 C   0  0  0  0  0  0  0  0  0  0  0  0
   -2.1725    2.3665    0.0020 H   0  0  0  0  0  0  0  0  0  0  0  0
    2.1710    2.3666    0.0024 H   0  0  0  0  0  0  0  0  0  0  0  0
   -2.7951   -0.2866   -2.1594 H   0  0  0  0  0  0  0  0  0  0  0  0
    2.7911   -0.2937    2.1586 H   0  0  0  0  0  0  0  0  0  0  0  0
   -2.7898   -0.2936    2.1584 H   0  0  0  0  0  0  0  0  0  0  0  0
    2.7954   -0.2874   -2.1597 H   0  0  0  0  0  0  0  0  0  0  0  0
   -5.0096   -1.3712   -2.1481 H   0  0  0  0  0  0  0  0  0  0  0  0
    5.0059   -1.3769    2.1486 H   0  0  0  0  0  0  0  0  0  0  0  0
   -5.0044   -1.3784    2.1488 H   0  0  0  0  0  0  0  0  0  0  0  0
    5.0102   -1.3709   -2.1483 H   0  0  0  0  0  0  0  0  0  0  0  0
   -6.1208   -1.9202    0.0008 H   0  0  0  0  0  0  0  0  0  0  0  0
    6.1222   -1.9188    0.0005 H   0  0  0  0  0  0  0  0  0  0  0  0
  1  3  1  0  0  0  0
  1  4  1  0  0  0  0
  2  9  2  0  0  0  0
  3  5  1  0  0  0  0
  3  7  2  0  0  0  0
  4  6  1  0  0  0  0
  4  8  2  0  0  0  0
  5 10  2  0  0  0  0
  5 12  1  0  0  0  0
  6 11  2  0  0  0  0
  6 13  1  0  0  0  0
  7  9  1  0  0  0  0
  7 20  1  0  0  0  0
  8  9  1  0  0  0  0
  8 21  1  0  0  0  0
 10 14  1  0  0  0  0
 10 22  1  0  0  0  0
 11 15  1  0  0  0  0
 11 23  1  0  0  0  0
 12 16  2  0  0  0  0
 12 24  1  0  0  0  0
 13 17  2  0  0  0  0
 13 25  1  0  0  0  0
 14 18  2  0  0  0  0
 14 26  1  0  0  0  0
 15 19  2  0  0  0  0
 15 27  1  0  0  0  0
 16 18  1  0  0  0  0
 16 28  1  0  0  0  0
 17 19  1  0  0  0  0
 17 29  1  0  0  0  0
 18 30  1  0  0  0  0
 19 31  1  0  0  0  0
M  END
> <PUBCHEM_COMPOUND_CID>
136817

> <PUBCHEM_CONFORMER_RMSD>
0.6

> <PUBCHEM_CONFORMER_DIVERSEORDER>
1
2
3

> <PUBCHEM_MMFF94_PARTIAL_CHARGES>
31
1 -0.2
10 -0.15
11 -0.15
12 -0.15
13 -0.15
14 -0.15
15 -0.15
16 -0.15
17 -0.15
18 -0.15
19 -0.15
2 -0.57
20 0.15
21 0.15
22 0.15
23 0.15
24 0.15
25 0.15
26 0.15
27 0.15
28 0.15
29 0.15
3 0.07
30 0.15
31 0.15
4 0.07
5 0.03
6 0.03
7 -0.14
8 -0.14
9 0.54

> <PUBCHEM_EFFECTIVE_ROTOR_COUNT>
2

> <PUBCHEM_PHARMACOPHORE_FEATURES>
4
1 2 acceptor
6 1 3 4 7 8 9 rings
6 5 10 12 14 16 18 rings
6 6 11 13 15 17 19 rings

> <PUBCHEM_HEAVY_ATOM_COUNT>
19

> <PUBCHEM_ATOM_DEF_STEREO_COUNT>
0

> <PUBCHEM_ATOM_UDEF_STEREO_COUNT>
0

> <PUBCHEM_BOND_DEF_STEREO_COUNT>
0

> <PUBCHEM_BOND_UDEF_STEREO_COUNT>
0

> <PUBCHEM_ISOTOPIC_ATOM_COUNT>
0

> <PUBCHEM_COMPONENT_COUNT>
1

> <PUBCHEM_CACTVS_TAUTO_COUNT>
1

> <PUBCHEM_CONFORMER_ID>
0002167100000001

> <PUBCHEM_MMFF94_ENERGY>
62.2222

> <PUBCHEM_FEATURE_SELFOVERLAP>
20.297

> <PUBCHEM_SHAPE_FINGERPRINT>
11046707 91 18410293583927159489
11265709 11 18411139134149584337
11543360 7 15719397251875125378
11796584 16 17385718093327501299
12236239 1 17775288305102422739
12363563 72 18409733962562797582
12403259 118 12895064120104516539
12516196 113 18410572911478270506
12553582 1 18410577287981672046
12596602 18 15626222424635141058
12707595 3 18334294305286426147
12714826 92 18187642475229241509
12892183 10 15769780138824449654
13009979 54 17916883416458146633
13134695 92 18337951311226140709
13533116 47 18123756619872461027
13544653 18 18408884053012475036
13862211 1 18410852161593973542
1420 369 18342738515812084662
14252887 29 18272085024293109032
14341114 176 15626229021989400322
15188451 53 17203317958160450831
15848700 24 18413387648529247734
15885798 251 18412265029808692128
16752209 62 18114453466451419842
17539 30 18265326214437868317
1798214 55 9151175354659348162
1813 80 18271815626332093477
18222031 100 18342737437854167863
19141452 34 17847061077962058695
193927 3 18410864260521672907
200 152 18040714749146795162
20028762 73 18058730346438456991
20388580 30 18260553354736133460
20645477 56 9943516423626778634
20645477 70 18265046015334612229
20671657 53 18335700572274424665
20693207 138 17677612141413047595
20832881 197 18333168375847660201
22182313 1 18265310932770110140
22950370 63 18410865355732948199
23175994 123 18334858333666957405
23402539 116 18412824651130940415
23557571 272 18200599068663893068
23559900 14 17386282216049093453
25147074 1 18338817657300397793
3004659 81 17748825202999143538
312423 11 18335714823118409156
314173 85 18342739602406804729
314194 84 18411140280926970874
351380 3 18410576188470252134
38570 142 14259926507635888362
463206 1 18261106391863474427
465052 167 18338807809246109455
5104073 3 18413671309444190609
58779409 54 18264762160730482453
59682541 52 14129321975890753082
7970288 3 18410573985152535975
8863177 126 17825119344494230915
9841814 1 18262510498365956064
9971528 1 18272650190043641953

> <PUBCHEM_SHAPE_MULTIPOLES>
388.99
11.09
2.41
1.23
0.01
3
0
-9.27
-0.01
0
0
0
-0.49
0

> <PUBCHEM_SHAPE_SELFOVERLAP>
843.787

> <PUBCHEM_SHAPE_VOLUME>
212.3

> <PUBCHEM_COORDINATE_TYPE>
2
5
10

$$$$
