145175
  -OEChem-11012401213D

 31 32  0     0  0  0  0  0  0999 V2000
    6.3922    0.1749    0.3082 Cl  0  0  0  0  0  0  0  0  0  0  0  0
   -5.5398    0.2826   -0.2190 O   0  0  0  0  0  0  0  0  0  0  0  0
    0.5412    0.1555   -0.5293 N   0  0  0  0  0  0  0  0  0  0  0  0
   -0.0475    0.2395    0.5735 N   0  0  0  0  0  0  0  0  0  0  0  0
    2.6135   -1.0556   -0.1484 C   0  0  0  0  0  0  0  0  0  0  0  0
    1.9271    0.1452   -0.3303 C   0  0  0  0  0  0  0  0  0  0  0  0
    3.9943   -1.0467    0.0486 C   0  0  0  0  0  0  0  0  0  0  0  0
    2.6216    1.3547   -0.3151 C   0  0  0  0  0  0  0  0  0  0  0  0
    1.8912   -2.3630   -0.1594 C   0  0  0  0  0  0  0  0  0  0  0  0
   -1.4388    0.2501    0.3742 C   0  0  0  0  0  0  0  0  0  0  0  0
    4.6889    0.1629    0.0638 C   0  0  0  0  0  0  0  0  0  0  0  0
    4.0025    1.3636   -0.1181 C   0  0  0  0  0  0  0  0  0  0  0  0
   -4.1928    0.2719   -0.0243 C   0  0  0  0  0  0  0  0  0  0  0  0
   -2.1433   -0.9495    0.3570 C   0  0  0  0  0  0  0  0  0  0  0  0
   -2.1007    1.4606    0.1936 C   0  0  0  0  0  0  0  0  0  0  0  0
   -3.5237   -0.9386    0.1571 C   0  0  0  0  0  0  0  0  0  0  0  0
   -3.4812    1.4716   -0.0061 C   0  0  0  0  0  0  0  0  0  0  0  0
   -6.2049   -0.9797   -0.2260 C   0  0  0  0  0  0  0  0  0  0  0  0
    4.5315   -1.9815    0.1923 H   0  0  0  0  0  0  0  0  0  0  0  0
    2.0965    2.2959   -0.4566 H   0  0  0  0  0  0  0  0  0  0  0  0
    1.2608   -2.4568    0.7307 H   0  0  0  0  0  0  0  0  0  0  0  0
    1.2673   -2.4538   -1.0548 H   0  0  0  0  0  0  0  0  0  0  0  0
    2.5849   -3.2108   -0.1664 H   0  0  0  0  0  0  0  0  0  0  0  0
    4.5305    2.3136   -0.1087 H   0  0  0  0  0  0  0  0  0  0  0  0
   -1.6288   -1.8964    0.4979 H   0  0  0  0  0  0  0  0  0  0  0  0
   -1.5540    2.3997    0.2068 H   0  0  0  0  0  0  0  0  0  0  0  0
   -4.0140   -1.9061    0.1544 H   0  0  0  0  0  0  0  0  0  0  0  0
   -3.9968    2.4177   -0.1468 H   0  0  0  0  0  0  0  0  0  0  0  0
   -6.1211   -1.4841    0.7426 H   0  0  0  0  0  0  0  0  0  0  0  0
   -7.2691   -0.7835   -0.3930 H   0  0  0  0  0  0  0  0  0  0  0  0
   -5.8624   -1.6103   -1.0535 H   0  0  0  0  0  0  0  0  0  0  0  0
  1 11  1  0  0  0  0
  2 13  1  0  0  0  0
  2 18  1  0  0  0  0
  3  4  2  0  0  0  0
  3  6  1  0  0  0  0
  4 10  1  0  0  0  0
  5  6  2  0  0  0  0
  5  7  1  0  0  0  0
  5  9  1  0  0  0  0
  6  8  1  0  0  0  0
  7 11  2  0  0  0  0
  7 19  1  0  0  0  0
  8 12  2  0  0  0  0
  8 20  1  0  0  0  0
  9 21  1  0  0  0  0
  9 22  1  0  0  0  0
  9 23  1  0  0  0  0
 10 14  2  0  0  0  0
 10 15  1  0  0  0  0
 11 12  1  0  0  0  0
 12 24  1  0  0  0  0
 13 16  2  0  0  0  0
 13 17  1  0  0  0  0
 14 16  1  0  0  0  0
 14 25  1  0  0  0  0
 15 17  2  0  0  0  0
 15 26  1  0  0  0  0
 16 27  1  0  0  0  0
 17 28  1  0  0  0  0
 18 29  1  0  0  0  0
 18 30  1  0  0  0  0
 18 31  1  0  0  0  0
M  END
> <PUBCHEM_COMPOUND_CID>
145175

> <PUBCHEM_CONFORMER_RMSD>
0.6

> <PUBCHEM_CONFORMER_DIVERSEORDER>
2
5
3
4
1
6

> <PUBCHEM_MMFF94_PARTIAL_CHARGES>
25
1 -0.18
10 0.18
11 0.18
12 -0.15
13 0.08
14 -0.15
15 -0.15
16 -0.15
17 -0.15
18 0.28
19 0.15
2 -0.36
20 0.15
24 0.15
25 0.15
26 0.15
27 0.15
28 0.15
3 -0.18
4 -0.18
5 -0.14
6 0.18
7 -0.15
8 -0.15
9 0.14

> <PUBCHEM_EFFECTIVE_ROTOR_COUNT>
3

> <PUBCHEM_PHARMACOPHORE_FEATURES>
3
1 2 acceptor
6 10 13 14 15 16 17 rings
6 5 6 7 8 11 12 rings

> <PUBCHEM_HEAVY_ATOM_COUNT>
18

> <PUBCHEM_ATOM_DEF_STEREO_COUNT>
0

> <PUBCHEM_ATOM_UDEF_STEREO_COUNT>
0

> <PUBCHEM_BOND_DEF_STEREO_COUNT>
0

> <PUBCHEM_BOND_UDEF_STEREO_COUNT>
0

> <PUBCHEM_ISOTOPIC_ATOM_COUNT>
0

> <PUBCHEM_COMPONENT_COUNT>
1

> <PUBCHEM_CACTVS_TAUTO_COUNT>
1

> <PUBCHEM_CONFORMER_ID>
0002371700000002

> <PUBCHEM_MMFF94_ENERGY>
56.2908

> <PUBCHEM_FEATURE_SELFOVERLAP>
15.223

> <PUBCHEM_SHAPE_FINGERPRINT>
10 15 18340476872993576272
10968037 39 18411700997998168471
11370993 70 18408604759905725914
12107183 9 17618786855702387217
12236239 1 17917993858619356884
13073987 5 18339927009161576497
13167823 11 18341611490876803751
13533116 47 17168412784287868858
13836976 161 18409735079913846862
14251764 18 18113615695195814552
15196674 1 18339362959343313543
15375358 24 18260835894627317602
17492 89 18198063577839710031
17834072 33 18413106177895035655
17834076 25 18410573998041627782
18681886 176 18341610447721879952
19489759 90 16298383557319353733
200 152 18201999919608070529
20279233 1 18187938269405351306
20645477 70 18341052921642604262
21054139 6 18270672168641610726
21267235 1 18411427206195801814
21709351 56 18408036325658583916
22224240 67 18411693314681614170
23402539 116 18409725162818568517
23557571 272 18272938193376300405
23559900 14 18410007784018959585
239999 70 18201727232461748958
26918003 58 18260550043062815746
300161 21 18412260597734862417
33824 294 18408604730310446706
34797466 226 17632303406099978788
351380 180 18408885139612658208
3545911 37 18409450288626212852
4214541 1 18409730629990299533
42630746 31 18342177757061994286
4325135 7 18342454855118656447
474 4 17822299027990136884
5104073 3 18337958874409796307
5283173 99 18114733829506991429
542803 24 17385447621898344300
58051976 378 18341898480385800694
59755656 215 18410579466215887198
59755656 520 16805317829811900379
67856867 119 18263363745080000332
69090 78 18408604755832031811
7495541 125 17846494880796927881
77779 3 18410577266548786729
9709674 26 18338244781872480899

> <PUBCHEM_SHAPE_MULTIPOLES>
356.47
14.06
1.69
0.68
3.27
0.37
0.01
0.29
-0.05
-0.31
-0.07
-0.05
0
-0.06

> <PUBCHEM_SHAPE_SELFOVERLAP>
752.492

> <PUBCHEM_SHAPE_VOLUME>
201.9

> <PUBCHEM_COORDINATE_TYPE>
2
5
10

$$$$
