519652
  -OEChem-11012400573D

 22 22  0     0  0  0  0  0  0999 V2000
    3.2943   -1.0313   -1.0054 O   0  0  0  0  0  0  0  0  0  0  0  0
    3.5248    0.6868    0.6980 C   0  0  0  0  0  0  0  0  0  0  0  0
   -1.2918   -0.0255   -0.0276 C   0  0  0  0  0  0  0  0  0  0  0  0
    5.0297    0.5609    0.5416 C   0  0  0  0  0  0  0  0  0  0  0  0
   -2.0256   -1.1163    0.4366 C   0  0  0  0  0  0  0  0  0  0  0  0
   -1.9462    1.1403   -0.4229 C   0  0  0  0  0  0  0  0  0  0  0  0
    2.7739   -0.2439   -0.2271 C   0  0  0  0  0  0  0  0  0  0  0  0
   -3.4168   -1.0412    0.5054 C   0  0  0  0  0  0  0  0  0  0  0  0
   -3.3374    1.2154   -0.3540 C   0  0  0  0  0  0  0  0  0  0  0  0
   -4.0725    0.1246    0.1102 C   0  0  0  0  0  0  0  0  0  0  0  0
    0.1349   -0.1026   -0.0982 C   0  0  0  0  0  0  0  0  0  0  0  0
    1.3327   -0.1670   -0.1566 C   0  0  0  0  0  0  0  0  0  0  0  0
    3.2439    0.4526    1.7307 H   0  0  0  0  0  0  0  0  0  0  0  0
    3.2208    1.7163    0.4791 H   0  0  0  0  0  0  0  0  0  0  0  0
    5.5426    1.2474    1.2222 H   0  0  0  0  0  0  0  0  0  0  0  0
    5.3646   -0.4573    0.7658 H   0  0  0  0  0  0  0  0  0  0  0  0
    5.3398    0.7977   -0.4817 H   0  0  0  0  0  0  0  0  0  0  0  0
   -1.5287   -2.0319    0.7483 H   0  0  0  0  0  0  0  0  0  0  0  0
   -1.3869    1.9989   -0.7869 H   0  0  0  0  0  0  0  0  0  0  0  0
   -3.9894   -1.8904    0.8667 H   0  0  0  0  0  0  0  0  0  0  0  0
   -3.8483    2.1230   -0.6616 H   0  0  0  0  0  0  0  0  0  0  0  0
   -5.1557    0.1832    0.1639 H   0  0  0  0  0  0  0  0  0  0  0  0
  1  7  2  0  0  0  0
  2  4  1  0  0  0  0
  2  7  1  0  0  0  0
  2 13  1  0  0  0  0
  2 14  1  0  0  0  0
  3  5  2  0  0  0  0
  3  6  1  0  0  0  0
  3 11  1  0  0  0  0
  4 15  1  0  0  0  0
  4 16  1  0  0  0  0
  4 17  1  0  0  0  0
  5  8  1  0  0  0  0
  5 18  1  0  0  0  0
  6  9  2  0  0  0  0
  6 19  1  0  0  0  0
  7 12  1  0  0  0  0
  8 10  2  0  0  0  0
  8 20  1  0  0  0  0
  9 10  1  0  0  0  0
  9 21  1  0  0  0  0
 10 22  1  0  0  0  0
 11 12  3  0  0  0  0
M  END
> <PUBCHEM_COMPOUND_CID>
519652

> <PUBCHEM_CONFORMER_RMSD>
0.4

> <PUBCHEM_CONFORMER_DIVERSEORDER>
1
4
2
3

> <PUBCHEM_MMFF94_PARTIAL_CHARGES>
16
1 -0.57
10 -0.15
11 -0.07
12 -0.1
18 0.15
19 0.15
2 0.06
20 0.15
21 0.15
22 0.15
3 0.07
5 -0.15
6 -0.15
7 0.61
8 -0.15
9 -0.15

> <PUBCHEM_EFFECTIVE_ROTOR_COUNT>
1

> <PUBCHEM_PHARMACOPHORE_FEATURES>
3
1 1 acceptor
1 4 hydrophobe
6 3 5 6 8 9 10 rings

> <PUBCHEM_HEAVY_ATOM_COUNT>
12

> <PUBCHEM_ATOM_DEF_STEREO_COUNT>
0

> <PUBCHEM_ATOM_UDEF_STEREO_COUNT>
0

> <PUBCHEM_BOND_DEF_STEREO_COUNT>
0

> <PUBCHEM_BOND_UDEF_STEREO_COUNT>
0

> <PUBCHEM_ISOTOPIC_ATOM_COUNT>
0

> <PUBCHEM_COMPONENT_COUNT>
1

> <PUBCHEM_CACTVS_TAUTO_COUNT>
2

> <PUBCHEM_CONFORMER_ID>
0007EDE400000001

> <PUBCHEM_MMFF94_ENERGY>
14.79

> <PUBCHEM_FEATURE_SELFOVERLAP>
15.223

> <PUBCHEM_SHAPE_FINGERPRINT>
10014705 185 18333445435397770701
10608611 8 18412543176122652700
11132069 177 18259987059024040573
13214271 11 18412541029008016717
13296908 3 18342461421849410182
14123238 8 18411698807264225528
14144814 61 17968094196607495035
14325111 11 18409168787837526447
15219456 202 18272091569459453062
15375358 24 18413670210053699382
18186145 218 18272380732591101754
190213 19 17240483597950348347
19026448 4 18343024367391800198
200 152 17418087724628933917
20279233 1 18342178868872935374
20645477 56 18408323263781031453
20645477 70 17632017438434398766
22485316 2 18272369771602674686
23402539 116 18261102007043918311
23557571 272 18338245881468264916
23559900 14 18338235964705113742
23590187 198 16733255786203125706
42 15 17748819692661273234
449060 50 18130787893104032524
573450 72 17676194767275832920

> <PUBCHEM_SHAPE_MULTIPOLES>
241.09
9.48
1.19
0.81
7.06
0.05
-0.02
0.99
1.24
-0.79
-0.03
0.4
-0.05
0.83

> <PUBCHEM_SHAPE_SELFOVERLAP>
493.3

> <PUBCHEM_SHAPE_VOLUME>
138.6

> <PUBCHEM_COORDINATE_TYPE>
2
5
10

$$$$
