255663
  -OEChem-11012400433D

 20 21  0     0  0  0  0  0  0999 V2000
    0.0168    2.2424    0.0071 O   0  0  0  0  0  0  0  0  0  0  0  0
    1.4323   -0.9370    0.5906 N   0  0  0  0  0  0  0  0  0  0  0  0
   -1.4269   -0.9378   -0.5870 N   0  0  0  0  0  0  0  0  0  0  0  0
    1.2534    0.2937    0.0146 C   0  0  0  0  0  0  0  0  0  0  0  0
   -1.3005    0.2657   -0.0197 C   0  0  0  0  0  0  0  0  0  0  0  0
    0.0047    0.9882   -0.0044 C   0  0  0  0  0  0  0  0  0  0  0  0
    2.4624    0.6936   -0.5104 C   0  0  0  0  0  0  0  0  0  0  0  0
   -2.4536    0.7021    0.5034 C   0  0  0  0  0  0  0  0  0  0  0  0
    2.7371   -1.3286    0.4413 C   0  0  0  0  0  0  0  0  0  0  0  0
   -2.7325   -1.3256   -0.4352 C   0  0  0  0  0  0  0  0  0  0  0  0
    3.4011   -0.3327   -0.2404 C   0  0  0  0  0  0  0  0  0  0  0  0
   -3.3943   -0.3239    0.2401 C   0  0  0  0  0  0  0  0  0  0  0  0
    0.7210   -1.4742    1.0672 H   0  0  0  0  0  0  0  0  0  0  0  0
   -0.7122   -1.4755   -1.0597 H   0  0  0  0  0  0  0  0  0  0  0  0
    2.6539    1.6211   -1.0326 H   0  0  0  0  0  0  0  0  0  0  0  0
   -2.6382    1.6343    1.0185 H   0  0  0  0  0  0  0  0  0  0  0  0
    3.0760   -2.2769    0.8338 H   0  0  0  0  0  0  0  0  0  0  0  0
   -3.0737   -2.2758   -0.8216 H   0  0  0  0  0  0  0  0  0  0  0  0
    4.4471   -0.3454   -0.5126 H   0  0  0  0  0  0  0  0  0  0  0  0
   -4.4405   -0.3327    0.5122 H   0  0  0  0  0  0  0  0  0  0  0  0
  1  6  2  0  0  0  0
  2  4  1  0  0  0  0
  2  9  1  0  0  0  0
  2 13  1  0  0  0  0
  3  5  1  0  0  0  0
  3 10  1  0  0  0  0
  3 14  1  0  0  0  0
  4  6  1  0  0  0  0
  4  7  2  0  0  0  0
  5  6  1  0  0  0  0
  5  8  2  0  0  0  0
  7 11  1  0  0  0  0
  7 15  1  0  0  0  0
  8 12  1  0  0  0  0
  8 16  1  0  0  0  0
  9 11  2  0  0  0  0
  9 17  1  0  0  0  0
 10 12  2  0  0  0  0
 10 18  1  0  0  0  0
 11 19  1  0  0  0  0
 12 20  1  0  0  0  0
M  END
> <PUBCHEM_COMPOUND_CID>
255663

> <PUBCHEM_CONFORMER_RMSD>
0.6

> <PUBCHEM_CONFORMER_DIVERSEORDER>
1
6
9
2
5
8
7
3
4

> <PUBCHEM_MMFF94_PARTIAL_CHARGES>
20
1 -0.57
10 -0.3
11 -0.15
12 -0.15
13 0.27
14 0.27
15 0.15
16 0.15
17 0.15
18 0.15
19 0.15
2 0.03
20 0.15
3 0.03
4 -0.24
5 -0.24
6 0.74
7 -0.15
8 -0.15
9 -0.3

> <PUBCHEM_EFFECTIVE_ROTOR_COUNT>
2

> <PUBCHEM_PHARMACOPHORE_FEATURES>
7
1 1 acceptor
1 2 cation
1 2 donor
1 3 cation
1 3 donor
5 2 4 7 9 11 rings
5 3 5 8 10 12 rings

> <PUBCHEM_HEAVY_ATOM_COUNT>
12

> <PUBCHEM_ATOM_DEF_STEREO_COUNT>
0

> <PUBCHEM_ATOM_UDEF_STEREO_COUNT>
0

> <PUBCHEM_BOND_DEF_STEREO_COUNT>
0

> <PUBCHEM_BOND_UDEF_STEREO_COUNT>
0

> <PUBCHEM_ISOTOPIC_ATOM_COUNT>
0

> <PUBCHEM_COMPONENT_COUNT>
1

> <PUBCHEM_CACTVS_TAUTO_COUNT>
9

> <PUBCHEM_CONFORMER_ID>
0003E6AF00000001

> <PUBCHEM_MMFF94_ENERGY>
18.6587

> <PUBCHEM_FEATURE_SELFOVERLAP>
35.521

> <PUBCHEM_SHAPE_FINGERPRINT>
12932764 1 18410856563934984229
14128692 85 18340207487247139645
14144814 61 18341896294373904547
14993402 34 18342457049725592871
15375462 189 18408327691501715995
16945 1 18410568491888344517
18186145 218 16732984210677651832
18619055 16 18334568023446659829
19422 9 18410582785539570566
20201158 50 18040155119229539138
20281407 28 18341612594561858650
20361792 2 18410846681341661589
20645477 70 18335415764382129919
20871998 184 18130504128550985861
22445834 79 18410013191356262051
23463225 33 18411702049743189415
23552423 10 18122624126668365029
305870 269 9727370025085695744
7364860 26 17985827270396056713

> <PUBCHEM_SHAPE_MULTIPOLES>
231.12
5.62
1.55
0.73
0.03
0.37
0
-1.78
0
0.01
0
0
-0.07
-0.51

> <PUBCHEM_SHAPE_SELFOVERLAP>
507.684

> <PUBCHEM_SHAPE_VOLUME>
126.9

> <PUBCHEM_COORDINATE_TYPE>
2
5
10

$$$$
