4757
  -OEChem-11012401013D

 22 24  0     0  0  0  0  0  0999 V2000
    0.0000    1.3770    0.0000 N   0  0  0  0  0  0  0  0  0  0  0  0
    0.0000   -1.3770    0.0002 N   0  0  0  0  0  0  0  0  0  0  0  0
    1.1587    0.6993   -0.0001 C   0  0  0  0  0  0  0  0  0  0  0  0
    1.1588   -0.6993    0.0003 C   0  0  0  0  0  0  0  0  0  0  0  0
   -1.1588    0.6993    0.0003 C   0  0  0  0  0  0  0  0  0  0  0  0
   -1.1588   -0.6993    0.0000 C   0  0  0  0  0  0  0  0  0  0  0  0
    2.3750    1.3792   -0.0004 C   0  0  0  0  0  0  0  0  0  0  0  0
    2.3751   -1.3792    0.0005 C   0  0  0  0  0  0  0  0  0  0  0  0
   -2.3750    1.3793    0.0005 C   0  0  0  0  0  0  0  0  0  0  0  0
   -2.3750   -1.3792   -0.0006 C   0  0  0  0  0  0  0  0  0  0  0  0
    3.5882    0.6934   -0.0005 C   0  0  0  0  0  0  0  0  0  0  0  0
    3.5882   -0.6934    0.0001 C   0  0  0  0  0  0  0  0  0  0  0  0
   -3.5882    0.6934    0.0003 C   0  0  0  0  0  0  0  0  0  0  0  0
   -3.5882   -0.6935   -0.0006 C   0  0  0  0  0  0  0  0  0  0  0  0
    2.3876    2.4673   -0.0008 H   0  0  0  0  0  0  0  0  0  0  0  0
    2.3877   -2.4674    0.0008 H   0  0  0  0  0  0  0  0  0  0  0  0
   -2.3877    2.4674    0.0008 H   0  0  0  0  0  0  0  0  0  0  0  0
   -2.3876   -2.4674   -0.0010 H   0  0  0  0  0  0  0  0  0  0  0  0
    4.5252    1.2417   -0.0008 H   0  0  0  0  0  0  0  0  0  0  0  0
    4.5252   -1.2415    0.0002 H   0  0  0  0  0  0  0  0  0  0  0  0
   -4.5253    1.2416    0.0004 H   0  0  0  0  0  0  0  0  0  0  0  0
   -4.5251   -1.2417   -0.0009 H   0  0  0  0  0  0  0  0  0  0  0  0
  1  3  2  0  0  0  0
  1  5  1  0  0  0  0
  2  4  2  0  0  0  0
  2  6  1  0  0  0  0
  3  4  1  0  0  0  0
  3  7  1  0  0  0  0
  4  8  1  0  0  0  0
  5  6  1  0  0  0  0
  5  9  2  0  0  0  0
  6 10  2  0  0  0  0
  7 11  2  0  0  0  0
  7 15  1  0  0  0  0
  8 12  2  0  0  0  0
  8 16  1  0  0  0  0
  9 13  1  0  0  0  0
  9 17  1  0  0  0  0
 10 14  1  0  0  0  0
 10 18  1  0  0  0  0
 11 12  1  0  0  0  0
 11 19  1  0  0  0  0
 12 20  1  0  0  0  0
 13 14  2  0  0  0  0
 13 21  1  0  0  0  0
 14 22  1  0  0  0  0
M  END
> <PUBCHEM_COMPOUND_CID>
4757

> <PUBCHEM_CONFORMER_RMSD>
0.4

> <PUBCHEM_CONFORMER_DIVERSEORDER>
1

> <PUBCHEM_MMFF94_PARTIAL_CHARGES>
22
1 -0.62
10 -0.15
11 -0.15
12 -0.15
13 -0.15
14 -0.15
15 0.15
16 0.15
17 0.15
18 0.15
19 0.15
2 -0.62
20 0.15
21 0.15
22 0.15
3 0.31
4 0.31
5 0.31
6 0.31
7 -0.15
8 -0.15
9 -0.15

> <PUBCHEM_EFFECTIVE_ROTOR_COUNT>
0

> <PUBCHEM_PHARMACOPHORE_FEATURES>
5
1 1 acceptor
1 2 acceptor
6 1 2 3 4 5 6 rings
6 3 4 7 8 11 12 rings
6 5 6 9 10 13 14 rings

> <PUBCHEM_HEAVY_ATOM_COUNT>
14

> <PUBCHEM_ATOM_DEF_STEREO_COUNT>
0

> <PUBCHEM_ATOM_UDEF_STEREO_COUNT>
0

> <PUBCHEM_BOND_DEF_STEREO_COUNT>
0

> <PUBCHEM_BOND_UDEF_STEREO_COUNT>
0

> <PUBCHEM_ISOTOPIC_ATOM_COUNT>
0

> <PUBCHEM_COMPONENT_COUNT>
1

> <PUBCHEM_CACTVS_TAUTO_COUNT>
1

> <PUBCHEM_CONFORMER_ID>
0000129500000001

> <PUBCHEM_MMFF94_ENERGY>
44.8491

> <PUBCHEM_FEATURE_SELFOVERLAP>
25.449

> <PUBCHEM_SHAPE_FINGERPRINT>
10608611 8 18410852161593707204
10967382 1 18410575063230550886
11132069 177 18411694391837378808
11471102 20 18410569582878564180
12032990 46 18410580582221380195
13221675 6 18410573985156862306
13296908 3 18410576184174901571
13380535 76 18410855464423531847
14144814 61 18410856551049855130
14325111 11 18410573989451888064
15196674 1 18410856559639789573
15219456 202 18411699885058293772
15309172 13 18271815622332661491
15442244 35 18194964037301434322
15536298 74 18343021090737798658
15775835 57 18410860957686391620
16945 1 18410575084663078918
17844478 74 18040440979605112149
18186145 218 18113616763856759118
18522853 276 18413668015214615480
193761 8 17545883728574677006
200 152 18059846286430917557
20201158 50 18411700967395560962
20510252 161 18272934895036388505
20645477 70 18340483378993511455
21267235 1 18410583880756516871
21501502 16 18410856563934756868
21501925 9 18409719664991293738
2334 1 18410575119022817287
23402539 116 18271796921733480791
23402655 69 18341325613653638397
23463225 33 18408603647635329012
23559900 14 18341609270864001786
2748010 2 18410856563934757029
3312278 4 18411985775345800433
335352 9 18122344571072414111
474 4 16951699193104641708
5104073 3 18410573989446419424
528886 8 18411132537095336762
53812653 166 18343297102326497384
57096353 35 18338797939104678510
69090 78 18343015597416825879
7364860 26 18343864416319833158
8809292 202 18260834825259686203
9709674 26 18411705399891871110

> <PUBCHEM_SHAPE_MULTIPOLES>
278.15
6.48
1.67
0.6
0
0
0
0
0
0
0
0
0
0

> <PUBCHEM_SHAPE_SELFOVERLAP>
633.555

> <PUBCHEM_SHAPE_VOLUME>
143.6

> <PUBCHEM_COORDINATE_TYPE>
2
5
10

$$$$
