70276
  -OEChem-11012401093D

 17 17  0     0  0  0  0  0  0999 V2000
    2.6994   -1.4753   -0.5010 Cl  0  0  0  0  0  0  0  0  0  0  0  0
    2.2640    0.8985    0.5343 O   0  0  0  0  0  0  0  0  0  0  0  0
   -0.5088    0.9719   -0.1010 C   0  0  0  0  0  0  0  0  0  0  0  0
    0.2567   -0.1842    0.0494 C   0  0  0  0  0  0  0  0  0  0  0  0
   -1.9008    0.8877   -0.1312 C   0  0  0  0  0  0  0  0  0  0  0  0
   -0.3697   -1.4248    0.1697 C   0  0  0  0  0  0  0  0  0  0  0  0
    0.1364    2.3133   -0.2319 C   0  0  0  0  0  0  0  0  0  0  0  0
   -2.5273   -0.3528   -0.0108 C   0  0  0  0  0  0  0  0  0  0  0  0
   -1.7617   -1.5090    0.1395 C   0  0  0  0  0  0  0  0  0  0  0  0
    1.7118   -0.1254    0.0830 C   0  0  0  0  0  0  0  0  0  0  0  0
   -2.5126    1.7786   -0.2459 H   0  0  0  0  0  0  0  0  0  0  0  0
    0.1935   -2.3435    0.3054 H   0  0  0  0  0  0  0  0  0  0  0  0
    0.9095    2.3141   -1.0075 H   0  0  0  0  0  0  0  0  0  0  0  0
   -0.5943    3.0713   -0.5390 H   0  0  0  0  0  0  0  0  0  0  0  0
    0.5494    2.6453    0.7258 H   0  0  0  0  0  0  0  0  0  0  0  0
   -3.6111   -0.4184   -0.0328 H   0  0  0  0  0  0  0  0  0  0  0  0
   -2.2501   -2.4742    0.2373 H   0  0  0  0  0  0  0  0  0  0  0  0
  1 10  1  0  0  0  0
  2 10  2  0  0  0  0
  3  4  1  0  0  0  0
  3  5  2  0  0  0  0
  3  7  1  0  0  0  0
  4  6  2  0  0  0  0
  4 10  1  0  0  0  0
  5  8  1  0  0  0  0
  5 11  1  0  0  0  0
  6  9  1  0  0  0  0
  6 12  1  0  0  0  0
  7 13  1  0  0  0  0
  7 14  1  0  0  0  0
  7 15  1  0  0  0  0
  8  9  2  0  0  0  0
  8 16  1  0  0  0  0
  9 17  1  0  0  0  0
M  END
> <PUBCHEM_COMPOUND_CID>
70276

> <PUBCHEM_CONFORMER_RMSD>
0.4

> <PUBCHEM_CONFORMER_DIVERSEORDER>
1
2
6
4
5
3

> <PUBCHEM_MMFF94_PARTIAL_CHARGES>
14
1 -0.21
10 0.69
11 0.15
12 0.15
16 0.15
17 0.15
2 -0.57
3 -0.14
4 0.09
5 -0.15
6 -0.15
7 0.14
8 -0.15
9 -0.15

> <PUBCHEM_EFFECTIVE_ROTOR_COUNT>
1

> <PUBCHEM_PHARMACOPHORE_FEATURES>
1
6 3 4 5 6 8 9 rings

> <PUBCHEM_HEAVY_ATOM_COUNT>
10

> <PUBCHEM_ATOM_DEF_STEREO_COUNT>
0

> <PUBCHEM_ATOM_UDEF_STEREO_COUNT>
0

> <PUBCHEM_BOND_DEF_STEREO_COUNT>
0

> <PUBCHEM_BOND_UDEF_STEREO_COUNT>
0

> <PUBCHEM_ISOTOPIC_ATOM_COUNT>
0

> <PUBCHEM_COMPONENT_COUNT>
1

> <PUBCHEM_CACTVS_TAUTO_COUNT>
1

> <PUBCHEM_CONFORMER_ID>
0001128400000001

> <PUBCHEM_MMFF94_ENERGY>
30.5603

> <PUBCHEM_FEATURE_SELFOVERLAP>
5.074

> <PUBCHEM_SHAPE_FINGERPRINT>
10857977 72 18265602346252943553
12032990 46 18409175393893152395
12524768 44 18412258458540390674
16945 1 18194966468126173749
21040471 1 18191864518148856877
23552423 10 18260270758741199294
23559900 14 17694217765355210190
241688 4 18337675217473745057
2748010 2 18410289203102709175
29004967 10 18339643459267327258
369184 2 15051439467014213734
5084963 1 18129094528895420098
66348 1 18193554467430999859

> <PUBCHEM_SHAPE_MULTIPOLES>
201.8
3.49
2.08
0.67
1.2
0.63
-0.02
-1.13
-0.19
-0.02
-0.09
0.11
-0.01
0.34

> <PUBCHEM_SHAPE_SELFOVERLAP>
411.646

> <PUBCHEM_SHAPE_VOLUME>
116.3

> <PUBCHEM_COORDINATE_TYPE>
2
5
10

$$$$
