131019680
  -OEChem-11012401213D

 20 20  0     0  0  0  0  0  0999 V2000
   -3.0527    1.3284    0.9119 O   0  0  0  0  0  0  0  0  0  0  0  0
    0.4587   -0.6785    0.0648 N   0  0  0  0  0  0  0  0  0  0  0  0
   -0.6191    0.1247    0.0028 N   0  0  0  0  0  0  0  0  0  0  0  0
    2.0763    1.1437   -0.1732 N   0  0  0  0  0  0  0  0  0  0  0  0
    2.8280   -0.9756    0.0934 N   0  0  0  0  0  0  0  0  0  0  0  0
    3.4123    1.0351   -0.1649 N   0  0  0  0  0  0  0  0  0  0  0  0
    3.9023   -0.2026   -0.0090 N   0  0  0  0  0  0  0  0  0  0  0  0
   -1.7775   -0.4492    0.0776 C   0  0  0  0  0  0  0  0  0  0  0  0
   -2.9636    0.4735    0.0442 C   0  0  0  0  0  0  0  0  0  0  0  0
   -2.0668   -1.9155    0.2211 C   0  0  0  0  0  0  0  0  0  0  0  0
    1.7544   -0.1419   -0.0086 C   0  0  0  0  0  0  0  0  0  0  0  0
   -3.9523    0.2578   -1.0601 C   0  0  0  0  0  0  0  0  0  0  0  0
   -1.7313   -2.4434   -0.6756 H   0  0  0  0  0  0  0  0  0  0  0  0
   -1.5470   -2.3124    1.0976 H   0  0  0  0  0  0  0  0  0  0  0  0
   -3.1362   -2.0952    0.3561 H   0  0  0  0  0  0  0  0  0  0  0  0
    0.3414   -1.6810    0.1740 H   0  0  0  0  0  0  0  0  0  0  0  0
   -4.5841   -0.6042   -0.8360 H   0  0  0  0  0  0  0  0  0  0  0  0
   -4.5820    1.1467   -1.1584 H   0  0  0  0  0  0  0  0  0  0  0  0
   -3.4267    0.1058   -2.0064 H   0  0  0  0  0  0  0  0  0  0  0  0
    4.0174    1.8424   -0.2701 H   0  0  0  0  0  0  0  0  0  0  0  0
  1  9  2  0  0  0  0
  2  3  1  0  0  0  0
  2 11  1  0  0  0  0
  2 16  1  0  0  0  0
  3  8  2  3  0  0  0
  4  6  1  0  0  0  0
  4 11  2  0  0  0  0
  5  7  2  0  0  0  0
  5 11  1  0  0  0  0
  6  7  1  0  0  0  0
  6 20  1  0  0  0  0
  8  9  1  0  0  0  0
  8 10  1  0  0  0  0
  9 12  1  0  0  0  0
 10 13  1  0  0  0  0
 10 14  1  0  0  0  0
 10 15  1  0  0  0  0
 12 17  1  0  0  0  0
 12 18  1  0  0  0  0
 12 19  1  0  0  0  0
M  END
> <PUBCHEM_COMPOUND_CID>
131019680

> <PUBCHEM_CONFORMER_RMSD>
0.6

> <PUBCHEM_CONFORMER_DIVERSEORDER>
1
14
15
20
2
19
18
3
8
17
7
13
5
12
6
11
10
4
16
9

> <PUBCHEM_MMFF94_PARTIAL_CHARGES>
14
1 -0.57
10 0.06
11 0.6
12 0.06
16 0.4
2 -0.44
20 0.27
3 -0.49
4 -0.71
5 -0.23
6 0.57
7 -0.42
8 0.39
9 0.51

> <PUBCHEM_EFFECTIVE_ROTOR_COUNT>
3

> <PUBCHEM_PHARMACOPHORE_FEATURES>
5
1 1 acceptor
1 2 donor
1 3 acceptor
4 2 4 5 11 cation
5 4 5 6 7 11 rings

> <PUBCHEM_HEAVY_ATOM_COUNT>
12

> <PUBCHEM_ATOM_DEF_STEREO_COUNT>
0

> <PUBCHEM_ATOM_UDEF_STEREO_COUNT>
0

> <PUBCHEM_BOND_DEF_STEREO_COUNT>
0

> <PUBCHEM_BOND_UDEF_STEREO_COUNT>
1

> <PUBCHEM_ISOTOPIC_ATOM_COUNT>
0

> <PUBCHEM_COMPONENT_COUNT>
1

> <PUBCHEM_CACTVS_TAUTO_COUNT>
31

> <PUBCHEM_CONFORMER_ID>
07CF33A000000001

> <PUBCHEM_MMFF94_ENERGY>
17.6754

> <PUBCHEM_FEATURE_SELFOVERLAP>
25.374

> <PUBCHEM_SHAPE_FINGERPRINT>
10014705 185 18041273357035934557
12162725 195 18272089391963794325
12932764 1 17385434427859037618
13380535 76 18412544293046498671
14144814 61 18409731737801393433
14325111 11 18409450323165364258
14897335 6 18408598158619944227
15775835 57 17967530168527774011
18186145 218 18335144167571360194
190213 19 18410291419258328560
20279233 1 16917349246950547398
20645477 70 18410854318057901022
23402539 116 18201430377338701661
23402655 69 18343013355417647197
3248919 1 18201722846672255334
6333449 129 18409730694546586851
93112 12 18410575110543769518

> <PUBCHEM_SHAPE_MULTIPOLES>
211.2
7.51
1.37
0.74
2.17
0.36
0.04
-1.46
0.84
-0.46
-0.16
-0.63
-0.11
-0.16

> <PUBCHEM_SHAPE_SELFOVERLAP>
423.136

> <PUBCHEM_SHAPE_VOLUME>
125.2

> <PUBCHEM_COORDINATE_TYPE>
2
5
10

$$$$
