69127
  -OEChem-11012401103D

 15 15  0     0  0  0  0  0  0999 V2000
    1.7216   -2.1887    0.0006 Cl  0  0  0  0  0  0  0  0  0  0  0  0
   -3.0770    1.2076    0.0002 O   0  0  0  0  0  0  0  0  0  0  0  0
    1.7621    2.1256   -0.0011 O   0  5  0  0  0  0  0  0  0  0  0  0
    2.7538    0.1672    0.0000 O   0  0  0  0  0  0  0  0  0  0  0  0
    1.7187    0.8733   -0.0002 N   0  3  0  0  0  0  0  0  0  0  0  0
    0.4486    0.2303    0.0008 C   0  0  0  0  0  0  0  0  0  0  0  0
   -0.6971    1.0259    0.0010 C   0  0  0  0  0  0  0  0  0  0  0  0
    0.3326   -1.1597    0.0000 C   0  0  0  0  0  0  0  0  0  0  0  0
   -1.9590    0.4313    0.0002 C   0  0  0  0  0  0  0  0  0  0  0  0
   -0.9293   -1.7541   -0.0008 C   0  0  0  0  0  0  0  0  0  0  0  0
   -2.0751   -0.9586   -0.0008 C   0  0  0  0  0  0  0  0  0  0  0  0
   -0.6377    2.1119    0.0015 H   0  0  0  0  0  0  0  0  0  0  0  0
   -1.0375   -2.8359   -0.0013 H   0  0  0  0  0  0  0  0  0  0  0  0
   -3.0554   -1.4275   -0.0015 H   0  0  0  0  0  0  0  0  0  0  0  0
   -2.8132    2.1437    0.0009 H   0  0  0  0  0  0  0  0  0  0  0  0
  1  8  1  0  0  0  0
  2  9  1  0  0  0  0
  2 15  1  0  0  0  0
  3  5  1  0  0  0  0
  4  5  2  0  0  0  0
  5  6  1  0  0  0  0
  6  7  1  0  0  0  0
  6  8  2  0  0  0  0
  7  9  2  0  0  0  0
  7 12  1  0  0  0  0
  8 10  1  0  0  0  0
  9 11  1  0  0  0  0
 10 11  2  0  0  0  0
 10 13  1  0  0  0  0
 11 14  1  0  0  0  0
M  CHG  2   3  -1   5   1
M  END
> <PUBCHEM_COMPOUND_CID>
69127

> <PUBCHEM_CONFORMER_RMSD>
0.4

> <PUBCHEM_CONFORMER_DIVERSEORDER>
1

> <PUBCHEM_MMFF94_PARTIAL_CHARGES>
15
1 -0.18
10 -0.15
11 -0.15
12 0.15
13 0.15
14 0.15
15 0.45
2 -0.53
3 -0.52
4 -0.52
5 0.91
6 0.13
7 -0.15
8 0.18
9 0.08

> <PUBCHEM_EFFECTIVE_ROTOR_COUNT>
1

> <PUBCHEM_PHARMACOPHORE_FEATURES>
5
1 2 donor
1 3 acceptor
1 3 anion
1 4 acceptor
6 6 7 8 9 10 11 rings

> <PUBCHEM_HEAVY_ATOM_COUNT>
11

> <PUBCHEM_ATOM_DEF_STEREO_COUNT>
0

> <PUBCHEM_ATOM_UDEF_STEREO_COUNT>
0

> <PUBCHEM_BOND_DEF_STEREO_COUNT>
0

> <PUBCHEM_BOND_UDEF_STEREO_COUNT>
0

> <PUBCHEM_ISOTOPIC_ATOM_COUNT>
0

> <PUBCHEM_COMPONENT_COUNT>
1

> <PUBCHEM_CACTVS_TAUTO_COUNT>
3

> <PUBCHEM_CONFORMER_ID>
00010E0700000001

> <PUBCHEM_MMFF94_ENERGY>
37.3157

> <PUBCHEM_FEATURE_SELFOVERLAP>
25.453

> <PUBCHEM_SHAPE_FINGERPRINT>
12423570 1 12389864984023806979
13380535 21 18337125500536225443
13380535 76 18410005542109269371
14325111 11 18338799017178665280
16945 1 18410856585473046279
193761 8 18410574011132725703
21040471 1 18410855494593421185
21501502 16 18410290307078453511
23552423 10 18408324418789604534
23559900 14 18343033199015790076
241688 4 17475517179172975770
2748010 2 18194120947916149340
5084963 1 18058455485251308842

> <PUBCHEM_SHAPE_MULTIPOLES>
205.66
3.56
2.23
0.59
0.64
0.22
0
-0.71
0
-0.91
0
0.02
0.05
0

> <PUBCHEM_SHAPE_SELFOVERLAP>
426.186

> <PUBCHEM_SHAPE_VOLUME>
118.7

> <PUBCHEM_COORDINATE_TYPE>
2
5
10

$$$$
