110931
  -OEChem-11012400333D

 23 23  0     1  0  0  0  0  0999 V2000
   -2.4482   -1.1074   -0.1341 N   0  0  0  0  0  0  0  0  0  0  0  0
    1.2699   -0.3307    0.3249 C   0  0  2  0  0  0  0  0  0  0  0  0
    0.0150   -1.1109   -0.0952 C   0  0  0  0  0  0  0  0  0  0  0  0
   -1.2662   -0.3774    0.3230 C   0  0  1  0  0  0  0  0  0  0  0  0
    1.2335    1.1010   -0.2261 C   0  0  0  0  0  0  0  0  0  0  0  0
   -1.2925    1.0496   -0.2341 C   0  0  0  0  0  0  0  0  0  0  0  0
   -0.0459    1.8292    0.1781 C   0  0  0  0  0  0  0  0  0  0  0  0
    2.5343   -1.0535   -0.1366 C   0  0  0  0  0  0  0  0  0  0  0  0
    1.2933   -0.2787    1.4218 H   0  0  0  0  0  0  0  0  0  0  0  0
    0.0215   -1.2592   -1.1838 H   0  0  0  0  0  0  0  0  0  0  0  0
    0.0358   -2.1097    0.3594 H   0  0  0  0  0  0  0  0  0  0  0  0
   -1.3005   -0.3287    1.4189 H   0  0  0  0  0  0  0  0  0  0  0  0
    1.3063    1.0815   -1.3210 H   0  0  0  0  0  0  0  0  0  0  0  0
    2.1004    1.6644    0.1394 H   0  0  0  0  0  0  0  0  0  0  0  0
   -2.1831    1.5806    0.1241 H   0  0  0  0  0  0  0  0  0  0  0  0
   -1.3552    1.0269   -1.3302 H   0  0  0  0  0  0  0  0  0  0  0  0
   -0.0523    1.9810    1.2645 H   0  0  0  0  0  0  0  0  0  0  0  0
   -0.0646    2.8232   -0.2829 H   0  0  0  0  0  0  0  0  0  0  0  0
    2.5786   -2.0640    0.2828 H   0  0  0  0  0  0  0  0  0  0  0  0
    2.5695   -1.1378   -1.2281 H   0  0  0  0  0  0  0  0  0  0  0  0
    3.4301   -0.5155    0.1907 H   0  0  0  0  0  0  0  0  0  0  0  0
   -3.2905   -0.6396    0.1981 H   0  0  0  0  0  0  0  0  0  0  0  0
   -2.4551   -2.0400    0.2767 H   0  0  0  0  0  0  0  0  0  0  0  0
  1  4  1  0  0  0  0
  1 22  1  0  0  0  0
  1 23  1  0  0  0  0
  2  3  1  0  0  0  0
  2  5  1  0  0  0  0
  2  8  1  0  0  0  0
  2  9  1  0  0  0  0
  3  4  1  0  0  0  0
  3 10  1  0  0  0  0
  3 11  1  0  0  0  0
  4  6  1  0  0  0  0
  4 12  1  0  0  0  0
  5  7  1  0  0  0  0
  5 13  1  0  0  0  0
  5 14  1  0  0  0  0
  6  7  1  0  0  0  0
  6 15  1  0  0  0  0
  6 16  1  0  0  0  0
  7 17  1  0  0  0  0
  7 18  1  0  0  0  0
  8 19  1  0  0  0  0
  8 20  1  0  0  0  0
  8 21  1  0  0  0  0
M  END
> <PUBCHEM_COMPOUND_CID>
110931

> <PUBCHEM_CONFORMER_RMSD>
0.4

> <PUBCHEM_CONFORMER_DIVERSEORDER>
1
6
7
8
4
2
3
5

> <PUBCHEM_MMFF94_PARTIAL_CHARGES>
4
1 -0.99
22 0.36
23 0.36
4 0.27

> <PUBCHEM_EFFECTIVE_ROTOR_COUNT>
1.2

> <PUBCHEM_PHARMACOPHORE_FEATURES>
3
1 1 cation
1 1 donor
6 2 3 4 5 6 7 rings

> <PUBCHEM_HEAVY_ATOM_COUNT>
8

> <PUBCHEM_ATOM_DEF_STEREO_COUNT>
0

> <PUBCHEM_ATOM_UDEF_STEREO_COUNT>
2

> <PUBCHEM_BOND_DEF_STEREO_COUNT>
0

> <PUBCHEM_BOND_UDEF_STEREO_COUNT>
0

> <PUBCHEM_ISOTOPIC_ATOM_COUNT>
0

> <PUBCHEM_COMPONENT_COUNT>
1

> <PUBCHEM_CACTVS_TAUTO_COUNT>
1

> <PUBCHEM_CONFORMER_ID>
0001B15300000001

> <PUBCHEM_MMFF94_ENERGY>
-0.5516

> <PUBCHEM_FEATURE_SELFOVERLAP>
15.223

> <PUBCHEM_SHAPE_FINGERPRINT>
14128692 85 18410582790098158710
16714656 1 18122067502985382332
18185500 45 18410294726404291018
21040471 1 17689714160524718336
23552423 10 18260271819703480014
23552449 1 18267581317085892520
241688 4 18409448055206445432
2748010 2 18410569591431789836
29004967 10 18263646336615735025
5084963 1 18272652346122583786

> <PUBCHEM_SHAPE_MULTIPOLES>
159.66
2.85
1.78
0.66
0.51
0.52
0.01
-1.23
-0.16
-0.25
-0.03
0.02
0.02
0

> <PUBCHEM_SHAPE_SELFOVERLAP>
303.788

> <PUBCHEM_SHAPE_VOLUME>
97.4

> <PUBCHEM_COORDINATE_TYPE>
2
5
10

$$$$
