85845124
  -OEChem-11012400523D

 50 52  0     0  0  0  0  0  0999 V2000
    0.0005    1.5729   -0.4939 Si  0  0  0  0  0  0  0  0  0  0  0  0
   -1.3610    1.5733    0.4828 O   0  0  0  0  0  0  0  0  0  0  0  0
    1.3529    1.5756    0.4849 O   0  0  0  0  0  0  0  0  0  0  0  0
    0.0011    0.1932   -1.4339 O   0  0  0  0  0  0  0  0  0  0  0  0
    0.0002    3.0969   -1.5893 C   0  0  0  0  0  0  0  0  0  0  0  0
   -2.6654    1.2352    0.2924 C   0  0  0  0  0  0  0  0  0  0  0  0
    2.6665    1.2370    0.2936 C   0  0  0  0  0  0  0  0  0  0  0  0
    0.0015   -1.1466   -1.1475 C   0  0  0  0  0  0  0  0  0  0  0  0
   -3.4225    0.7497    1.3586 C   0  0  0  0  0  0  0  0  0  0  0  0
    3.4228    0.7487    1.3591 C   0  0  0  0  0  0  0  0  0  0  0  0
    0.0002   -1.5756    0.1798 C   0  0  0  0  0  0  0  0  0  0  0  0
   -4.7599    0.4040    1.1643 C   0  0  0  0  0  0  0  0  0  0  0  0
    4.7600    0.4028    1.1647 C   0  0  0  0  0  0  0  0  0  0  0  0
   -0.0004   -2.9395    0.4721 C   0  0  0  0  0  0  0  0  0  0  0  0
   -3.2459    1.3751   -0.9684 C   0  0  0  0  0  0  0  0  0  0  0  0
    3.2476    1.3794   -0.9666 C   0  0  0  0  0  0  0  0  0  0  0  0
    0.0020   -2.0817   -2.1827 C   0  0  0  0  0  0  0  0  0  0  0  0
   -5.3404    0.5440   -0.0965 C   0  0  0  0  0  0  0  0  0  0  0  0
    5.3412    0.5451   -0.0955 C   0  0  0  0  0  0  0  0  0  0  0  0
    0.0000   -3.8747   -0.5631 C   0  0  0  0  0  0  0  0  0  0  0  0
   -4.5835    1.0298   -1.1626 C   0  0  0  0  0  0  0  0  0  0  0  0
    4.5848    1.0332   -1.1611 C   0  0  0  0  0  0  0  0  0  0  0  0
    0.0010   -3.4457   -1.8904 C   0  0  0  0  0  0  0  0  0  0  0  0
   -5.5690   -0.1145    2.3045 C   0  0  0  0  0  0  0  0  0  0  0  0
    5.5680   -0.1198    2.3039 C   0  0  0  0  0  0  0  0  0  0  0  0
   -0.0025   -3.3978    1.8911 C   0  0  0  0  0  0  0  0  0  0  0  0
    0.8827    3.1244   -2.2335 H   0  0  0  0  0  0  0  0  0  0  0  0
   -0.8812    3.1226   -2.2351 H   0  0  0  0  0  0  0  0  0  0  0  0
   -0.0013    4.0038   -0.9774 H   0  0  0  0  0  0  0  0  0  0  0  0
   -2.9637    0.6406    2.3384 H   0  0  0  0  0  0  0  0  0  0  0  0
    2.9641    0.6407    2.3390 H   0  0  0  0  0  0  0  0  0  0  0  0
    0.0011   -0.8782    1.0116 H   0  0  0  0  0  0  0  0  0  0  0  0
   -2.6930    1.7540   -1.8208 H   0  0  0  0  0  0  0  0  0  0  0  0
    2.6951    1.7603   -1.8184 H   0  0  0  0  0  0  0  0  0  0  0  0
    0.0029   -1.7533   -3.2184 H   0  0  0  0  0  0  0  0  0  0  0  0
   -6.3808    0.2767   -0.2611 H   0  0  0  0  0  0  0  0  0  0  0  0
    6.3825    0.2808   -0.2595 H   0  0  0  0  0  0  0  0  0  0  0  0
    0.0009   -4.9403   -0.3500 H   0  0  0  0  0  0  0  0  0  0  0  0
   -5.0359    1.1394   -2.1439 H   0  0  0  0  0  0  0  0  0  0  0  0
    5.0380    1.1451   -2.1419 H   0  0  0  0  0  0  0  0  0  0  0  0
    0.0016   -4.1736   -2.6964 H   0  0  0  0  0  0  0  0  0  0  0  0
   -6.6297    0.1294    2.1812 H   0  0  0  0  0  0  0  0  0  0  0  0
   -5.2463    0.3311    3.2516 H   0  0  0  0  0  0  0  0  0  0  0  0
   -5.4657   -1.2018    2.3744 H   0  0  0  0  0  0  0  0  0  0  0  0
    6.3588   -0.7919    1.9535 H   0  0  0  0  0  0  0  0  0  0  0  0
    4.9449   -0.6936    2.9984 H   0  0  0  0  0  0  0  0  0  0  0  0
    6.0296    0.7096    2.8488 H   0  0  0  0  0  0  0  0  0  0  0  0
   -0.3140   -4.4443    1.9767 H   0  0  0  0  0  0  0  0  0  0  0  0
   -0.7022   -2.8035    2.4886 H   0  0  0  0  0  0  0  0  0  0  0  0
    1.0005   -3.3012    2.3186 H   0  0  0  0  0  0  0  0  0  0  0  0
  1  2  1  0  0  0  0
  1  3  1  0  0  0  0
  1  4  1  0  0  0  0
  1  5  1  0  0  0  0
  2  6  1  0  0  0  0
  3  7  1  0  0  0  0
  4  8  1  0  0  0  0
  5 27  1  0  0  0  0
  5 28  1  0  0  0  0
  5 29  1  0  0  0  0
  6  9  1  0  0  0  0
  6 15  2  0  0  0  0
  7 10  1  0  0  0  0
  7 16  2  0  0  0  0
  8 11  1  0  0  0  0
  8 17  2  0  0  0  0
  9 12  2  0  0  0  0
  9 30  1  0  0  0  0
 10 13  2  0  0  0  0
 10 31  1  0  0  0  0
 11 14  2  0  0  0  0
 11 32  1  0  0  0  0
 12 18  1  0  0  0  0
 12 24  1  0  0  0  0
 13 19  1  0  0  0  0
 13 25  1  0  0  0  0
 14 20  1  0  0  0  0
 14 26  1  0  0  0  0
 15 21  1  0  0  0  0
 15 33  1  0  0  0  0
 16 22  1  0  0  0  0
 16 34  1  0  0  0  0
 17 23  1  0  0  0  0
 17 35  1  0  0  0  0
 18 21  2  0  0  0  0
 18 36  1  0  0  0  0
 19 22  2  0  0  0  0
 19 37  1  0  0  0  0
 20 23  2  0  0  0  0
 20 38  1  0  0  0  0
 21 39  1  0  0  0  0
 22 40  1  0  0  0  0
 23 41  1  0  0  0  0
 24 42  1  0  0  0  0
 24 43  1  0  0  0  0
 24 44  1  0  0  0  0
 25 45  1  0  0  0  0
 25 46  1  0  0  0  0
 25 47  1  0  0  0  0
 26 48  1  0  0  0  0
 26 49  1  0  0  0  0
 26 50  1  0  0  0  0
M  END
> <PUBCHEM_COMPOUND_CID>
85845124

> <PUBCHEM_CONFORMER_RMSD>
1.2

> <PUBCHEM_CONFORMER_DIVERSEORDER>
1
17
70
39
57
31
28
75
29
51
67
27
26
47
66
25
63
53
22
16
69
48
46
12
55
43
64
35
56
61
42
21
32
18
41
65
68
50
9
36
71
49
34
38
73
40
58
30
44
33
72
54
62
15
52
13
10
2
37
5
20
8
45
59
3
14
23
60
74
24
7
6
19
11
4

> <PUBCHEM_MMFF94_PARTIAL_CHARGES>
38
1 0.97
10 -0.15
11 -0.15
12 -0.14
13 -0.14
14 -0.14
15 -0.15
16 -0.15
17 -0.15
18 -0.15
19 -0.15
2 -0.38
20 -0.15
21 -0.15
22 -0.15
23 -0.15
24 0.14
25 0.14
26 0.14
3 -0.38
30 0.15
31 0.15
32 0.15
33 0.15
34 0.15
35 0.15
36 0.15
37 0.15
38 0.15
39 0.15
4 -0.38
40 0.15
41 0.15
5 -0.08
6 0.08
7 0.08
8 0.08
9 -0.15

> <PUBCHEM_EFFECTIVE_ROTOR_COUNT>
6

> <PUBCHEM_PHARMACOPHORE_FEATURES>
3
6 6 9 12 15 18 21 rings
6 7 10 13 16 19 22 rings
6 8 11 14 17 20 23 rings

> <PUBCHEM_HEAVY_ATOM_COUNT>
26

> <PUBCHEM_ATOM_DEF_STEREO_COUNT>
0

> <PUBCHEM_ATOM_UDEF_STEREO_COUNT>
0

> <PUBCHEM_BOND_DEF_STEREO_COUNT>
0

> <PUBCHEM_BOND_UDEF_STEREO_COUNT>
0

> <PUBCHEM_ISOTOPIC_ATOM_COUNT>
0

> <PUBCHEM_COMPONENT_COUNT>
1

> <PUBCHEM_CACTVS_TAUTO_COUNT>
1

> <PUBCHEM_CONFORMER_ID>
051DE48400000001

> <PUBCHEM_MMFF94_ENERGY>
69.7795

> <PUBCHEM_FEATURE_SELFOVERLAP>
15.224

> <PUBCHEM_SHAPE_FINGERPRINT>
10764073 3 16372674151381914855
10816530 23 17273119414504063136
10906281 52 17345755321525663824
11421498 54 17703239412388519665
11488393 25 18125727777063055534
11578080 2 17485931045185330064
12422481 6 18267573629194841538
12633257 1 18129924772529843304
12788726 201 17765709513697504758
12839892 36 18408324384751372715
13692114 37 17987803046301131383
13726171 33 17909852138694821492
14020679 6 17488724801162492576
14178342 30 18265070058699419353
14251757 17 13829838141046447194
14347332 77 11026331929034281272
14866123 147 18340192090164547006
15420108 30 18200583705982593799
15775530 1 17686332066879178181
16728300 4 17458612394128236139
17980427 23 15574723495324264415
1813 80 11386368148960809372
19319366 153 17604154835003639024
20028762 73 18129942403143649527
20197701 30 18341885290456611167
20567600 347 18343026557899104215
22224240 67 18201721769252720729
22956985 138 17974290919651815114
23419403 2 17553252853252564342
23559900 14 17681272157501844143
3383291 50 18058454201911552670
465052 167 17967823759623343392
6081469 158 13912590628974191761
6669772 16 18342463608378745590
81228 2 17906991208837221044

> <PUBCHEM_SHAPE_MULTIPOLES>
535.67
10.92
3.86
2.18
0
4.72
-0.33
-5.61
-6.32
0
1.38
0
0.85
0

> <PUBCHEM_SHAPE_SELFOVERLAP>
1128.815

> <PUBCHEM_SHAPE_VOLUME>
302.9

> <PUBCHEM_COORDINATE_TYPE>
2
5
10

$$$$
