86098842
  -OEChem-11012401243D

 18 19  0     1  0  0  0  0  0999 V2000
    1.6651    1.4330   -0.3723 O   0  5  0  0  0  0  0  0  0  0  0  0
    2.6510   -0.3594    0.4576 O   0  0  0  0  0  0  0  0  0  0  0  0
    1.7091    0.2071   -0.1358 N   0  3  0  0  0  0  0  0  0  0  0  0
   -0.7567   -0.2733   -0.0689 C   0  0  0  0  0  0  0  0  0  0  0  0
    0.6030   -0.6111   -0.5734 C   0  0  2  0  0  0  0  0  0  0  0  0
   -0.0432   -1.4703    0.4811 C   0  0  0  0  0  0  0  0  0  0  0  0
   -2.0209   -0.3035   -0.8443 C   0  0  0  0  0  0  0  0  0  0  0  0
   -1.1903    0.9131    0.7080 C   0  0  0  0  0  0  0  0  0  0  0  0
   -2.6171    0.4644    0.3479 C   0  0  0  0  0  0  0  0  0  0  0  0
    0.7150   -1.0112   -1.5718 H   0  0  0  0  0  0  0  0  0  0  0  0
   -0.3884   -2.4531    0.1820 H   0  0  0  0  0  0  0  0  0  0  0  0
    0.3113   -1.4214    1.5039 H   0  0  0  0  0  0  0  0  0  0  0  0
   -2.4737   -1.2793   -1.0373 H   0  0  0  0  0  0  0  0  0  0  0  0
   -1.9860    0.2684   -1.7782 H   0  0  0  0  0  0  0  0  0  0  0  0
   -0.9138    1.8793    0.2724 H   0  0  0  0  0  0  0  0  0  0  0  0
   -0.9683    0.9260    1.7782 H   0  0  0  0  0  0  0  0  0  0  0  0
   -3.3138    1.2672    0.0909 H   0  0  0  0  0  0  0  0  0  0  0  0
   -3.0853   -0.1793    1.1028 H   0  0  0  0  0  0  0  0  0  0  0  0
  1  3  1  0  0  0  0
  2  3  2  0  0  0  0
  3  5  1  0  0  0  0
  4  5  1  0  0  0  0
  4  6  1  0  0  0  0
  4  7  1  0  0  0  0
  4  8  1  0  0  0  0
  5  6  1  0  0  0  0
  5 10  1  0  0  0  0
  6 11  1  0  0  0  0
  6 12  1  0  0  0  0
  7  9  1  0  0  0  0
  7 13  1  0  0  0  0
  7 14  1  0  0  0  0
  8  9  1  0  0  0  0
  8 15  1  0  0  0  0
  8 16  1  0  0  0  0
  9 17  1  0  0  0  0
  9 18  1  0  0  0  0
M  CHG  2   1  -1   3   1
M  END
> <PUBCHEM_COMPOUND_CID>
86098842

> <PUBCHEM_CONFORMER_RMSD>
0.4

> <PUBCHEM_CONFORMER_DIVERSEORDER>
1
3
4
2

> <PUBCHEM_MMFF94_PARTIAL_CHARGES>
11
1 -0.52
10 0.1
11 0.1
12 0.1
2 -0.52
3 0.87
4 -0.15
5 0.07
6 -0.2
7 0.08
8 0.08

> <PUBCHEM_EFFECTIVE_ROTOR_COUNT>
2

> <PUBCHEM_PHARMACOPHORE_FEATURES>
4
1 1 acceptor
1 1 anion
1 2 acceptor
4 4 7 8 9 rings

> <PUBCHEM_HEAVY_ATOM_COUNT>
9

> <PUBCHEM_ATOM_DEF_STEREO_COUNT>
0

> <PUBCHEM_ATOM_UDEF_STEREO_COUNT>
1

> <PUBCHEM_BOND_DEF_STEREO_COUNT>
0

> <PUBCHEM_BOND_UDEF_STEREO_COUNT>
0

> <PUBCHEM_ISOTOPIC_ATOM_COUNT>
0

> <PUBCHEM_COMPONENT_COUNT>
1

> <PUBCHEM_CACTVS_TAUTO_COUNT>
2

> <PUBCHEM_CONFORMER_ID>
0521C39A00000001

> <PUBCHEM_MMFF94_ENERGY>
19.6982

> <PUBCHEM_FEATURE_SELFOVERLAP>
20.375

> <PUBCHEM_SHAPE_FINGERPRINT>
12897270 3 17132113541573089253
14390081 3 17632574920625179617
15310529 11 12175626161300892409
16945 1 18412547587175177175
18185500 45 18271523091999101241
20096714 4 18411706477848936911
20653085 51 17631473235627946168
21040471 1 18413113874223228878
23235685 24 18411141337567774096
23552423 10 18201443523701176047
29004967 10 17530972332494258691
369184 2 17894910754302526225
5084963 1 18411130342330112085

> <PUBCHEM_SHAPE_MULTIPOLES>
168.5
3.3
1.24
0.85
0.43
0.02
-0.03
0.62
0.09
0.19
0.09
-0.17
-0.05
-0.32

> <PUBCHEM_SHAPE_SELFOVERLAP>
348.937

> <PUBCHEM_SHAPE_VOLUME>
98.3

> <PUBCHEM_COORDINATE_TYPE>
2
5
10

$$$$
