29244
  -OEChem-11012401113D

 16 17  0     0  0  0  0  0  0999 V2000
    1.7653   -1.7385    0.0000 O   0  0  0  0  0  0  0  0  0  0  0  0
    3.5310   -0.3077    0.0014 O   0  5  0  0  0  0  0  0  0  0  0  0
   -3.5142    0.1130    0.0015 O   0  5  0  0  0  0  0  0  0  0  0  0
   -2.3525   -1.7498   -0.0005 O   0  0  0  0  0  0  0  0  0  0  0  0
    2.2843   -0.4124   -0.0003 N   0  3  0  0  0  0  0  0  0  0  0  0
    0.3825   -1.6554   -0.0004 N   0  0  0  0  0  0  0  0  0  0  0  0
   -2.4104   -0.4923    0.0003 N   0  3  0  0  0  0  0  0  0  0  0  0
    1.2619    0.4387   -0.0003 C   0  0  0  0  0  0  0  0  0  0  0  0
    0.0552   -0.3552   -0.0005 C   0  0  0  0  0  0  0  0  0  0  0  0
   -1.2126    0.2548   -0.0007 C   0  0  0  0  0  0  0  0  0  0  0  0
    1.3277    1.8267   -0.0001 C   0  0  0  0  0  0  0  0  0  0  0  0
   -1.1662    1.6645   -0.0003 C   0  0  0  0  0  0  0  0  0  0  0  0
    0.0480    2.4137   -0.0001 C   0  0  0  0  0  0  0  0  0  0  0  0
    2.2400    2.4069    0.0001 H   0  0  0  0  0  0  0  0  0  0  0  0
   -2.0941    2.2368   -0.0001 H   0  0  0  0  0  0  0  0  0  0  0  0
   -0.0218    3.5010    0.0000 H   0  0  0  0  0  0  0  0  0  0  0  0
  1  5  1  0  0  0  0
  1  6  1  0  0  0  0
  2  5  1  0  0  0  0
  3  7  1  0  0  0  0
  4  7  2  0  0  0  0
  5  8  2  0  0  0  0
  6  9  2  0  0  0  0
  7 10  1  0  0  0  0
  8  9  1  0  0  0  0
  8 11  1  0  0  0  0
  9 10  1  0  0  0  0
 10 12  2  0  0  0  0
 11 13  2  0  0  0  0
 11 14  1  0  0  0  0
 12 13  1  0  0  0  0
 12 15  1  0  0  0  0
 13 16  1  0  0  0  0
M  CHG  4   2  -1   3  -1   5   1   7   1
M  END
> <PUBCHEM_COMPOUND_CID>
29244

> <PUBCHEM_CONFORMER_RMSD>
0.4

> <PUBCHEM_CONFORMER_DIVERSEORDER>
1

> <PUBCHEM_MMFF94_PARTIAL_CHARGES>
16
1 -0.12
10 0.13
11 -0.15
12 -0.15
13 -0.15
14 0.15
15 0.15
16 0.15
2 -0.63
3 -0.52
4 -0.52
5 0.95
6 -0.41
7 0.91
8 -0.08
9 0.29

> <PUBCHEM_EFFECTIVE_ROTOR_COUNT>
1

> <PUBCHEM_PHARMACOPHORE_FEATURES>
7
1 2 anion
1 3 acceptor
1 3 anion
1 4 acceptor
1 6 acceptor
5 1 5 6 8 9 rings
6 8 9 10 11 12 13 rings

> <PUBCHEM_HEAVY_ATOM_COUNT>
13

> <PUBCHEM_ATOM_DEF_STEREO_COUNT>
0

> <PUBCHEM_ATOM_UDEF_STEREO_COUNT>
0

> <PUBCHEM_BOND_DEF_STEREO_COUNT>
0

> <PUBCHEM_BOND_UDEF_STEREO_COUNT>
0

> <PUBCHEM_ISOTOPIC_ATOM_COUNT>
0

> <PUBCHEM_COMPONENT_COUNT>
1

> <PUBCHEM_CACTVS_TAUTO_COUNT>
1

> <PUBCHEM_CONFORMER_ID>
0000723C00000001

> <PUBCHEM_MMFF94_ENERGY>
38.895

> <PUBCHEM_FEATURE_SELFOVERLAP>
35.733

> <PUBCHEM_SHAPE_FINGERPRINT>
10967382 1 18410575080436728871
11206711 2 18336267846974998940
11471102 20 18410006676370824405
12032990 46 18411707577724847398
14128692 85 18412830221703438884
16945 1 18410575054614300997
17990270 104 18192147316123071017
193761 8 17762336912018474886
20201158 50 18408319978004325987
20871998 184 18057318392617449564
20871998 22 18270692969188914727
21040471 1 17618222144828594341
2334 1 18050568744105895815
23552423 10 18263364848907233005
23559900 14 18126283035747869062
241688 4 18410012104719142688
2748010 2 18194119852646754293
5084963 1 18201721773041090880
528886 8 18411695495654516923
63268167 104 18268435805156268609
8809292 202 18187650240498659059

> <PUBCHEM_SHAPE_MULTIPOLES>
229.11
4.03
2.26
0.56
0.62
0.62
0
-1.35
0
-0.12
0
0
0.06
0

> <PUBCHEM_SHAPE_SELFOVERLAP>
498.947

> <PUBCHEM_SHAPE_VOLUME>
126.2

> <PUBCHEM_COORDINATE_TYPE>
2
5
10

$$$$
