520612
  -OEChem-11012400493D

 34 35  0     0  0  0  0  0  0999 V2000
    0.0305   -0.8950   -0.7195 C   0  0  0  0  0  0  0  0  0  0  0  0
   -1.2904   -0.3168   -0.3300 C   0  0  0  0  0  0  0  0  0  0  0  0
    1.2161   -0.0441   -0.2504 C   0  0  0  0  0  0  0  0  0  0  0  0
    0.1629   -1.2607   -2.2188 C   0  0  0  0  0  0  0  0  0  0  0  0
   -1.8633   -0.6063    0.9083 C   0  0  0  0  0  0  0  0  0  0  0  0
    2.4030   -0.6563    0.0771 C   0  0  0  0  0  0  0  0  0  0  0  0
   -1.9518    0.5242   -1.2249 C   0  0  0  0  0  0  0  0  0  0  0  0
    1.0345    1.3182   -0.1782 C   0  0  0  0  0  0  0  0  0  0  0  0
   -3.0977   -0.0550    1.2517 C   0  0  0  0  0  0  0  0  0  0  0  0
    3.4688    0.1373    0.5010 C   0  0  0  0  0  0  0  0  0  0  0  0
   -1.1738   -1.5038    1.8829 C   0  0  0  0  0  0  0  0  0  0  0  0
    2.5885   -2.1360   -0.0053 C   0  0  0  0  0  0  0  0  0  0  0  0
   -3.1862    1.0754   -0.8816 C   0  0  0  0  0  0  0  0  0  0  0  0
    2.1004    2.1117    0.2458 C   0  0  0  0  0  0  0  0  0  0  0  0
   -3.7593    0.7859    0.3567 C   0  0  0  0  0  0  0  0  0  0  0  0
    3.3176    1.5213    0.5854 C   0  0  0  0  0  0  0  0  0  0  0  0
    0.0837   -1.8715   -0.2288 H   0  0  0  0  0  0  0  0  0  0  0  0
    0.2462   -0.3682   -2.8493 H   0  0  0  0  0  0  0  0  0  0  0  0
   -0.7046   -1.8382   -2.5579 H   0  0  0  0  0  0  0  0  0  0  0  0
    1.0526   -1.8621   -2.4204 H   0  0  0  0  0  0  0  0  0  0  0  0
   -1.5328    0.7827   -2.1924 H   0  0  0  0  0  0  0  0  0  0  0  0
    0.1223    1.8328   -0.4489 H   0  0  0  0  0  0  0  0  0  0  0  0
   -3.5588   -0.2706    2.2119 H   0  0  0  0  0  0  0  0  0  0  0  0
    4.4245   -0.3057    0.7687 H   0  0  0  0  0  0  0  0  0  0  0  0
   -1.1439   -2.5328    1.5101 H   0  0  0  0  0  0  0  0  0  0  0  0
   -0.1592   -1.1554    2.0981 H   0  0  0  0  0  0  0  0  0  0  0  0
   -1.7013   -1.5284    2.8434 H   0  0  0  0  0  0  0  0  0  0  0  0
    2.5206   -2.4978   -1.0329 H   0  0  0  0  0  0  0  0  0  0  0  0
    3.5825   -2.4266    0.3559 H   0  0  0  0  0  0  0  0  0  0  0  0
    1.8722   -2.6643    0.6313 H   0  0  0  0  0  0  0  0  0  0  0  0
   -3.7001    1.7326   -1.5769 H   0  0  0  0  0  0  0  0  0  0  0  0
    1.9850    3.1901    0.3069 H   0  0  0  0  0  0  0  0  0  0  0  0
   -4.7201    1.2158    0.6240 H   0  0  0  0  0  0  0  0  0  0  0  0
    4.1479    2.1396    0.9140 H   0  0  0  0  0  0  0  0  0  0  0  0
  1  2  1  0  0  0  0
  1  3  1  0  0  0  0
  1  4  1  0  0  0  0
  1 17  1  0  0  0  0
  2  5  1  0  0  0  0
  2  7  2  0  0  0  0
  3  6  1  0  0  0  0
  3  8  2  0  0  0  0
  4 18  1  0  0  0  0
  4 19  1  0  0  0  0
  4 20  1  0  0  0  0
  5  9  2  0  0  0  0
  5 11  1  0  0  0  0
  6 10  2  0  0  0  0
  6 12  1  0  0  0  0
  7 13  1  0  0  0  0
  7 21  1  0  0  0  0
  8 14  1  0  0  0  0
  8 22  1  0  0  0  0
  9 15  1  0  0  0  0
  9 23  1  0  0  0  0
 10 16  1  0  0  0  0
 10 24  1  0  0  0  0
 11 25  1  0  0  0  0
 11 26  1  0  0  0  0
 11 27  1  0  0  0  0
 12 28  1  0  0  0  0
 12 29  1  0  0  0  0
 12 30  1  0  0  0  0
 13 15  2  0  0  0  0
 13 31  1  0  0  0  0
 14 16  2  0  0  0  0
 14 32  1  0  0  0  0
 15 33  1  0  0  0  0
 16 34  1  0  0  0  0
M  END
> <PUBCHEM_COMPOUND_CID>
520612

> <PUBCHEM_CONFORMER_RMSD>
0.6

> <PUBCHEM_CONFORMER_DIVERSEORDER>
1
3
2
4
5

> <PUBCHEM_MMFF94_PARTIAL_CHARGES>
23
1 0.29
10 -0.15
11 0.14
12 0.14
13 -0.15
14 -0.15
15 -0.15
16 -0.15
2 -0.14
21 0.15
22 0.15
23 0.15
24 0.15
3 -0.14
31 0.15
32 0.15
33 0.15
34 0.15
5 -0.14
6 -0.14
7 -0.15
8 -0.15
9 -0.15

> <PUBCHEM_EFFECTIVE_ROTOR_COUNT>
2

> <PUBCHEM_PHARMACOPHORE_FEATURES>
3
1 4 hydrophobe
6 2 5 7 9 13 15 rings
6 3 6 8 10 14 16 rings

> <PUBCHEM_HEAVY_ATOM_COUNT>
16

> <PUBCHEM_ATOM_DEF_STEREO_COUNT>
0

> <PUBCHEM_ATOM_UDEF_STEREO_COUNT>
0

> <PUBCHEM_BOND_DEF_STEREO_COUNT>
0

> <PUBCHEM_BOND_UDEF_STEREO_COUNT>
0

> <PUBCHEM_ISOTOPIC_ATOM_COUNT>
0

> <PUBCHEM_COMPONENT_COUNT>
1

> <PUBCHEM_CACTVS_TAUTO_COUNT>
1

> <PUBCHEM_CONFORMER_ID>
0007F1A400000001

> <PUBCHEM_MMFF94_ENERGY>
55.6635

> <PUBCHEM_FEATURE_SELFOVERLAP>
15.223

> <PUBCHEM_SHAPE_FINGERPRINT>
10366900 7 18187650270441720872
104564 63 17986121712258887608
10608611 8 18261107482684316653
10980938 120 18341324561465570508
1100329 8 14874993607627294504
11471102 22 18411139121459575396
11640471 11 17275388711212847112
12251169 10 18335989760896003689
12423570 1 10135900025790254103
124424 183 18260825956104324668
12633257 1 17822284734191387120
13134695 92 18269830926635230860
13464514 151 17540802907287553205
13581323 91 17168148957289546169
15219456 202 18334013886723970729
15309172 13 18202565094122358326
15653759 3 17822010908445753185
15775835 57 17775283897595545584
16945 1 18340198605391759286
17804303 29 17531253811634327883
1813 80 16913437030181884998
18186145 218 17775288252702796988
19049666 15 17970060054557168872
20645464 45 18040994059660234401
21524375 3 17988080113838821949
228727 97 15410899552493367727
23175994 123 18193281780364000590
23184049 59 18130785612397277254
23419403 2 14858582812768268347
23559900 14 17749956548945636078
5337951 7 18187368705592560666
598444 67 17968095257590978573
69090 78 18335416889937705555
74978 22 17488740224184427076
77492 1 17060334102517898439
81228 2 17387422444051582723

> <PUBCHEM_SHAPE_MULTIPOLES>
329.27
6.04
1.91
1.53
0.7
0.04
0.26
1.86
-1.37
-1.38
-0.09
0.84
-0.64
0.76

> <PUBCHEM_SHAPE_SELFOVERLAP>
704.758

> <PUBCHEM_SHAPE_VOLUME>
175.9

> <PUBCHEM_COORDINATE_TYPE>
2
5
10

$$$$
