8749
  -OEChem-11012400503D

 21 21  0     0  0  0  0  0  0999 V2000
   -3.6847   -0.1383   -0.7411 O   0  0  0  0  0  0  0  0  0  0  0  0
    2.4559   -0.0198   -0.0835 N   0  0  0  0  0  0  0  0  0  0  0  0
   -3.1007    0.0711    0.3326 N   0  0  0  0  0  0  0  0  0  0  0  0
    1.0497    0.0031    0.0218 C   0  0  0  0  0  0  0  0  0  0  0  0
    0.3561    1.1999   -0.1587 C   0  0  0  0  0  0  0  0  0  0  0  0
    0.3523   -1.1710    0.3063 C   0  0  0  0  0  0  0  0  0  0  0  0
    3.2373    1.1502    0.2648 C   0  0  0  0  0  0  0  0  0  0  0  0
    3.1392   -1.2184   -0.5280 C   0  0  0  0  0  0  0  0  0  0  0  0
   -1.0346    1.2227   -0.0545 C   0  0  0  0  0  0  0  0  0  0  0  0
   -1.0386   -1.1482    0.4104 C   0  0  0  0  0  0  0  0  0  0  0  0
   -1.7319    0.0487    0.2300 C   0  0  0  0  0  0  0  0  0  0  0  0
    0.8678    2.1291   -0.3931 H   0  0  0  0  0  0  0  0  0  0  0  0
    0.8622   -2.1171    0.4645 H   0  0  0  0  0  0  0  0  0  0  0  0
    3.2233    1.8825   -0.5492 H   0  0  0  0  0  0  0  0  0  0  0  0
    4.2842    0.8855    0.4511 H   0  0  0  0  0  0  0  0  0  0  0  0
    2.8647    1.6235    1.1804 H   0  0  0  0  0  0  0  0  0  0  0  0
    4.1536   -0.9895   -0.8736 H   0  0  0  0  0  0  0  0  0  0  0  0
    2.6191   -1.6882   -1.3705 H   0  0  0  0  0  0  0  0  0  0  0  0
    3.2255   -1.9419    0.2895 H   0  0  0  0  0  0  0  0  0  0  0  0
   -1.5591    2.1644   -0.2006 H   0  0  0  0  0  0  0  0  0  0  0  0
   -1.5659   -2.0726    0.6356 H   0  0  0  0  0  0  0  0  0  0  0  0
  1  3  2  0  0  0  0
  2  4  1  0  0  0  0
  2  7  1  0  0  0  0
  2  8  1  0  0  0  0
  3 11  1  0  0  0  0
  4  5  2  0  0  0  0
  4  6  1  0  0  0  0
  5  9  1  0  0  0  0
  5 12  1  0  0  0  0
  6 10  2  0  0  0  0
  6 13  1  0  0  0  0
  7 14  1  0  0  0  0
  7 15  1  0  0  0  0
  7 16  1  0  0  0  0
  8 17  1  0  0  0  0
  8 18  1  0  0  0  0
  8 19  1  0  0  0  0
  9 11  2  0  0  0  0
  9 20  1  0  0  0  0
 10 11  1  0  0  0  0
 10 21  1  0  0  0  0
M  END
> <PUBCHEM_COMPOUND_CID>
8749

> <PUBCHEM_CONFORMER_RMSD>
0.4

> <PUBCHEM_CONFORMER_DIVERSEORDER>
1
4
2
3

> <PUBCHEM_MMFF94_PARTIAL_CHARGES>
15
1 -0.16
10 -0.15
11 0.3
12 0.15
13 0.15
2 -0.84
20 0.15
21 0.15
3 -0.14
4 0.1
5 -0.15
6 -0.15
7 0.37
8 0.37
9 -0.15

> <PUBCHEM_EFFECTIVE_ROTOR_COUNT>
2

> <PUBCHEM_PHARMACOPHORE_FEATURES>
2
1 2 cation
6 4 5 6 9 10 11 rings

> <PUBCHEM_HEAVY_ATOM_COUNT>
11

> <PUBCHEM_ATOM_DEF_STEREO_COUNT>
0

> <PUBCHEM_ATOM_UDEF_STEREO_COUNT>
0

> <PUBCHEM_BOND_DEF_STEREO_COUNT>
0

> <PUBCHEM_BOND_UDEF_STEREO_COUNT>
0

> <PUBCHEM_ISOTOPIC_ATOM_COUNT>
0

> <PUBCHEM_COMPONENT_COUNT>
1

> <PUBCHEM_CACTVS_TAUTO_COUNT>
1

> <PUBCHEM_CONFORMER_ID>
0000222D00000001

> <PUBCHEM_MMFF94_ENERGY>
43.4251

> <PUBCHEM_FEATURE_SELFOVERLAP>
10.148

> <PUBCHEM_SHAPE_FINGERPRINT>
10219947 1 18413393137402473935
11062470 55 18343301487398331569
11206711 2 18188774920529138789
12032990 46 18335712645306116075
12897270 3 18335140856077682991
12932764 1 14851893589908593462
13380535 76 18339359772941719210
14325111 11 18411420600530884289
14993402 34 18131066065092513965
16945 1 18187089446418028729
18186145 218 18261393317078901317
19026448 5 16988848271764292459
193761 8 17543065684725903537
20201158 50 18412830179159960742
20645476 183 16878239639825690394
20645477 70 18343301431453279703
21293036 1 18334571369484659191
23235685 24 18335414690360360609
23402539 116 18342164553588487588
23402655 69 18191566594444695229
23552423 10 18186810205299227954
2748010 2 18119256296318479139
369184 2 18202285796820699640
5084963 1 18342741767291861600

> <PUBCHEM_SHAPE_MULTIPOLES>
210.54
5.31
1.42
0.71
0.4
0.01
0.02
-0.08
0.69
-0.62
-0.02
0.06
-0.05
0.3

> <PUBCHEM_SHAPE_SELFOVERLAP>
432.119

> <PUBCHEM_SHAPE_VOLUME>
123.2

> <PUBCHEM_COORDINATE_TYPE>
2
5
10

$$$$
