62372
  -OEChem-11012400413D

 10  9  0     0  0  0  0  0  0999 V2000
    1.3493   -1.2188    0.0011 O   0  0  0  0  0  0  0  0  0  0  0  0
   -2.2253    0.8167    0.0008 O   0  5  0  0  0  0  0  0  0  0  0  0
   -1.2789   -1.1970   -0.0013 O   0  0  0  0  0  0  0  0  0  0  0  0
   -0.0223    0.6841   -0.0002 N   0  0  0  0  0  0  0  0  0  0  0  0
   -1.2734    0.0347    0.0000 N   0  3  0  0  0  0  0  0  0  0  0  0
    2.2614    0.8801   -0.0008 N   0  0  0  0  0  0  0  0  0  0  0  0
    1.1891    0.0002    0.0004 C   0  0  0  0  0  0  0  0  0  0  0  0
   -0.0582    1.6980    0.0002 H   0  0  0  0  0  0  0  0  0  0  0  0
    3.2180    0.5424   -0.0009 H   0  0  0  0  0  0  0  0  0  0  0  0
    2.1245    1.8853   -0.0015 H   0  0  0  0  0  0  0  0  0  0  0  0
  1  7  2  0  0  0  0
  2  5  1  0  0  0  0
  3  5  2  0  0  0  0
  4  5  1  0  0  0  0
  4  7  1  0  0  0  0
  4  8  1  0  0  0  0
  6  7  1  0  0  0  0
  6  9  1  0  0  0  0
  6 10  1  0  0  0  0
M  CHG  2   2  -1   5   1
M  END
> <PUBCHEM_COMPOUND_CID>
62372

> <PUBCHEM_CONFORMER_RMSD>
0.4

> <PUBCHEM_CONFORMER_DIVERSEORDER>
1
2

> <PUBCHEM_MMFF94_PARTIAL_CHARGES>
10
1 -0.57
10 0.37
2 -0.52
3 -0.52
4 -0.41
5 1.02
6 -0.8
7 0.69
8 0.37
9 0.37

> <PUBCHEM_EFFECTIVE_ROTOR_COUNT>
2

> <PUBCHEM_PHARMACOPHORE_FEATURES>
5
1 1 acceptor
1 2 acceptor
1 3 acceptor
1 4 donor
1 6 donor

> <PUBCHEM_HEAVY_ATOM_COUNT>
7

> <PUBCHEM_ATOM_DEF_STEREO_COUNT>
0

> <PUBCHEM_ATOM_UDEF_STEREO_COUNT>
0

> <PUBCHEM_BOND_DEF_STEREO_COUNT>
0

> <PUBCHEM_BOND_UDEF_STEREO_COUNT>
0

> <PUBCHEM_ISOTOPIC_ATOM_COUNT>
0

> <PUBCHEM_COMPONENT_COUNT>
1

> <PUBCHEM_CACTVS_TAUTO_COUNT>
3

> <PUBCHEM_CONFORMER_ID>
0000F3A400000001

> <PUBCHEM_MMFF94_ENERGY>
11.782

> <PUBCHEM_FEATURE_SELFOVERLAP>
25.506

> <PUBCHEM_SHAPE_FINGERPRINT>
139733 1 9295281746610422880
14390081 3 18273210928157743976
20096714 4 18410576162710426232
21040471 1 18410573976587922784
24536 1 18338502097472944102
29004967 10 17748836201961820336
5460574 1 9295289439065797985

> <PUBCHEM_SHAPE_MULTIPOLES>
111.51
2.83
1.17
0.52
0.15
0.27
0
-0.59
0
-0.04
0
-0.03
0
0

> <PUBCHEM_SHAPE_SELFOVERLAP>
208.786

> <PUBCHEM_SHAPE_VOLUME>
69.3

> <PUBCHEM_COORDINATE_TYPE>
2
5
10

$$$$
