141784
  -OEChem-11012401043D

 24 24  0     1  0  0  0  0  0999 V2000
    3.5638   -0.1215    0.4893 O   0  0  0  0  0  0  0  0  0  0  0  0
    0.1697   -0.0966   -0.2241 O   0  0  0  0  0  0  0  0  0  0  0  0
   -0.9880   -0.7491    0.3706 O   0  0  0  0  0  0  0  0  0  0  0  0
    2.5360   -0.3181   -0.4711 C   0  0  2  0  0  0  0  0  0  0  0  0
    2.9588    1.0490   -0.0753 C   0  0  0  0  0  0  0  0  0  0  0  0
    1.2756   -0.9225    0.1103 C   0  0  0  0  0  0  0  0  0  0  0  0
   -2.0974    0.0840    0.0323 C   0  0  0  0  0  0  0  0  0  0  0  0
   -2.2016    0.1605   -1.4902 C   0  0  0  0  0  0  0  0  0  0  0  0
   -3.3510   -0.5556    0.6252 C   0  0  0  0  0  0  0  0  0  0  0  0
   -1.8660    1.4699    0.6328 C   0  0  0  0  0  0  0  0  0  0  0  0
    2.7912   -0.6819   -1.4557 H   0  0  0  0  0  0  0  0  0  0  0  0
    3.5486    1.6260   -0.7756 H   0  0  0  0  0  0  0  0  0  0  0  0
    2.3152    1.6367    0.5663 H   0  0  0  0  0  0  0  0  0  0  0  0
    1.3474   -1.0023    1.2013 H   0  0  0  0  0  0  0  0  0  0  0  0
    1.1258   -1.9241   -0.3071 H   0  0  0  0  0  0  0  0  0  0  0  0
   -2.2262   -0.8435   -1.9294 H   0  0  0  0  0  0  0  0  0  0  0  0
   -3.1087    0.6925   -1.7973 H   0  0  0  0  0  0  0  0  0  0  0  0
   -1.3503    0.6802   -1.9434 H   0  0  0  0  0  0  0  0  0  0  0  0
   -3.2596   -0.6560    1.7128 H   0  0  0  0  0  0  0  0  0  0  0  0
   -3.4941   -1.5688    0.2322 H   0  0  0  0  0  0  0  0  0  0  0  0
   -4.2486    0.0314    0.4055 H   0  0  0  0  0  0  0  0  0  0  0  0
   -1.0118    1.9854    0.1802 H   0  0  0  0  0  0  0  0  0  0  0  0
   -2.7437    2.1111    0.4960 H   0  0  0  0  0  0  0  0  0  0  0  0
   -1.6558    1.3985    1.7062 H   0  0  0  0  0  0  0  0  0  0  0  0
  1  4  1  0  0  0  0
  1  5  1  0  0  0  0
  2  3  1  0  0  0  0
  2  6  1  0  0  0  0
  3  7  1  0  0  0  0
  4  5  1  0  0  0  0
  4  6  1  0  0  0  0
  4 11  1  0  0  0  0
  5 12  1  0  0  0  0
  5 13  1  0  0  0  0
  6 14  1  0  0  0  0
  6 15  1  0  0  0  0
  7  8  1  0  0  0  0
  7  9  1  0  0  0  0
  7 10  1  0  0  0  0
  8 16  1  0  0  0  0
  8 17  1  0  0  0  0
  8 18  1  0  0  0  0
  9 19  1  0  0  0  0
  9 20  1  0  0  0  0
  9 21  1  0  0  0  0
 10 22  1  0  0  0  0
 10 23  1  0  0  0  0
 10 24  1  0  0  0  0
M  END
> <PUBCHEM_COMPOUND_CID>
141784

> <PUBCHEM_CONFORMER_RMSD>
0.6

> <PUBCHEM_CONFORMER_DIVERSEORDER>
2
23
4
20
7
22
1
3
24
19
8
6
13
15
17
21
18
16
14
5
12
9
10
11

> <PUBCHEM_MMFF94_PARTIAL_CHARGES>
10
1 -0.3
11 0.1
12 0.1
13 0.1
2 -0.28
3 -0.28
4 -0.05
5 -0.05
6 0.38
7 0.28

> <PUBCHEM_EFFECTIVE_ROTOR_COUNT>
4.6

> <PUBCHEM_PHARMACOPHORE_FEATURES>
2
1 1 acceptor
4 7 8 9 10 hydrophobe

> <PUBCHEM_HEAVY_ATOM_COUNT>
10

> <PUBCHEM_ATOM_DEF_STEREO_COUNT>
0

> <PUBCHEM_ATOM_UDEF_STEREO_COUNT>
1

> <PUBCHEM_BOND_DEF_STEREO_COUNT>
0

> <PUBCHEM_BOND_UDEF_STEREO_COUNT>
0

> <PUBCHEM_ISOTOPIC_ATOM_COUNT>
0

> <PUBCHEM_COMPONENT_COUNT>
1

> <PUBCHEM_CACTVS_TAUTO_COUNT>
1

> <PUBCHEM_CONFORMER_ID>
000229D800000002

> <PUBCHEM_MMFF94_ENERGY>
18.2068

> <PUBCHEM_FEATURE_SELFOVERLAP>
10.148

> <PUBCHEM_SHAPE_FINGERPRINT>
10857977 72 17022626394156050703
11062470 55 12757147999960443779
12162725 195 18412545405553447272
12932764 1 17132110221542322250
14325111 11 18409732846082394682
14390081 3 18342739598275367752
14577589 140 10303816484033233953
15310529 11 17917714552480012895
15775835 57 17060621100811989262
21028194 46 17967814950835011378
3248919 1 18411978040289184646
369184 2 17458062655625857755
57812782 119 17167859785457153882

> <PUBCHEM_SHAPE_MULTIPOLES>
188.19
6.11
1.13
0.98
2.62
0.35
-0.33
0.32
0.47
-0.08
0.16
-0.62
0.01
-0.03

> <PUBCHEM_SHAPE_SELFOVERLAP>
352.773

> <PUBCHEM_SHAPE_VOLUME>
120.4

> <PUBCHEM_COORDINATE_TYPE>
2
5
10

$$$$
