14480
  -OEChem-11012401093D

 14 13  0     1  0  0  0  0  0999 V2000
    1.2095    1.6095   -0.0859 Cl  0  0  0  0  0  0  0  0  0  0  0  0
   -2.3681    0.0180    0.8664 Cl  0  0  0  0  0  0  0  0  0  0  0  0
   -0.2037   -0.6671   -0.6803 C   0  0  0  0  0  0  0  0  0  0  0  0
    0.8172   -0.0903    0.3123 C   0  0  1  0  0  0  0  0  0  0  0  0
   -1.5600    0.0366   -0.7176 C   0  0  0  0  0  0  0  0  0  0  0  0
    2.1052   -0.9068    0.3052 C   0  0  0  0  0  0  0  0  0  0  0  0
    0.2197   -0.6498   -1.6932 H   0  0  0  0  0  0  0  0  0  0  0  0
   -0.3698   -1.7254   -0.4391 H   0  0  0  0  0  0  0  0  0  0  0  0
    0.4142   -0.0901    1.3294 H   0  0  0  0  0  0  0  0  0  0  0  0
   -1.4681    1.0789   -1.0350 H   0  0  0  0  0  0  0  0  0  0  0  0
   -2.2224   -0.4698   -1.4265 H   0  0  0  0  0  0  0  0  0  0  0  0
    2.8289   -0.5061    1.0233 H   0  0  0  0  0  0  0  0  0  0  0  0
    2.5749   -0.9095   -0.6846 H   0  0  0  0  0  0  0  0  0  0  0  0
    1.9041   -1.9466    0.5843 H   0  0  0  0  0  0  0  0  0  0  0  0
  1  4  1  0  0  0  0
  2  5  1  0  0  0  0
  3  4  1  0  0  0  0
  3  5  1  0  0  0  0
  3  7  1  0  0  0  0
  3  8  1  0  0  0  0
  4  6  1  0  0  0  0
  4  9  1  0  0  0  0
  5 10  1  0  0  0  0
  5 11  1  0  0  0  0
  6 12  1  0  0  0  0
  6 13  1  0  0  0  0
  6 14  1  0  0  0  0
M  END
> <PUBCHEM_COMPOUND_CID>
14480

> <PUBCHEM_CONFORMER_RMSD>
0.4

> <PUBCHEM_CONFORMER_DIVERSEORDER>
2
13
9
16
10
18
11
3
15
4
5
14
6
7
12
1
8
17

> <PUBCHEM_MMFF94_PARTIAL_CHARGES>
4
1 -0.29
2 -0.29
4 0.29
5 0.29

> <PUBCHEM_EFFECTIVE_ROTOR_COUNT>
2

> <PUBCHEM_PHARMACOPHORE_FEATURES>
0

> <PUBCHEM_HEAVY_ATOM_COUNT>
6

> <PUBCHEM_ATOM_DEF_STEREO_COUNT>
0

> <PUBCHEM_ATOM_UDEF_STEREO_COUNT>
1

> <PUBCHEM_BOND_DEF_STEREO_COUNT>
0

> <PUBCHEM_BOND_UDEF_STEREO_COUNT>
0

> <PUBCHEM_ISOTOPIC_ATOM_COUNT>
0

> <PUBCHEM_COMPONENT_COUNT>
1

> <PUBCHEM_CACTVS_TAUTO_COUNT>
1

> <PUBCHEM_CONFORMER_ID>
0000389000000002

> <PUBCHEM_MMFF94_ENERGY>
2.4996

> <PUBCHEM_FEATURE_SELFOVERLAP>
0

> <PUBCHEM_SHAPE_FINGERPRINT>
12932741 1 17458333156998135071
16714656 1 18199744748334767822
20096714 4 18198902693867919508
21040471 1 16702312238799397663
24536 1 17846493781142849151
29004967 10 18261106327501397666
5084963 1 18130210623550291919

> <PUBCHEM_SHAPE_MULTIPOLES>
127.22
3.1
1.29
0.95
0.99
0.51
0
-0.22
-0.77
-0.84
0.03
0.39
-0.05
-0.15

> <PUBCHEM_SHAPE_SELFOVERLAP>
204.011

> <PUBCHEM_SHAPE_VOLUME>
89.6

> <PUBCHEM_COORDINATE_TYPE>
2
5
10

$$$$
