137161
  -OEChem-11012401083D

 82 88  0     0  0  0  0  0  0999 V2000
   -0.0108    1.1365   -0.5282 Si  0  0  0  0  0  0  0  0  0  0  0  0
   -2.1803   -1.0040    0.1649 Si  0  0  0  0  0  0  0  0  0  0  0  0
    2.1977   -0.7417    0.6408 Si  0  0  0  0  0  0  0  0  0  0  0  0
    0.0271   -2.9193    1.3578 Si  0  0  0  0  0  0  0  0  0  0  0  0
   -1.2022   -0.0055   -0.7366 O   0  0  0  0  0  0  0  0  0  0  0  0
    1.2013    0.5781    0.4646 O   0  0  0  0  0  0  0  0  0  0  0  0
   -1.3142   -1.9220    1.2436 O   0  0  0  0  0  0  0  0  0  0  0  0
    1.3503   -2.1692    0.6556 O   0  0  0  0  0  0  0  0  0  0  0  0
    0.7437    1.5953   -2.1609 C   0  0  0  0  0  0  0  0  0  0  0  0
   -0.7914    2.6595    0.1915 C   0  0  0  0  0  0  0  0  0  0  0  0
   -3.1680   -2.1200   -0.9401 C   0  0  0  0  0  0  0  0  0  0  0  0
   -3.4009    0.0657    1.0770 C   0  0  0  0  0  0  0  0  0  0  0  0
    3.1972   -0.5992    2.1975 C   0  0  0  0  0  0  0  0  0  0  0  0
    3.4114   -0.7368   -0.7707 C   0  0  0  0  0  0  0  0  0  0  0  0
   -0.3062   -4.5541    0.4886 C   0  0  0  0  0  0  0  0  0  0  0  0
    0.3810   -3.2964    3.1664 C   0  0  0  0  0  0  0  0  0  0  0  0
    0.3401    0.9796   -3.3825 C   0  0  0  0  0  0  0  0  0  0  0  0
   -0.3867    3.1970    1.4492 C   0  0  0  0  0  0  0  0  0  0  0  0
    1.7639    2.5857   -2.2735 C   0  0  0  0  0  0  0  0  0  0  0  0
   -1.8338    3.3663   -0.4781 C   0  0  0  0  0  0  0  0  0  0  0  0
   -3.6310   -3.3974   -0.5079 C   0  0  0  0  0  0  0  0  0  0  0  0
   -3.4945    0.0642    2.4998 C   0  0  0  0  0  0  0  0  0  0  0  0
    3.0320    0.4863    3.1071 C   0  0  0  0  0  0  0  0  0  0  0  0
    3.5151   -1.8264   -1.6847 C   0  0  0  0  0  0  0  0  0  0  0  0
   -3.5115   -1.7542   -2.2748 C   0  0  0  0  0  0  0  0  0  0  0  0
   -4.3009    0.9376    0.3966 C   0  0  0  0  0  0  0  0  0  0  0  0
    4.1788   -1.5682    2.5591 C   0  0  0  0  0  0  0  0  0  0  0  0
    4.2960    0.3568   -1.0058 C   0  0  0  0  0  0  0  0  0  0  0  0
    0.9071    1.3241   -4.6096 C   0  0  0  0  0  0  0  0  0  0  0  0
   -0.9733    4.3412    1.9900 C   0  0  0  0  0  0  0  0  0  0  0  0
    2.3309    2.9302   -3.5005 C   0  0  0  0  0  0  0  0  0  0  0  0
   -2.4203    4.5105    0.0628 C   0  0  0  0  0  0  0  0  0  0  0  0
   -4.3734   -4.2367   -1.3386 C   0  0  0  0  0  0  0  0  0  0  0  0
   -4.4092    0.8654    3.1833 C   0  0  0  0  0  0  0  0  0  0  0  0
    3.7834    0.5936    4.2774 C   0  0  0  0  0  0  0  0  0  0  0  0
    4.4247   -1.8230   -2.7422 C   0  0  0  0  0  0  0  0  0  0  0  0
   -4.2538   -2.5934   -3.1056 C   0  0  0  0  0  0  0  0  0  0  0  0
   -5.2156    1.7389    1.0801 C   0  0  0  0  0  0  0  0  0  0  0  0
    4.9302   -1.4609    3.7294 C   0  0  0  0  0  0  0  0  0  0  0  0
    5.2056    0.3603   -2.0633 C   0  0  0  0  0  0  0  0  0  0  0  0
    1.9027    2.2994   -4.6685 C   0  0  0  0  0  0  0  0  0  0  0  0
   -1.9901    4.9979    1.2969 C   0  0  0  0  0  0  0  0  0  0  0  0
   -4.6847   -3.8347   -2.6375 C   0  0  0  0  0  0  0  0  0  0  0  0
   -5.2697    1.7027    2.4734 C   0  0  0  0  0  0  0  0  0  0  0  0
    4.7326   -0.3799    4.5884 C   0  0  0  0  0  0  0  0  0  0  0  0
    5.2700   -0.7297   -2.9315 C   0  0  0  0  0  0  0  0  0  0  0  0
    0.5636   -5.2128    0.5693 H   0  0  0  0  0  0  0  0  0  0  0  0
   -1.1642   -5.0628    0.9373 H   0  0  0  0  0  0  0  0  0  0  0  0
   -0.5141   -4.3917   -0.5729 H   0  0  0  0  0  0  0  0  0  0  0  0
   -0.4684   -3.8116    3.6243 H   0  0  0  0  0  0  0  0  0  0  0  0
    1.2642   -3.9351    3.2604 H   0  0  0  0  0  0  0  0  0  0  0  0
    0.5631   -2.3726    3.7232 H   0  0  0  0  0  0  0  0  0  0  0  0
   -0.4336    0.2131   -3.3766 H   0  0  0  0  0  0  0  0  0  0  0  0
    0.4027    2.7119    2.0205 H   0  0  0  0  0  0  0  0  0  0  0  0
    2.1231    3.0971   -1.3812 H   0  0  0  0  0  0  0  0  0  0  0  0
   -2.1948    3.0125   -1.4433 H   0  0  0  0  0  0  0  0  0  0  0  0
   -3.4172   -3.7411    0.5030 H   0  0  0  0  0  0  0  0  0  0  0  0
   -2.8385   -0.5754    3.0886 H   0  0  0  0  0  0  0  0  0  0  0  0
    2.3010    1.2657    2.8991 H   0  0  0  0  0  0  0  0  0  0  0  0
    2.8713   -2.6973   -1.5699 H   0  0  0  0  0  0  0  0  0  0  0  0
   -3.1924   -0.7918   -2.6734 H   0  0  0  0  0  0  0  0  0  0  0  0
   -4.2850    0.9938   -0.6910 H   0  0  0  0  0  0  0  0  0  0  0  0
    4.3576   -2.4262    1.9121 H   0  0  0  0  0  0  0  0  0  0  0  0
    4.2718    1.2245   -0.3477 H   0  0  0  0  0  0  0  0  0  0  0  0
    0.5743    0.8326   -5.5191 H   0  0  0  0  0  0  0  0  0  0  0  0
   -0.6391    4.7204    2.9513 H   0  0  0  0  0  0  0  0  0  0  0  0
    3.1070    3.6885   -3.5464 H   0  0  0  0  0  0  0  0  0  0  0  0
   -3.2130    5.0210   -0.4761 H   0  0  0  0  0  0  0  0  0  0  0  0
   -4.7111   -5.2023   -0.9736 H   0  0  0  0  0  0  0  0  0  0  0  0
   -4.4510    0.8382    4.2682 H   0  0  0  0  0  0  0  0  0  0  0  0
    3.6296    1.4351    4.9466 H   0  0  0  0  0  0  0  0  0  0  0  0
    4.4746   -2.6710   -3.4188 H   0  0  0  0  0  0  0  0  0  0  0  0
   -4.4967   -2.2805   -4.1168 H   0  0  0  0  0  0  0  0  0  0  0  0
   -5.8843    2.3923    0.5276 H   0  0  0  0  0  0  0  0  0  0  0  0
    5.6689   -2.2191    3.9722 H   0  0  0  0  0  0  0  0  0  0  0  0
    5.8627    1.2121   -2.2118 H   0  0  0  0  0  0  0  0  0  0  0  0
    2.3449    2.5669   -5.6236 H   0  0  0  0  0  0  0  0  0  0  0  0
   -2.4475    5.8881    1.7184 H   0  0  0  0  0  0  0  0  0  0  0  0
   -5.2632   -4.4879   -3.2842 H   0  0  0  0  0  0  0  0  0  0  0  0
   -5.9812    2.3274    3.0055 H   0  0  0  0  0  0  0  0  0  0  0  0
    5.3175   -0.2964    5.4997 H   0  0  0  0  0  0  0  0  0  0  0  0
    5.9776   -0.7265   -3.7555 H   0  0  0  0  0  0  0  0  0  0  0  0
  1  5  1  0  0  0  0
  1  6  1  0  0  0  0
  1  9  1  0  0  0  0
  1 10  1  0  0  0  0
  2  5  1  0  0  0  0
  2  7  1  0  0  0  0
  2 11  1  0  0  0  0
  2 12  1  0  0  0  0
  3  6  1  0  0  0  0
  3  8  1  0  0  0  0
  3 13  1  0  0  0  0
  3 14  1  0  0  0  0
  4  7  1  0  0  0  0
  4  8  1  0  0  0  0
  4 15  1  0  0  0  0
  4 16  1  0  0  0  0
  9 17  2  0  0  0  0
  9 19  1  0  0  0  0
 10 18  2  0  0  0  0
 10 20  1  0  0  0  0
 11 21  2  0  0  0  0
 11 25  1  0  0  0  0
 12 22  2  0  0  0  0
 12 26  1  0  0  0  0
 13 23  2  0  0  0  0
 13 27  1  0  0  0  0
 14 24  2  0  0  0  0
 14 28  1  0  0  0  0
 15 47  1  0  0  0  0
 15 48  1  0  0  0  0
 15 49  1  0  0  0  0
 16 50  1  0  0  0  0
 16 51  1  0  0  0  0
 16 52  1  0  0  0  0
 17 29  1  0  0  0  0
 17 53  1  0  0  0  0
 18 30  1  0  0  0  0
 18 54  1  0  0  0  0
 19 31  2  0  0  0  0
 19 55  1  0  0  0  0
 20 32  2  0  0  0  0
 20 56  1  0  0  0  0
 21 33  1  0  0  0  0
 21 57  1  0  0  0  0
 22 34  1  0  0  0  0
 22 58  1  0  0  0  0
 23 35  1  0  0  0  0
 23 59  1  0  0  0  0
 24 36  1  0  0  0  0
 24 60  1  0  0  0  0
 25 37  2  0  0  0  0
 25 61  1  0  0  0  0
 26 38  2  0  0  0  0
 26 62  1  0  0  0  0
 27 39  2  0  0  0  0
 27 63  1  0  0  0  0
 28 40  2  0  0  0  0
 28 64  1  0  0  0  0
 29 41  2  0  0  0  0
 29 65  1  0  0  0  0
 30 42  2  0  0  0  0
 30 66  1  0  0  0  0
 31 41  1  0  0  0  0
 31 67  1  0  0  0  0
 32 42  1  0  0  0  0
 32 68  1  0  0  0  0
 33 43  2  0  0  0  0
 33 69  1  0  0  0  0
 34 44  2  0  0  0  0
 34 70  1  0  0  0  0
 35 45  2  0  0  0  0
 35 71  1  0  0  0  0
 36 46  2  0  0  0  0
 36 72  1  0  0  0  0
 37 43  1  0  0  0  0
 37 73  1  0  0  0  0
 38 44  1  0  0  0  0
 38 74  1  0  0  0  0
 39 45  1  0  0  0  0
 39 75  1  0  0  0  0
 40 46  1  0  0  0  0
 40 76  1  0  0  0  0
 41 77  1  0  0  0  0
 42 78  1  0  0  0  0
 43 79  1  0  0  0  0
 44 80  1  0  0  0  0
 45 81  1  0  0  0  0
 46 82  1  0  0  0  0
M  END
> <PUBCHEM_COMPOUND_CID>
137161

> <PUBCHEM_CONFORMER_RMSD>
1

> <PUBCHEM_CONFORMER_DIVERSEORDER>
3
1
8
5
6
7
4
9
2

> <PUBCHEM_MMFF94_PARTIAL_CHARGES>
76
1 1.04
10 -0.22
11 -0.22
12 -0.22
13 -0.22
14 -0.22
15 -0.08
16 -0.08
17 -0.15
18 -0.15
19 -0.15
2 1.04
20 -0.15
21 -0.15
22 -0.15
23 -0.15
24 -0.15
25 -0.15
26 -0.15
27 -0.15
28 -0.15
29 -0.15
3 1.04
30 -0.15
31 -0.15
32 -0.15
33 -0.15
34 -0.15
35 -0.15
36 -0.15
37 -0.15
38 -0.15
39 -0.15
4 0.76
40 -0.15
41 -0.15
42 -0.15
43 -0.15
44 -0.15
45 -0.15
46 -0.15
5 -0.59
53 0.15
54 0.15
55 0.15
56 0.15
57 0.15
58 0.15
59 0.15
6 -0.59
60 0.15
61 0.15
62 0.15
63 0.15
64 0.15
65 0.15
66 0.15
67 0.15
68 0.15
69 0.15
7 -0.59
70 0.15
71 0.15
72 0.15
73 0.15
74 0.15
75 0.15
76 0.15
77 0.15
78 0.15
79 0.15
8 -0.59
80 0.15
81 0.15
82 0.15
9 -0.22

> <PUBCHEM_EFFECTIVE_ROTOR_COUNT>
7.6

> <PUBCHEM_PHARMACOPHORE_FEATURES>
6
6 10 18 20 30 32 42 rings
6 11 21 25 33 37 43 rings
6 12 22 26 34 38 44 rings
6 13 23 27 35 39 45 rings
6 14 24 28 36 40 46 rings
6 9 17 19 29 31 41 rings

> <PUBCHEM_HEAVY_ATOM_COUNT>
46

> <PUBCHEM_ATOM_DEF_STEREO_COUNT>
0

> <PUBCHEM_ATOM_UDEF_STEREO_COUNT>
0

> <PUBCHEM_BOND_DEF_STEREO_COUNT>
0

> <PUBCHEM_BOND_UDEF_STEREO_COUNT>
0

> <PUBCHEM_ISOTOPIC_ATOM_COUNT>
0

> <PUBCHEM_COMPONENT_COUNT>
1

> <PUBCHEM_CACTVS_TAUTO_COUNT>
1

> <PUBCHEM_CONFORMER_ID>
000217C900000003

> <PUBCHEM_MMFF94_ENERGY>
88.3671

> <PUBCHEM_FEATURE_SELFOVERLAP>
30.452

> <PUBCHEM_SHAPE_FINGERPRINT>
11377469 6 17968679132388274220
12633046 712 16916796132646112654
12788726 201 18337123280006647776
133893 2 17677326268221001271
13636023 20 17462839105687709334
13636023 51 16845566526202823106
14068700 675 16663978831492495186
15361156 5 18124628424907557476
19319366 153 18116460135924002451
20764821 26 18336546109685359337
21033648 29 17985262967654693969
3380486 77 17751053972966254386
469060 322 17752451366097671362

> <PUBCHEM_SHAPE_MULTIPOLES>
996.03
10.53
6.01
5.8
0.51
2.16
0.1
-4.81
0.19
-0.91
-0.38
0.63
0.7
-8.62

> <PUBCHEM_SHAPE_SELFOVERLAP>
2107.006

> <PUBCHEM_SHAPE_VOLUME>
552.9

> <PUBCHEM_COORDINATE_TYPE>
2
5
10

$$$$
