143874
  -OEChem-11012401213D

 23 22  0     1  0  0  0  0  0999 V2000
   -3.1025    1.1331    0.2836 Cl  0  0  0  0  0  0  0  0  0  0  0  0
    0.6311   -0.0417    0.4178 O   0  0  0  0  0  0  0  0  0  0  0  0
   -0.4656    1.5349   -0.8541 O   0  0  0  0  0  0  0  0  0  0  0  0
   -1.6937    0.1260    0.7155 C   0  0  1  0  0  0  0  0  0  0  0  0
   -1.9585   -1.3568    0.4409 C   0  0  0  0  0  0  0  0  0  0  0  0
    2.9863   -0.5129    0.4034 C   0  0  0  0  0  0  0  0  0  0  0  0
    1.8724    0.3403   -0.1836 C   0  0  0  0  0  0  0  0  0  0  0  0
   -0.4704    0.6445   -0.0144 C   0  0  0  0  0  0  0  0  0  0  0  0
   -2.1399   -1.7153   -1.0299 C   0  0  0  0  0  0  0  0  0  0  0  0
    4.3409   -0.1521   -0.1792 C   0  0  0  0  0  0  0  0  0  0  0  0
   -1.5349    0.2848    1.7876 H   0  0  0  0  0  0  0  0  0  0  0  0
   -2.8501   -1.6759    0.9949 H   0  0  0  0  0  0  0  0  0  0  0  0
   -1.1254   -1.9523    0.8345 H   0  0  0  0  0  0  0  0  0  0  0  0
    3.0060   -0.3929    1.4933 H   0  0  0  0  0  0  0  0  0  0  0  0
    2.7722   -1.5729    0.2213 H   0  0  0  0  0  0  0  0  0  0  0  0
    2.0614    1.4005    0.0214 H   0  0  0  0  0  0  0  0  0  0  0  0
    1.8113    0.1868   -1.2674 H   0  0  0  0  0  0  0  0  0  0  0  0
   -2.3136   -2.7916   -1.1312 H   0  0  0  0  0  0  0  0  0  0  0  0
   -2.9984   -1.1990   -1.4691 H   0  0  0  0  0  0  0  0  0  0  0  0
   -1.2497   -1.4667   -1.6156 H   0  0  0  0  0  0  0  0  0  0  0  0
    4.5907    0.8937    0.0268 H   0  0  0  0  0  0  0  0  0  0  0  0
    5.1222   -0.7805    0.2596 H   0  0  0  0  0  0  0  0  0  0  0  0
    4.3539   -0.3015   -1.2635 H   0  0  0  0  0  0  0  0  0  0  0  0
  1  4  1  0  0  0  0
  2  7  1  0  0  0  0
  2  8  1  0  0  0  0
  3  8  2  0  0  0  0
  4  5  1  0  0  0  0
  4  8  1  0  0  0  0
  4 11  1  0  0  0  0
  5  9  1  0  0  0  0
  5 12  1  0  0  0  0
  5 13  1  0  0  0  0
  6  7  1  0  0  0  0
  6 10  1  0  0  0  0
  6 14  1  0  0  0  0
  6 15  1  0  0  0  0
  7 16  1  0  0  0  0
  7 17  1  0  0  0  0
  9 18  1  0  0  0  0
  9 19  1  0  0  0  0
  9 20  1  0  0  0  0
 10 21  1  0  0  0  0
 10 22  1  0  0  0  0
 10 23  1  0  0  0  0
M  END
> <PUBCHEM_COMPOUND_CID>
143874

> <PUBCHEM_CONFORMER_RMSD>
0.6

> <PUBCHEM_CONFORMER_DIVERSEORDER>
1
181
10
234
106
252
246
13
175
204
46
247
55
239
189
165
199
4
139
176
90
15
211
163
231
22
60
235
160
35
123
81
18
144
88
158
249
149
208
185
243
183
194
179
103
202
151
223
66
251
34
206
125
102
145
195
5
182
80
200
79
59
115
7
121
43
23
228
97
250
205
49
9
170
118
38
32
85
188
220
214
147
114
111
61
230
92
150
74
186
91
245
143
192
47
167
135
78
227
95
112
72
198
73
113
122
190
166
3
232
109
172
184
138
126
236
104
137
82
50
26
2
203
197
173
45
222
169
217
130
248
240
101
44
187
14
41
209
213
153
140
207
161
77
39
215
254
24
129
157
67
134
244
154
75
64
226
253
146
108
229
133
216
8
242
159
16
20
51
241
105
142
196
141
28
180
87
155
225
116
58
168
71
30
54
124
221
136
98
21
63
131
212
164
76
99
174
70
69
132
42
193
178
162
89
148
107
219
29
11
238
94
127
57
25
100
27
33
96
65
31
218
53
119
56
210
224
177
255
12
17
62
93
84
152
36
237
191
120
201
171
128
233
6
156
48
68
37
83
19
52
40
110
86
117

> <PUBCHEM_MMFF94_PARTIAL_CHARGES>
6
1 -0.29
2 -0.43
3 -0.57
4 0.35
7 0.28
8 0.66

> <PUBCHEM_EFFECTIVE_ROTOR_COUNT>
5

> <PUBCHEM_PHARMACOPHORE_FEATURES>
3
1 10 hydrophobe
1 3 acceptor
1 9 hydrophobe

> <PUBCHEM_HEAVY_ATOM_COUNT>
10

> <PUBCHEM_ATOM_DEF_STEREO_COUNT>
0

> <PUBCHEM_ATOM_UDEF_STEREO_COUNT>
1

> <PUBCHEM_BOND_DEF_STEREO_COUNT>
0

> <PUBCHEM_BOND_UDEF_STEREO_COUNT>
0

> <PUBCHEM_ISOTOPIC_ATOM_COUNT>
0

> <PUBCHEM_COMPONENT_COUNT>
1

> <PUBCHEM_CACTVS_TAUTO_COUNT>
1

> <PUBCHEM_CONFORMER_ID>
0002320200000001

> <PUBCHEM_MMFF94_ENERGY>
4.7708

> <PUBCHEM_FEATURE_SELFOVERLAP>
15.223

> <PUBCHEM_SHAPE_FINGERPRINT>
12932764 1 18260540100730574624
13024252 1 16153710903673065649
14325111 11 18411420618248635344
14390081 3 8430316822923130058
14577589 140 18342181059295680791
20211469 26 17989199390911570278
20279233 1 17489311862903979318
20645464 45 17489317368746058471
20653085 51 11747479593272380558
20871998 184 18342464742006952935
22485316 2 18343300354017543442
23402539 116 17703785891353609849
23552423 10 18042408095784979488
3248919 1 16845585218121963520
366044 4 18270963441113293825
75552 356 18342740736309936239

> <PUBCHEM_SHAPE_MULTIPOLES>
195.93
6.24
1.52
0.89
6.87
0.36
0.08
0.48
-0.15
-1.52
0.34
-0.29
0.09
-0.34

> <PUBCHEM_SHAPE_SELFOVERLAP>
350.939

> <PUBCHEM_SHAPE_VOLUME>
127.7

> <PUBCHEM_COORDINATE_TYPE>
2
5
10

$$$$
