7109
  -OEChem-11012400363D

 22 24  0     0  0  0  0  0  0999 V2000
    0.0000   -1.6780   -0.8488 S   0  0  0  0  0  0  0  0  0  0  0  0
    0.0001    1.6780   -0.8485 S   0  0  0  0  0  0  0  0  0  0  0  0
   -1.3865    0.7018   -0.2894 C   0  0  0  0  0  0  0  0  0  0  0  0
   -1.3864   -0.7018   -0.2893 C   0  0  0  0  0  0  0  0  0  0  0  0
    1.3865    0.7018   -0.2894 C   0  0  0  0  0  0  0  0  0  0  0  0
    1.3864   -0.7018   -0.2894 C   0  0  0  0  0  0  0  0  0  0  0  0
   -2.5312    1.3906    0.1406 C   0  0  0  0  0  0  0  0  0  0  0  0
    2.5311    1.3906    0.1409 C   0  0  0  0  0  0  0  0  0  0  0  0
   -2.5311   -1.3906    0.1409 C   0  0  0  0  0  0  0  0  0  0  0  0
    2.5312   -1.3906    0.1408 C   0  0  0  0  0  0  0  0  0  0  0  0
   -3.6602    0.6951    0.5728 C   0  0  0  0  0  0  0  0  0  0  0  0
    3.6601   -0.6951    0.5728 C   0  0  0  0  0  0  0  0  0  0  0  0
   -3.6600   -0.6952    0.5731 C   0  0  0  0  0  0  0  0  0  0  0  0
    3.6601    0.6951    0.5729 C   0  0  0  0  0  0  0  0  0  0  0  0
   -2.5590    2.4783    0.1451 H   0  0  0  0  0  0  0  0  0  0  0  0
    2.5588    2.4784    0.1457 H   0  0  0  0  0  0  0  0  0  0  0  0
   -2.5588   -2.4783    0.1457 H   0  0  0  0  0  0  0  0  0  0  0  0
    2.5589   -2.4783    0.1454 H   0  0  0  0  0  0  0  0  0  0  0  0
   -4.5390    1.2394    0.9056 H   0  0  0  0  0  0  0  0  0  0  0  0
    4.5390   -1.2394    0.9056 H   0  0  0  0  0  0  0  0  0  0  0  0
    4.5389    1.2394    0.9059 H   0  0  0  0  0  0  0  0  0  0  0  0
   -4.5388   -1.2395    0.9061 H   0  0  0  0  0  0  0  0  0  0  0  0
  1  4  1  0  0  0  0
  1  6  1  0  0  0  0
  2  3  1  0  0  0  0
  2  5  1  0  0  0  0
  3  4  1  0  0  0  0
  3  7  2  0  0  0  0
  4  9  2  0  0  0  0
  5  6  1  0  0  0  0
  5  8  2  0  0  0  0
  6 10  2  0  0  0  0
  7 11  1  0  0  0  0
  7 15  1  0  0  0  0
  8 14  1  0  0  0  0
  8 16  1  0  0  0  0
  9 13  1  0  0  0  0
  9 17  1  0  0  0  0
 10 12  1  0  0  0  0
 10 18  1  0  0  0  0
 11 13  2  0  0  0  0
 11 19  1  0  0  0  0
 12 14  2  0  0  0  0
 12 20  1  0  0  0  0
 13 22  1  0  0  0  0
 14 21  1  0  0  0  0
M  END
> <PUBCHEM_COMPOUND_CID>
7109

> <PUBCHEM_CONFORMER_RMSD>
0.4

> <PUBCHEM_CONFORMER_DIVERSEORDER>
1

> <PUBCHEM_MMFF94_PARTIAL_CHARGES>
22
1 -0.2
10 -0.15
11 -0.15
12 -0.15
13 -0.15
14 -0.15
15 0.15
16 0.15
17 0.15
18 0.15
19 0.15
2 -0.2
20 0.15
21 0.15
22 0.15
3 0.1
4 0.1
5 0.1
6 0.1
7 -0.15
8 -0.15
9 -0.15

> <PUBCHEM_EFFECTIVE_ROTOR_COUNT>
0.4

> <PUBCHEM_PHARMACOPHORE_FEATURES>
3
6 1 2 3 4 5 6 rings
6 3 4 7 9 11 13 rings
6 5 6 8 10 12 14 rings

> <PUBCHEM_HEAVY_ATOM_COUNT>
14

> <PUBCHEM_ATOM_DEF_STEREO_COUNT>
0

> <PUBCHEM_ATOM_UDEF_STEREO_COUNT>
0

> <PUBCHEM_BOND_DEF_STEREO_COUNT>
0

> <PUBCHEM_BOND_UDEF_STEREO_COUNT>
0

> <PUBCHEM_ISOTOPIC_ATOM_COUNT>
0

> <PUBCHEM_COMPONENT_COUNT>
1

> <PUBCHEM_CACTVS_TAUTO_COUNT>
1

> <PUBCHEM_CONFORMER_ID>
00001BC500000001

> <PUBCHEM_MMFF94_ENERGY>
39.2054

> <PUBCHEM_FEATURE_SELFOVERLAP>
15.247

> <PUBCHEM_SHAPE_FINGERPRINT>
10608611 8 18340204098634111013
10799339 124 18410855455833194803
10980938 120 18413109472187679574
11132069 177 18411133627995885289
11471102 22 18335430079270360914
12251169 10 18410573985151451147
12382932 28 18413109441896204665
12696612 119 18335989743478842300
13296908 3 17967809431601556484
13581323 91 18335139795210198405
13693222 15 18335424573248835913
14144814 61 18410855468718096433
15196674 1 18410575084663078960
15219456 202 18342177717636992871
15309172 13 18273493468185961383
15375462 189 17968371252374237754
15375462 478 18411982498597067935
15536298 74 18343304760279403750
15653759 3 18113900429166381976
15775835 57 18202004368972571714
16945 1 18410573985151451428
17804303 29 18339368452748838694
17834069 15 18409728439271823725
17844478 74 18114177510623826500
18186145 218 17489598848059992894
19422 9 18187368748289097488
19862831 5 9295294940744675016
200 152 18201424914140333759
20361792 2 16153428358922379559
20528008 55 18412538808473014149
20559304 39 18262527008030246620
21267235 1 18409176518778932058
21501502 16 18410856602589462589
21501925 9 18334295400640197647
22445834 79 18334572434346664634
22959321 45 18409168835393286220
23388829 49 18052531359698302527
23402539 116 18341323458117924615
23463225 33 18407761447324306596
25 1 10951780676303222213
2748010 2 17906452125769007669
5104073 3 18410575088958047216
5262128 65 11531036310176781570
69090 78 18342451535167023655
7364860 26 18129386994778389574
84936 31 16414076261862997070
8809292 202 18261115127905386842
90316 7 17895752894194597117

> <PUBCHEM_SHAPE_MULTIPOLES>
295.81
6.67
1.9
0.87
0
0
0.07
0
-2.36
0
0.26
0
0
0

> <PUBCHEM_SHAPE_SELFOVERLAP>
624.63

> <PUBCHEM_SHAPE_VOLUME>
163.8

> <PUBCHEM_COORDINATE_TYPE>
2
5
10

$$$$
