5462980
  -OEChem-11012401043D

 27 26  0     0  0  0  0  0  0999 V2000
    0.6432   -0.4285    0.1244 O   0  0  0  0  0  0  0  0  0  0  0  0
   -0.7479    1.4110    0.1560 O   0  0  0  0  0  0  0  0  0  0  0  0
    3.0395   -0.4195   -0.0510 C   0  0  0  0  0  0  0  0  0  0  0  0
    4.2966    0.4388   -0.1593 C   0  0  0  0  0  0  0  0  0  0  0  0
    1.7801    0.4332    0.0086 C   0  0  0  0  0  0  0  0  0  0  0  0
    5.5545   -0.4149   -0.1749 C   0  0  0  0  0  0  0  0  0  0  0  0
   -1.6537   -0.8494    0.2968 C   0  0  0  0  0  0  0  0  0  0  0  0
   -0.5688    0.2011    0.1889 C   0  0  0  0  0  0  0  0  0  0  0  0
   -3.0005   -0.2050    0.4129 C   0  0  0  0  0  0  0  0  0  0  0  0
   -3.9995   -0.4027   -0.4597 C   0  0  0  0  0  0  0  0  0  0  0  0
   -5.3436    0.2361   -0.3426 C   0  0  0  0  0  0  0  0  0  0  0  0
    2.9740   -1.1078   -0.9029 H   0  0  0  0  0  0  0  0  0  0  0  0
    3.0887   -1.0539    0.8430 H   0  0  0  0  0  0  0  0  0  0  0  0
    4.3472    1.1346    0.6863 H   0  0  0  0  0  0  0  0  0  0  0  0
    4.2580    1.0419   -1.0739 H   0  0  0  0  0  0  0  0  0  0  0  0
    1.8169    1.1002    0.8779 H   0  0  0  0  0  0  0  0  0  0  0  0
    1.6878    1.0333   -0.9042 H   0  0  0  0  0  0  0  0  0  0  0  0
    5.6399   -1.0049    0.7433 H   0  0  0  0  0  0  0  0  0  0  0  0
    5.5511   -1.1027   -1.0265 H   0  0  0  0  0  0  0  0  0  0  0  0
    6.4426    0.2199   -0.2546 H   0  0  0  0  0  0  0  0  0  0  0  0
   -1.5969   -1.4972   -0.5847 H   0  0  0  0  0  0  0  0  0  0  0  0
   -1.4705   -1.4494    1.1946 H   0  0  0  0  0  0  0  0  0  0  0  0
   -3.1647    0.4431    1.2708 H   0  0  0  0  0  0  0  0  0  0  0  0
   -3.8453   -1.0572   -1.3135 H   0  0  0  0  0  0  0  0  0  0  0  0
   -6.1170   -0.5345   -0.2686 H   0  0  0  0  0  0  0  0  0  0  0  0
   -5.5462    0.8426   -1.2306 H   0  0  0  0  0  0  0  0  0  0  0  0
   -5.4211    0.8829    0.5370 H   0  0  0  0  0  0  0  0  0  0  0  0
  1  5  1  0  0  0  0
  1  8  1  0  0  0  0
  2  8  2  0  0  0  0
  3  4  1  0  0  0  0
  3  5  1  0  0  0  0
  3 12  1  0  0  0  0
  3 13  1  0  0  0  0
  4  6  1  0  0  0  0
  4 14  1  0  0  0  0
  4 15  1  0  0  0  0
  5 16  1  0  0  0  0
  5 17  1  0  0  0  0
  6 18  1  0  0  0  0
  6 19  1  0  0  0  0
  6 20  1  0  0  0  0
  7  8  1  0  0  0  0
  7  9  1  0  0  0  0
  7 21  1  0  0  0  0
  7 22  1  0  0  0  0
  9 10  2  0  0  0  0
  9 23  1  0  0  0  0
 10 11  1  0  0  0  0
 10 24  1  0  0  0  0
 11 25  1  0  0  0  0
 11 26  1  0  0  0  0
 11 27  1  0  0  0  0
M  END
> <PUBCHEM_COMPOUND_CID>
5462980

> <PUBCHEM_CONFORMER_RMSD>
0.6

> <PUBCHEM_CONFORMER_DIVERSEORDER>
1
114
310
212
386
49
150
346
330
5
387
214
195
241
13
373
359
84
131
284
151
382
397
324
306
129
325
7
220
12
281
393
3
211
294
263
396
187
360
24
400
67
301
348
245
92
283
388
354
46
138
183
234
351
36
314
238
362
394
140
335
291
198
243
271
33
253
174
378
274
273
204
189
112
105
167
38
206
56
160
62
103
371
261
186
369
225
158
108
209
279
201
405
352
293
15
54
302
385
258
343
254
356
23
222
164
192
207
350
90
357
355
368
196
341
190
303
249
235
8
278
148
383
17
100
14
136
109
299
377
401
170
319
267
102
255
398
406
53
93
313
237
95
119
296
101
307
118
224
233
51
185
227
97
367
361
149
44
308
52
60
4
21
178
300
181
292
25
285
262
31
317
251
191
86
152
242
133
88
69
39
257
372
19
89
134
193
328
250
290
98
277
80
115
376
229
318
231
28
43
72
16
221
197
266
171
268
2
327
146
286
128
176
338
91
363
260
399
239
157
162
165
331
85
166
339
333
110
232
309
125
380
143
270
347
240
340
216
344
135
226
173
246
265
322
199
10
205
116
219
94
287
297
124
391
132
403
58
409
117
200
305
47
79
32
358
272
210
217
175
407
353
40
264
244
82
177
50
252
410
139
142
203
321
156
390
127
276
20
70
34
106
64
68
45
379
37
381
75
247
57
96
208
342
275
289
66
78
402
83
389
42
329
41
366
55
130
282
315
248
365
280
29
337
404
188
269
107
121
323
147
26
334
159
213
395
223
71
99
6
141
375
77
320
218
155
304
59
180
392
76
111
122
61
236
345
182
194
154
228
384
22
153
364
126
295
11
169
168
374
256
123
161
144
349
104
18
65
332
9
259
408
113
30
230
202
172
27
336
370
81
87
163
312
73
184
311
120
74
63
137
35
288
215
179
326
48
298
316
145

> <PUBCHEM_MMFF94_PARTIAL_CHARGES>
10
1 -0.43
10 -0.29
11 0.14
2 -0.57
23 0.15
24 0.15
5 0.28
7 0.2
8 0.66
9 -0.29

> <PUBCHEM_EFFECTIVE_ROTOR_COUNT>
6

> <PUBCHEM_PHARMACOPHORE_FEATURES>
3
1 11 hydrophobe
1 2 acceptor
1 6 hydrophobe

> <PUBCHEM_HEAVY_ATOM_COUNT>
11

> <PUBCHEM_ATOM_DEF_STEREO_COUNT>
0

> <PUBCHEM_ATOM_UDEF_STEREO_COUNT>
0

> <PUBCHEM_BOND_DEF_STEREO_COUNT>
1

> <PUBCHEM_BOND_UDEF_STEREO_COUNT>
0

> <PUBCHEM_ISOTOPIC_ATOM_COUNT>
0

> <PUBCHEM_COMPONENT_COUNT>
1

> <PUBCHEM_CACTVS_TAUTO_COUNT>
1

> <PUBCHEM_CONFORMER_ID>
00535BC400000001

> <PUBCHEM_MMFF94_ENERGY>
1.3857

> <PUBCHEM_FEATURE_SELFOVERLAP>
15.223

> <PUBCHEM_SHAPE_FINGERPRINT>
11062470 55 17458344151898115307
11401426 45 18413105074062001719
12815109 37 18413951689362131678
14911166 2 18408321103354186427
15048467 5 16877939426059115613
15242439 84 18260548939519958130
17834072 33 16128369423879106288
17834072 8 18334570240193181661
17834076 25 17821728333951951535
18342897 14 11169908385901804047
187816 3 18040998444716335689
200 152 17989486311932984448
20279233 1 18272099300622339798
20645477 70 18338516327248878222
20719005 15 18343584053196404686
20767249 13 18343019999531372846
20767249 213 10231750102740203138
21119208 17 17894912940456749614
22485316 2 18272930535449345398
23218964 4 17894908516534959206
23402539 116 18272646853165140093
366044 4 18113054943696261587
42788 4 18410575093258288269
449060 50 9727633899840023242
68521 5 18410856525581439625

> <PUBCHEM_SHAPE_MULTIPOLES>
214.64
12.01
0.92
0.67
3.35
0.12
-0.01
-0.69
-1.96
-0.05
0.03
-0.18
-0.02
0.05

> <PUBCHEM_SHAPE_SELFOVERLAP>
393.059

> <PUBCHEM_SHAPE_VOLUME>
136.5

> <PUBCHEM_COORDINATE_TYPE>
2
5
10

$$$$
