137961
  -OEChem-11012400563D

 26 25  0     0  0  0  0  0  0999 V2000
   -2.5403    0.8017   -0.6812 O   0  0  0  0  0  0  0  0  0  0  0  0
    2.5629    0.6649   -0.8041 O   0  0  0  0  0  0  0  0  0  0  0  0
   -2.0163    1.9055    0.1021 O   0  0  0  0  0  0  0  0  0  0  0  0
    2.0168    1.8911   -0.2522 O   0  0  0  0  0  0  0  0  0  0  0  0
   -2.0735   -0.3736   -0.0175 C   0  0  0  0  0  0  0  0  0  0  0  0
    2.0733   -0.3712    0.0482 C   0  0  0  0  0  0  0  0  0  0  0  0
   -2.5890   -1.5772   -0.8042 C   0  0  0  0  0  0  0  0  0  0  0  0
   -2.6328   -0.3833    1.4048 C   0  0  0  0  0  0  0  0  0  0  0  0
    2.5881   -0.1194    1.4651 C   0  0  0  0  0  0  0  0  0  0  0  0
    2.6108   -1.6962   -0.4895 C   0  0  0  0  0  0  0  0  0  0  0  0
   -0.6006   -0.3715    0.0046 C   0  0  0  0  0  0  0  0  0  0  0  0
    0.6006   -0.3708    0.0238 C   0  0  0  0  0  0  0  0  0  0  0  0
   -2.2680   -2.5249   -0.3577 H   0  0  0  0  0  0  0  0  0  0  0  0
   -3.6840   -1.5705   -0.8551 H   0  0  0  0  0  0  0  0  0  0  0  0
   -2.2300   -1.5521   -1.8403 H   0  0  0  0  0  0  0  0  0  0  0  0
   -2.2169    0.4175    2.0274 H   0  0  0  0  0  0  0  0  0  0  0  0
   -3.7204   -0.2472    1.3981 H   0  0  0  0  0  0  0  0  0  0  0  0
   -2.4081   -1.3284    1.9131 H   0  0  0  0  0  0  0  0  0  0  0  0
    2.3370   -0.9517    2.1330 H   0  0  0  0  0  0  0  0  0  0  0  0
    2.1635    0.7869    1.9127 H   0  0  0  0  0  0  0  0  0  0  0  0
    3.6769    0.0071    1.4681 H   0  0  0  0  0  0  0  0  0  0  0  0
    3.7069   -1.6945   -0.5075 H   0  0  0  0  0  0  0  0  0  0  0  0
    2.2748   -2.5476    0.1125 H   0  0  0  0  0  0  0  0  0  0  0  0
    2.2838   -1.8621   -1.5232 H   0  0  0  0  0  0  0  0  0  0  0  0
   -2.8715    2.1769    0.4773 H   0  0  0  0  0  0  0  0  0  0  0  0
    1.3802    2.0501   -0.9700 H   0  0  0  0  0  0  0  0  0  0  0  0
  1  3  1  0  0  0  0
  1  5  1  0  0  0  0
  2  4  1  0  0  0  0
  2  6  1  0  0  0  0
  3 25  1  0  0  0  0
  4 26  1  0  0  0  0
  5  7  1  0  0  0  0
  5  8  1  0  0  0  0
  5 11  1  0  0  0  0
  6  9  1  0  0  0  0
  6 10  1  0  0  0  0
  6 12  1  0  0  0  0
  7 13  1  0  0  0  0
  7 14  1  0  0  0  0
  7 15  1  0  0  0  0
  8 16  1  0  0  0  0
  8 17  1  0  0  0  0
  8 18  1  0  0  0  0
  9 19  1  0  0  0  0
  9 20  1  0  0  0  0
  9 21  1  0  0  0  0
 10 22  1  0  0  0  0
 10 23  1  0  0  0  0
 10 24  1  0  0  0  0
 11 12  3  0  0  0  0
M  END
> <PUBCHEM_COMPOUND_CID>
137961

> <PUBCHEM_CONFORMER_RMSD>
0.6

> <PUBCHEM_CONFORMER_DIVERSEORDER>
1
3
2

> <PUBCHEM_MMFF94_PARTIAL_CHARGES>
10
1 -0.28
11 -0.2
12 -0.2
2 -0.28
25 0.4
26 0.4
3 -0.4
4 -0.4
5 0.48
6 0.48

> <PUBCHEM_EFFECTIVE_ROTOR_COUNT>
2

> <PUBCHEM_PHARMACOPHORE_FEATURES>
2
3 5 7 8 hydrophobe
3 6 9 10 hydrophobe

> <PUBCHEM_HEAVY_ATOM_COUNT>
12

> <PUBCHEM_ATOM_DEF_STEREO_COUNT>
0

> <PUBCHEM_ATOM_UDEF_STEREO_COUNT>
0

> <PUBCHEM_BOND_DEF_STEREO_COUNT>
0

> <PUBCHEM_BOND_UDEF_STEREO_COUNT>
0

> <PUBCHEM_ISOTOPIC_ATOM_COUNT>
0

> <PUBCHEM_COMPONENT_COUNT>
1

> <PUBCHEM_CACTVS_TAUTO_COUNT>
1

> <PUBCHEM_CONFORMER_ID>
00021AE900000001

> <PUBCHEM_MMFF94_ENERGY>
18.61

> <PUBCHEM_FEATURE_SELFOVERLAP>
10.149

> <PUBCHEM_SHAPE_FINGERPRINT>
12716758 59 18200022941877459939
12897270 3 18339923839053829199
12932741 1 17458064884518984899
12932764 1 18131636681335990786
15775835 57 18201446912245392113
16945 1 18410856602663549454
19973954 147 18409732845876802813
20653085 51 18337675192157550249
20653091 64 17748826319758971976
21524375 3 17832143101933967068
23552423 10 18410572872771213543
3248919 1 18113894961694379530
369184 2 16877939447423246907
5084963 1 18202563981662830242
74978 22 18336826398797447742
8030462 33 17531243958905491083

> <PUBCHEM_SHAPE_MULTIPOLES>
223.48
5.33
1.67
1.12
0.01
0.33
-0.43
-0.41
-0.17
-0.01
0.44
0.01
-0.04
-0.11

> <PUBCHEM_SHAPE_SELFOVERLAP>
426.484

> <PUBCHEM_SHAPE_VOLUME>
138.3

> <PUBCHEM_COORDINATE_TYPE>
2
5
10

$$$$
