55196
  -OEChem-11012401153D

 23 22  0     1  0  0  0  0  0999 V2000
   -0.2473   -1.9477   -0.0719 O   0  0  0  0  0  0  0  0  0  0  0  0
    1.7447    0.0690   -0.5232 O   0  0  0  0  0  0  0  0  0  0  0  0
   -1.2143    1.4957    0.5537 O   0  0  0  0  0  0  0  0  0  0  0  0
   -2.2630   -2.2451    0.7718 O   0  5  0  0  0  0  0  0  0  0  0  0
   -1.7724   -3.2322   -1.1663 O   0  0  0  0  0  0  0  0  0  0  0  0
    3.2664    1.2555    0.5540 O   0  5  0  0  0  0  0  0  0  0  0  0
    3.8125    0.3729   -1.4193 O   0  0  0  0  0  0  0  0  0  0  0  0
   -2.5597    2.0357   -1.1157 O   0  5  0  0  0  0  0  0  0  0  0  0
   -2.1418    3.5691    0.4481 O   0  0  0  0  0  0  0  0  0  0  0  0
   -1.5350   -2.5326   -0.1791 N   0  3  0  0  0  0  0  0  0  0  0  0
    3.0587    0.6061   -0.4717 N   0  3  0  0  0  0  0  0  0  0  0  0
   -2.0409    2.4606   -0.0827 N   0  3  0  0  0  0  0  0  0  0  0  0
   -0.2517   -0.7018    0.6344 C   0  0  1  0  0  0  0  0  0  0  0  0
    1.2003   -0.2187    0.7637 C   0  0  1  0  0  0  0  0  0  0  0  0
   -1.1634    0.2499   -0.1367 C   0  0  0  0  0  0  0  0  0  0  0  0
    2.1068   -1.2365    1.4407 C   0  0  0  0  0  0  0  0  0  0  0  0
   -0.6223   -0.8413    1.6596 H   0  0  0  0  0  0  0  0  0  0  0  0
    1.1656    0.6976    1.3684 H   0  0  0  0  0  0  0  0  0  0  0  0
   -2.1830   -0.1345   -0.2341 H   0  0  0  0  0  0  0  0  0  0  0  0
   -0.7648    0.3904   -1.1507 H   0  0  0  0  0  0  0  0  0  0  0  0
    3.0732   -0.8267    1.7473 H   0  0  0  0  0  0  0  0  0  0  0  0
    1.6347   -1.6279    2.3485 H   0  0  0  0  0  0  0  0  0  0  0  0
    2.3210   -2.0815    0.7762 H   0  0  0  0  0  0  0  0  0  0  0  0
  1 10  1  0  0  0  0
  1 13  1  0  0  0  0
  2 11  1  0  0  0  0
  2 14  1  0  0  0  0
  3 12  1  0  0  0  0
  3 15  1  0  0  0  0
  4 10  1  0  0  0  0
  5 10  2  0  0  0  0
  6 11  1  0  0  0  0
  7 11  2  0  0  0  0
  8 12  1  0  0  0  0
  9 12  2  0  0  0  0
 13 14  1  0  0  0  0
 13 15  1  0  0  0  0
 13 17  1  0  0  0  0
 14 16  1  0  0  0  0
 14 18  1  0  0  0  0
 15 19  1  0  0  0  0
 15 20  1  0  0  0  0
 16 21  1  0  0  0  0
 16 22  1  0  0  0  0
 16 23  1  0  0  0  0
M  CHG  6   4  -1   6  -1   8  -1  10   1  11   1  12   1
M  END
> <PUBCHEM_COMPOUND_CID>
55196

> <PUBCHEM_CONFORMER_RMSD>
0.8

> <PUBCHEM_CONFORMER_DIVERSEORDER>
1
121
57
16
43
96
75
118
50
34
101
30
25
79
33
128
83
111
87
31
94
35
120
119
127
28
76
14
108
19
58
123
93
84
6
113
95
122
7
67
8
69
126
105
109
125
124
47
97
36
100
41
85
54
82
60
5
112
39
12
88
32
37
62
29
77
110
107
65
71
114
59
55
44
61
73
117
104
9
22
21
91
106
81
53
66
51
4
99
103
26
64
40
45
92
86
10
80
56
68
15
116
72
102
70
115
2
18
89
49
90
46
52
63
3
98
74
78
20
17
27
42
38
23
48
24
11
13

> <PUBCHEM_MMFF94_PARTIAL_CHARGES>
15
1 -0.27
10 1.03
11 1.03
12 1.03
13 0.28
14 0.28
15 0.28
2 -0.27
3 -0.27
4 -0.52
5 -0.52
6 -0.52
7 -0.52
8 -0.52
9 -0.52

> <PUBCHEM_EFFECTIVE_ROTOR_COUNT>
8

> <PUBCHEM_PHARMACOPHORE_FEATURES>
6
1 4 acceptor
1 5 acceptor
1 6 acceptor
1 7 acceptor
1 8 acceptor
1 9 acceptor

> <PUBCHEM_HEAVY_ATOM_COUNT>
16

> <PUBCHEM_ATOM_DEF_STEREO_COUNT>
0

> <PUBCHEM_ATOM_UDEF_STEREO_COUNT>
2

> <PUBCHEM_BOND_DEF_STEREO_COUNT>
0

> <PUBCHEM_BOND_UDEF_STEREO_COUNT>
0

> <PUBCHEM_ISOTOPIC_ATOM_COUNT>
0

> <PUBCHEM_COMPONENT_COUNT>
1

> <PUBCHEM_CACTVS_TAUTO_COUNT>
1

> <PUBCHEM_CONFORMER_ID>
0000D79C00000001

> <PUBCHEM_MMFF94_ENERGY>
55.7092

> <PUBCHEM_FEATURE_SELFOVERLAP>
30.662

> <PUBCHEM_SHAPE_FINGERPRINT>
1 1 17833544600779513255
15490181 8 18122056499416515011
1741750 31 18339078190390580656
20671657 1 18117555137641042768
20711985 344 18339359772388097618
21524375 3 18116994386204663136
2255824 54 17402893324278753725
228727 97 17897163739680458426
23402539 116 18051968414435447966
23557571 272 18198338666305078808
23559900 14 18200600186484199830
23598291 2 18041554729176400018
3060560 45 17832700171470063854
53812653 217 18410295821689750730
57210444 14 17981631285132242238
7364860 26 17047654294156130401
81228 2 18265058105213967425

> <PUBCHEM_SHAPE_MULTIPOLES>
261.51
4.83
3.72
1.14
3.58
0.32
0.09
-2.73
1.07
-4.55
0.33
0.53
0.22
-0.63

> <PUBCHEM_SHAPE_SELFOVERLAP>
506.948

> <PUBCHEM_SHAPE_VOLUME>
158.7

> <PUBCHEM_COORDINATE_TYPE>
2
5
10

$$$$
