12654977
  -OEChem-11012401013D

 21 22  0     1  0  0  0  0  0999 V2000
   -3.0363    0.0000   -0.0012 O   0  0  0  0  0  0  0  0  0  0  0  0
    0.3687    0.6825   -0.3382 C   0  0  2  0  0  0  0  0  0  0  0  0
    0.3690   -0.6824    0.3390 C   0  0  2  0  0  0  0  0  0  0  0  0
    1.7037    1.2375    0.1008 C   0  0  0  0  0  0  0  0  0  0  0  0
    1.7035   -1.2374   -0.1014 C   0  0  0  0  0  0  0  0  0  0  0  0
    2.6274   -0.0001   -0.0005 C   0  0  0  0  0  0  0  0  0  0  0  0
   -0.9620    1.2648    0.0845 C   0  0  0  0  0  0  0  0  0  0  0  0
   -0.9620   -1.2649   -0.0831 C   0  0  0  0  0  0  0  0  0  0  0  0
   -1.8119    0.0000    0.0001 C   0  0  0  0  0  0  0  0  0  0  0  0
    0.3748    0.5704   -1.4344 H   0  0  0  0  0  0  0  0  0  0  0  0
    0.3759   -0.5703    1.4352 H   0  0  0  0  0  0  0  0  0  0  0  0
    1.6669    1.5980    1.1353 H   0  0  0  0  0  0  0  0  0  0  0  0
    2.0479    2.0592   -0.5338 H   0  0  0  0  0  0  0  0  0  0  0  0
    1.6658   -1.5976   -1.1361 H   0  0  0  0  0  0  0  0  0  0  0  0
    2.0481   -2.0595    0.5325 H   0  0  0  0  0  0  0  0  0  0  0  0
    3.2735    0.0611   -0.8829 H   0  0  0  0  0  0  0  0  0  0  0  0
    3.2739   -0.0613    0.8815 H   0  0  0  0  0  0  0  0  0  0  0  0
   -1.3180    2.0283   -0.6099 H   0  0  0  0  0  0  0  0  0  0  0  0
   -0.9570    1.6350    1.1131 H   0  0  0  0  0  0  0  0  0  0  0  0
   -1.3181   -2.0277    0.6121 H   0  0  0  0  0  0  0  0  0  0  0  0
   -0.9570   -1.6361   -1.1113 H   0  0  0  0  0  0  0  0  0  0  0  0
  1  9  2  0  0  0  0
  2  3  1  0  0  0  0
  2  4  1  0  0  0  0
  2  7  1  0  0  0  0
  2 10  1  0  0  0  0
  3  5  1  0  0  0  0
  3  8  1  0  0  0  0
  3 11  1  0  0  0  0
  4  6  1  0  0  0  0
  4 12  1  0  0  0  0
  4 13  1  0  0  0  0
  5  6  1  0  0  0  0
  5 14  1  0  0  0  0
  5 15  1  0  0  0  0
  6 16  1  0  0  0  0
  6 17  1  0  0  0  0
  7  9  1  0  0  0  0
  7 18  1  0  0  0  0
  7 19  1  0  0  0  0
  8  9  1  0  0  0  0
  8 20  1  0  0  0  0
  8 21  1  0  0  0  0
M  END
> <PUBCHEM_COMPOUND_CID>
12654977

> <PUBCHEM_CONFORMER_RMSD>
0.4

> <PUBCHEM_CONFORMER_DIVERSEORDER>
1

> <PUBCHEM_MMFF94_PARTIAL_CHARGES>
4
1 -0.57
7 0.06
8 0.06
9 0.45

> <PUBCHEM_EFFECTIVE_ROTOR_COUNT>
1

> <PUBCHEM_PHARMACOPHORE_FEATURES>
3
1 1 acceptor
5 2 3 4 5 6 rings
5 2 3 7 8 9 rings

> <PUBCHEM_HEAVY_ATOM_COUNT>
9

> <PUBCHEM_ATOM_DEF_STEREO_COUNT>
2

> <PUBCHEM_ATOM_UDEF_STEREO_COUNT>
0

> <PUBCHEM_BOND_DEF_STEREO_COUNT>
0

> <PUBCHEM_BOND_UDEF_STEREO_COUNT>
0

> <PUBCHEM_ISOTOPIC_ATOM_COUNT>
0

> <PUBCHEM_COMPONENT_COUNT>
1

> <PUBCHEM_CACTVS_TAUTO_COUNT>
2

> <PUBCHEM_CONFORMER_ID>
00C1198100000001

> <PUBCHEM_MMFF94_ENERGY>
25.3428

> <PUBCHEM_FEATURE_SELFOVERLAP>
15.446

> <PUBCHEM_SHAPE_FINGERPRINT>
10857977 72 18188207710105082395
12897270 3 18410856572551071844
14325111 11 18410575097864589349
16945 1 18411982459652127238
18185500 45 18410853308386547774
21040471 1 18337392767713414284
23235685 24 18335979856633009636
23402655 69 18194099856234268173
23552423 10 18261111928049087222
241688 4 18048600317871417088
2748010 2 18050006885190212326
29004967 10 18187088355549063672
369184 2 18411695499933627376
5084963 1 18271806783020648712

> <PUBCHEM_SHAPE_MULTIPOLES>
179.35
3.43
1.43
0.64
0.7
0
0
0
0
-0.23
0
-0.04
0
0.01

> <PUBCHEM_SHAPE_SELFOVERLAP>
375.257

> <PUBCHEM_SHAPE_VOLUME>
105.4

> <PUBCHEM_COORDINATE_TYPE>
2
5
10

$$$$
