7104
  -OEChem-11012400433D

 22 23  0     0  0  0  0  0  0999 V2000
   -2.1248   -2.1052    0.1168 O   0  0  0  0  0  0  0  0  0  0  0  0
   -2.8637    1.8956    0.5131 O   0  0  0  0  0  0  0  0  0  0  0  0
   -3.7141    0.0544   -0.5133 O   0  0  0  0  0  0  0  0  0  0  0  0
    1.0097    0.6427   -0.0477 C   0  0  0  0  0  0  0  0  0  0  0  0
    1.2803   -0.7440    0.0336 C   0  0  0  0  0  0  0  0  0  0  0  0
   -0.3241    1.0820   -0.0727 C   0  0  0  0  0  0  0  0  0  0  0  0
   -1.3762    0.1672   -0.0179 C   0  0  0  0  0  0  0  0  0  0  0  0
    0.2090   -1.6506    0.0878 C   0  0  0  0  0  0  0  0  0  0  0  0
   -1.1101   -1.1965    0.0625 C   0  0  0  0  0  0  0  0  0  0  0  0
    2.0807    1.5494   -0.1021 C   0  0  0  0  0  0  0  0  0  0  0  0
    2.6140   -1.1831    0.0583 C   0  0  0  0  0  0  0  0  0  0  0  0
    3.3997    1.0956   -0.0763 C   0  0  0  0  0  0  0  0  0  0  0  0
    3.6658   -0.2682    0.0037 C   0  0  0  0  0  0  0  0  0  0  0  0
   -2.7462    0.6607   -0.0456 C   0  0  0  0  0  0  0  0  0  0  0  0
   -0.5227    2.1498   -0.1493 H   0  0  0  0  0  0  0  0  0  0  0  0
    0.4090   -2.7189    0.1505 H   0  0  0  0  0  0  0  0  0  0  0  0
    1.8967    2.6200   -0.1650 H   0  0  0  0  0  0  0  0  0  0  0  0
    2.8458   -2.2444    0.1204 H   0  0  0  0  0  0  0  0  0  0  0  0
    4.2191    1.8073   -0.1188 H   0  0  0  0  0  0  0  0  0  0  0  0
    4.6929   -0.6210    0.0236 H   0  0  0  0  0  0  0  0  0  0  0  0
   -1.7485   -3.0004    0.1694 H   0  0  0  0  0  0  0  0  0  0  0  0
   -3.7892    2.2201    0.4904 H   0  0  0  0  0  0  0  0  0  0  0  0
  1  9  1  0  0  0  0
  1 21  1  0  0  0  0
  2 14  1  0  0  0  0
  2 22  1  0  0  0  0
  3 14  2  0  0  0  0
  4  5  1  0  0  0  0
  4  6  1  0  0  0  0
  4 10  2  0  0  0  0
  5  8  1  0  0  0  0
  5 11  2  0  0  0  0
  6  7  2  0  0  0  0
  6 15  1  0  0  0  0
  7  9  1  0  0  0  0
  7 14  1  0  0  0  0
  8  9  2  0  0  0  0
  8 16  1  0  0  0  0
 10 12  1  0  0  0  0
 10 17  1  0  0  0  0
 11 13  1  0  0  0  0
 11 18  1  0  0  0  0
 12 13  2  0  0  0  0
 12 19  1  0  0  0  0
 13 20  1  0  0  0  0
M  END
> <PUBCHEM_COMPOUND_CID>
7104

> <PUBCHEM_CONFORMER_RMSD>
0.4

> <PUBCHEM_CONFORMER_DIVERSEORDER>
2
1
3

> <PUBCHEM_MMFF94_PARTIAL_CHARGES>
20
1 -0.53
10 -0.15
11 -0.15
12 -0.15
13 -0.15
14 0.63
15 0.15
16 0.15
17 0.15
18 0.15
19 0.15
2 -0.65
20 0.15
21 0.45
22 0.5
3 -0.57
6 -0.15
7 0.09
8 -0.15
9 0.08

> <PUBCHEM_EFFECTIVE_ROTOR_COUNT>
1

> <PUBCHEM_PHARMACOPHORE_FEATURES>
6
1 1 donor
1 2 acceptor
1 3 acceptor
3 2 3 14 anion
6 4 5 10 11 12 13 rings
6 4 5 6 7 8 9 rings

> <PUBCHEM_HEAVY_ATOM_COUNT>
14

> <PUBCHEM_ATOM_DEF_STEREO_COUNT>
0

> <PUBCHEM_ATOM_UDEF_STEREO_COUNT>
0

> <PUBCHEM_BOND_DEF_STEREO_COUNT>
0

> <PUBCHEM_BOND_UDEF_STEREO_COUNT>
0

> <PUBCHEM_ISOTOPIC_ATOM_COUNT>
0

> <PUBCHEM_COMPONENT_COUNT>
1

> <PUBCHEM_CACTVS_TAUTO_COUNT>
4

> <PUBCHEM_CONFORMER_ID>
00001BC000000002

> <PUBCHEM_MMFF94_ENERGY>
43.3233

> <PUBCHEM_FEATURE_SELFOVERLAP>
30.53

> <PUBCHEM_SHAPE_FINGERPRINT>
10608611 8 18411697729211895840
10967382 1 18410011005333725326
10980938 120 18335138640154113714
11132069 177 18410005555220732360
11471102 20 18409162182351905148
12251169 10 18408038503048558576
12491281 212 18409739451641927840
12932764 1 17488744626472930582
13380535 21 18336839649003547502
13380535 76 18411135831330289734
13897977 150 18410008857813238588
14144814 61 18410012113308862680
14325111 11 18410856559713863468
14790565 3 15522382721947844669
14897335 6 18410288129403076638
14911166 2 18410296869941177094
15442244 35 18338515210340609666
15536298 74 18342737416843385974
15775835 57 18333736818716047636
16945 1 18336544902525164138
18186145 218 18340207366993421212
193761 8 17977666742302017268
20201158 50 18412826871913862590
20510252 161 18198347449085678152
20871998 184 18200600322852619119
21267235 1 18410301310684471530
21501502 16 18336546113874727206
2334 1 18265335186581604170
23402539 116 18271796930898499861
23402655 69 18341603790243165389
23463225 33 18335137575097143754
23552423 10 18188209922161062510
23559900 14 18343025511003263284
2748010 2 18337957899526234702
5104073 3 18410575084668354648
528886 8 18410287017206994146
53812653 166 18341608252629685760
6333449 129 18411136973854666591
69090 78 18413102870812506695
7364860 26 18341048502580218278
74978 22 18410295830437745824
9709674 26 18342461447572098686

> <PUBCHEM_SHAPE_MULTIPOLES>
270.51
5.78
1.93
0.63
0.18
0.25
0
-1.18
-0.19
0.4
0.13
0.04
-0.03
-0.17

> <PUBCHEM_SHAPE_SELFOVERLAP>
599.025

> <PUBCHEM_SHAPE_VOLUME>
145.5

> <PUBCHEM_COORDINATE_TYPE>
2
5
10

$$$$
