522449
  -OEChem-11012400523D

 18 18  0     0  0  0  0  0  0999 V2000
    3.8395    0.7088    0.8618 O   0  0  0  0  0  0  0  0  0  0  0  0
    3.8457   -0.7553   -0.9219 N   0  0  0  0  0  0  0  0  0  0  0  0
   -0.8279    0.0053    0.0070 C   0  0  0  0  0  0  0  0  0  0  0  0
   -1.5303    1.1768   -0.2761 C   0  0  0  0  0  0  0  0  0  0  0  0
   -1.5204   -1.1743    0.2808 C   0  0  0  0  0  0  0  0  0  0  0  0
   -2.9251    1.1689   -0.2853 C   0  0  0  0  0  0  0  0  0  0  0  0
   -2.9153   -1.1821    0.2715 C   0  0  0  0  0  0  0  0  0  0  0  0
   -3.6175   -0.0105   -0.0115 C   0  0  0  0  0  0  0  0  0  0  0  0
    0.6010    0.0135    0.0165 C   0  0  0  0  0  0  0  0  0  0  0  0
    1.8038    0.0202    0.0235 C   0  0  0  0  0  0  0  0  0  0  0  0
    3.2466    0.0286    0.0338 C   0  0  0  0  0  0  0  0  0  0  0  0
   -1.0049    2.1041   -0.4916 H   0  0  0  0  0  0  0  0  0  0  0  0
   -0.9874   -2.0956    0.5032 H   0  0  0  0  0  0  0  0  0  0  0  0
   -3.4720    2.0810   -0.5056 H   0  0  0  0  0  0  0  0  0  0  0  0
   -3.4548   -2.1003    0.4846 H   0  0  0  0  0  0  0  0  0  0  0  0
   -4.7035   -0.0168   -0.0187 H   0  0  0  0  0  0  0  0  0  0  0  0
    3.3115   -1.3031   -1.5893 H   0  0  0  0  0  0  0  0  0  0  0  0
    4.8563   -0.8123   -0.9919 H   0  0  0  0  0  0  0  0  0  0  0  0
  1 11  2  0  0  0  0
  2 11  1  0  0  0  0
  2 17  1  0  0  0  0
  2 18  1  0  0  0  0
  3  4  2  0  0  0  0
  3  5  1  0  0  0  0
  3  9  1  0  0  0  0
  4  6  1  0  0  0  0
  4 12  1  0  0  0  0
  5  7  2  0  0  0  0
  5 13  1  0  0  0  0
  6  8  2  0  0  0  0
  6 14  1  0  0  0  0
  7  8  1  0  0  0  0
  7 15  1  0  0  0  0
  8 16  1  0  0  0  0
  9 10  3  0  0  0  0
 10 11  1  0  0  0  0
M  END
> <PUBCHEM_COMPOUND_CID>
522449

> <PUBCHEM_CONFORMER_RMSD>
0.4

> <PUBCHEM_CONFORMER_DIVERSEORDER>
1

> <PUBCHEM_MMFF94_PARTIAL_CHARGES>
18
1 -0.57
10 -0.1
11 0.74
12 0.15
13 0.15
14 0.15
15 0.15
16 0.15
17 0.37
18 0.37
2 -0.8
3 0.07
4 -0.15
5 -0.15
6 -0.15
7 -0.15
8 -0.15
9 -0.07

> <PUBCHEM_EFFECTIVE_ROTOR_COUNT>
0

> <PUBCHEM_PHARMACOPHORE_FEATURES>
3
1 1 acceptor
1 2 donor
6 3 4 5 6 7 8 rings

> <PUBCHEM_HEAVY_ATOM_COUNT>
11

> <PUBCHEM_ATOM_DEF_STEREO_COUNT>
0

> <PUBCHEM_ATOM_UDEF_STEREO_COUNT>
0

> <PUBCHEM_BOND_DEF_STEREO_COUNT>
0

> <PUBCHEM_BOND_UDEF_STEREO_COUNT>
0

> <PUBCHEM_ISOTOPIC_ATOM_COUNT>
0

> <PUBCHEM_COMPONENT_COUNT>
1

> <PUBCHEM_CACTVS_TAUTO_COUNT>
2

> <PUBCHEM_CONFORMER_ID>
0007F8D100000001

> <PUBCHEM_MMFF94_ENERGY>
15.6801

> <PUBCHEM_FEATURE_SELFOVERLAP>
15.223

> <PUBCHEM_SHAPE_FINGERPRINT>
10608611 8 18413384328488243160
12032990 46 18412269449324764887
12932764 1 17240474810626693332
13024252 1 15864070975416331713
13296908 3 18272934925222173094
14144814 61 18186516588075236970
14325111 11 18409728443688090770
18186145 218 18343023259538131712
190213 19 17457780089616729642
1986462 14 18408608041181248607
20279233 1 18273495676221060078
20645464 45 18201726141386782215
20645477 56 18335701603061404981
20645477 70 17489590013671078790
20871998 184 18341618174057237783
23402539 116 18412535527655999127
23559900 14 18412258407602001000
3248919 1 16732706043063188098
43471831 8 18041274383623341547
6333449 129 18410570687054398253

> <PUBCHEM_SHAPE_MULTIPOLES>
215.52
7.38
1.21
0.74
5.57
0.01
0.01
0.05
0.09
-0.91
0.01
0.41
0.01
0.54

> <PUBCHEM_SHAPE_SELFOVERLAP>
447.862

> <PUBCHEM_SHAPE_VOLUME>
122

> <PUBCHEM_COORDINATE_TYPE>
2
5
10

$$$$
