140479
  -OEChem-11012401023D

 58 62  0     0  0  0  0  0  0999 V2000
    0.5382   -0.4337   -0.0410 C   0  0  0  0  0  0  0  0  0  0  0  0
   -0.6660    0.4094    0.7842 C   0  0  0  0  0  0  0  0  0  0  0  0
    0.1445   -0.4038   -1.5678 C   0  0  0  0  0  0  0  0  0  0  0  0
    0.7066   -1.8961    0.5337 C   0  0  0  0  0  0  0  0  0  0  0  0
    1.9958    0.1635    0.1853 C   0  0  0  0  0  0  0  0  0  0  0  0
   -2.0898   -0.0330    0.7408 C   0  0  0  0  0  0  0  0  0  0  0  0
   -0.5314    1.9639    0.7062 C   0  0  0  0  0  0  0  0  0  0  0  0
    0.0017   -1.5998   -2.1865 C   0  0  0  0  0  0  0  0  0  0  0  0
    1.6479   -2.6741   -0.0480 C   0  0  0  0  0  0  0  0  0  0  0  0
    2.6462    0.5868   -0.9167 C   0  0  0  0  0  0  0  0  0  0  0  0
   -0.0178    0.8154   -2.1342 C   0  0  0  0  0  0  0  0  0  0  0  0
   -0.1053   -2.2449    1.5577 C   0  0  0  0  0  0  0  0  0  0  0  0
    2.4406    0.1884    1.4573 C   0  0  0  0  0  0  0  0  0  0  0  0
   -2.9308    0.2155    1.8256 C   0  0  0  0  0  0  0  0  0  0  0  0
    0.2010    2.5791    1.6743 C   0  0  0  0  0  0  0  0  0  0  0  0
   -2.5801   -0.6957   -0.3842 C   0  0  0  0  0  0  0  0  0  0  0  0
   -1.1560    2.5962   -0.3244 C   0  0  0  0  0  0  0  0  0  0  0  0
   -0.3461   -1.5736   -3.5371 C   0  0  0  0  0  0  0  0  0  0  0  0
    1.7962   -3.9652    0.4588 C   0  0  0  0  0  0  0  0  0  0  0  0
    3.9240    1.1098   -0.7185 C   0  0  0  0  0  0  0  0  0  0  0  0
   -0.3658    0.8419   -3.4847 C   0  0  0  0  0  0  0  0  0  0  0  0
    0.0430   -3.5359    2.0647 C   0  0  0  0  0  0  0  0  0  0  0  0
    3.7184    0.7115    1.6556 C   0  0  0  0  0  0  0  0  0  0  0  0
   -4.2623   -0.1987    1.7852 C   0  0  0  0  0  0  0  0  0  0  0  0
    0.3210    3.9671    1.6049 C   0  0  0  0  0  0  0  0  0  0  0  0
   -3.9115   -1.1099   -0.4247 C   0  0  0  0  0  0  0  0  0  0  0  0
   -1.0361    3.9842   -0.3940 C   0  0  0  0  0  0  0  0  0  0  0  0
   -0.5298   -0.3527   -4.1862 C   0  0  0  0  0  0  0  0  0  0  0  0
    0.9938   -4.3960    1.5152 C   0  0  0  0  0  0  0  0  0  0  0  0
    4.4600    1.1722    0.5677 C   0  0  0  0  0  0  0  0  0  0  0  0
   -4.7526   -0.8614    0.6601 C   0  0  0  0  0  0  0  0  0  0  0  0
   -0.2976    4.6696    0.5708 C   0  0  0  0  0  0  0  0  0  0  0  0
   -0.3863    0.2445    1.8361 H   0  0  0  0  0  0  0  0  0  0  0  0
    0.0353   -2.5834   -1.7470 H   0  0  0  0  0  0  0  0  0  0  0  0
    2.2971   -2.3602   -0.8576 H   0  0  0  0  0  0  0  0  0  0  0  0
    2.3487    0.5019   -1.9490 H   0  0  0  0  0  0  0  0  0  0  0  0
    0.3368    1.7412   -1.7163 H   0  0  0  0  0  0  0  0  0  0  0  0
   -0.8406   -1.6549    2.0713 H   0  0  0  0  0  0  0  0  0  0  0  0
    1.8782   -0.1606    2.3142 H   0  0  0  0  0  0  0  0  0  0  0  0
   -2.5649    0.7295    2.7106 H   0  0  0  0  0  0  0  0  0  0  0  0
    0.6635    2.0541    2.5013 H   0  0  0  0  0  0  0  0  0  0  0  0
   -2.0523   -0.8951   -1.2864 H   0  0  0  0  0  0  0  0  0  0  0  0
   -1.8204    2.1079   -1.0276 H   0  0  0  0  0  0  0  0  0  0  0  0
   -0.4914   -2.5030   -4.0803 H   0  0  0  0  0  0  0  0  0  0  0  0
    2.5395   -4.6336    0.0340 H   0  0  0  0  0  0  0  0  0  0  0  0
    4.5103    1.4518   -1.5666 H   0  0  0  0  0  0  0  0  0  0  0  0
   -0.4546    1.7914   -4.0047 H   0  0  0  0  0  0  0  0  0  0  0  0
   -0.5759   -3.8708    2.8923 H   0  0  0  0  0  0  0  0  0  0  0  0
    4.1359    0.7604    2.6571 H   0  0  0  0  0  0  0  0  0  0  0  0
   -4.9172   -0.0050    2.6297 H   0  0  0  0  0  0  0  0  0  0  0  0
    0.8895    4.5017    2.3604 H   0  0  0  0  0  0  0  0  0  0  0  0
   -4.2985   -1.6161   -1.3046 H   0  0  0  0  0  0  0  0  0  0  0  0
   -1.5374    4.5338   -1.1854 H   0  0  0  0  0  0  0  0  0  0  0  0
   -0.7924   -0.3320   -5.2398 H   0  0  0  0  0  0  0  0  0  0  0  0
    1.1111   -5.4003    1.9117 H   0  0  0  0  0  0  0  0  0  0  0  0
    5.4565    1.5758    0.7218 H   0  0  0  0  0  0  0  0  0  0  0  0
   -5.7898   -1.1815    0.6275 H   0  0  0  0  0  0  0  0  0  0  0  0
   -0.2102    5.7510    0.5206 H   0  0  0  0  0  0  0  0  0  0  0  0
  1  2  1  0  0  0  0
  1  3  1  0  0  0  0
  1  4  1  0  0  0  0
  1  5  1  0  0  0  0
  2  6  1  0  0  0  0
  2  7  1  0  0  0  0
  2 33  1  0  0  0  0
  3  8  2  0  0  0  0
  3 11  1  0  0  0  0
  4  9  2  0  0  0  0
  4 12  1  0  0  0  0
  5 10  2  0  0  0  0
  5 13  1  0  0  0  0
  6 14  2  0  0  0  0
  6 16  1  0  0  0  0
  7 15  2  0  0  0  0
  7 17  1  0  0  0  0
  8 18  1  0  0  0  0
  8 34  1  0  0  0  0
  9 19  1  0  0  0  0
  9 35  1  0  0  0  0
 10 20  1  0  0  0  0
 10 36  1  0  0  0  0
 11 21  2  0  0  0  0
 11 37  1  0  0  0  0
 12 22  2  0  0  0  0
 12 38  1  0  0  0  0
 13 23  2  0  0  0  0
 13 39  1  0  0  0  0
 14 24  1  0  0  0  0
 14 40  1  0  0  0  0
 15 25  1  0  0  0  0
 15 41  1  0  0  0  0
 16 26  2  0  0  0  0
 16 42  1  0  0  0  0
 17 27  2  0  0  0  0
 17 43  1  0  0  0  0
 18 28  2  0  0  0  0
 18 44  1  0  0  0  0
 19 29  2  0  0  0  0
 19 45  1  0  0  0  0
 20 30  2  0  0  0  0
 20 46  1  0  0  0  0
 21 28  1  0  0  0  0
 21 47  1  0  0  0  0
 22 29  1  0  0  0  0
 22 48  1  0  0  0  0
 23 30  1  0  0  0  0
 23 49  1  0  0  0  0
 24 31  2  0  0  0  0
 24 50  1  0  0  0  0
 25 32  2  0  0  0  0
 25 51  1  0  0  0  0
 26 31  1  0  0  0  0
 26 52  1  0  0  0  0
 27 32  1  0  0  0  0
 27 53  1  0  0  0  0
 28 54  1  0  0  0  0
 29 55  1  0  0  0  0
 30 56  1  0  0  0  0
 31 57  1  0  0  0  0
 32 58  1  0  0  0  0
M  END
> <PUBCHEM_COMPOUND_CID>
140479

> <PUBCHEM_CONFORMER_RMSD>
0.8

> <PUBCHEM_CONFORMER_DIVERSEORDER>
1
3
2

> <PUBCHEM_MMFF94_PARTIAL_CHARGES>
57
1 0.43
10 -0.15
11 -0.15
12 -0.15
13 -0.15
14 -0.15
15 -0.15
16 -0.15
17 -0.15
18 -0.15
19 -0.15
2 0.29
20 -0.15
21 -0.15
22 -0.15
23 -0.15
24 -0.15
25 -0.15
26 -0.15
27 -0.15
28 -0.15
29 -0.15
3 -0.14
30 -0.15
31 -0.15
32 -0.15
34 0.15
35 0.15
36 0.15
37 0.15
38 0.15
39 0.15
4 -0.14
40 0.15
41 0.15
42 0.15
43 0.15
44 0.15
45 0.15
46 0.15
47 0.15
48 0.15
49 0.15
5 -0.14
50 0.15
51 0.15
52 0.15
53 0.15
54 0.15
55 0.15
56 0.15
57 0.15
58 0.15
6 -0.14
7 -0.14
8 -0.15
9 -0.15

> <PUBCHEM_EFFECTIVE_ROTOR_COUNT>
6

> <PUBCHEM_PHARMACOPHORE_FEATURES>
5
6 3 8 11 18 21 28 rings
6 4 9 12 19 22 29 rings
6 5 10 13 20 23 30 rings
6 6 14 16 24 26 31 rings
6 7 15 17 25 27 32 rings

> <PUBCHEM_HEAVY_ATOM_COUNT>
32

> <PUBCHEM_ATOM_DEF_STEREO_COUNT>
0

> <PUBCHEM_ATOM_UDEF_STEREO_COUNT>
0

> <PUBCHEM_BOND_DEF_STEREO_COUNT>
0

> <PUBCHEM_BOND_UDEF_STEREO_COUNT>
0

> <PUBCHEM_ISOTOPIC_ATOM_COUNT>
0

> <PUBCHEM_COMPONENT_COUNT>
1

> <PUBCHEM_CACTVS_TAUTO_COUNT>
1

> <PUBCHEM_CONFORMER_ID>
000224BF00000001

> <PUBCHEM_MMFF94_ENERGY>
191.1492

> <PUBCHEM_FEATURE_SELFOVERLAP>
25.376

> <PUBCHEM_SHAPE_FINGERPRINT>
10006869 2 18129089031511809513
11421498 54 17905000925123750717
11578080 2 17462848675170340862
12058002 1 17097809835327412352
12156800 1 17327223159980703790
12608794 3 17762299863546755993
12788726 201 18410302419345294200
13140716 1 18052265282627611339
13149001 5 17905911501113762361
13911987 19 18188213220379467485
13965767 371 17699035910610631753
14863182 85 18116738324866409027
15219462 58 18048034069124571663
16945 1 18334019410041305360
20600515 1 18050039797409096140
20691752 17 17977988714662629289
20905425 154 18127702525747415472
22149856 69 10810207646513897121
229495 10 18046876378170881103
23419403 2 17753592573426628078
25223398 141 16960161786328008825
3380486 77 18117864258879671760
3493558 16 17749943358879901589
57527306 92 17988076802693765673
57527358 35 16056610909688447425
57527452 28 17531825656776112906
57527573 199 18194711273996572369
57527585 103 17176839273673059642
5845 1 11186990110724586220
70251023 43 18124883356839419299

> <PUBCHEM_SHAPE_MULTIPOLES>
658.54
5.41
5.21
3.27
1.44
1.1
4.34
-0.1
-2.64
-1.19
-3.01
0.66
-0.88
-0.12

> <PUBCHEM_SHAPE_SELFOVERLAP>
1482.26

> <PUBCHEM_SHAPE_VOLUME>
321.4

> <PUBCHEM_COORDINATE_TYPE>
2
5
10

$$$$
