132595682
  -OEChem-11012401073D

 51 51  0     0  0  0  0  0  0999 V2000
   -5.0975    0.2995   -0.0962 S   0  0  0  0  0  0  0  0  0  0  0  0
    4.8297    0.3131   -0.9488 S   0  0  0  0  0  0  0  0  0  0  0  0
   -3.2759   -1.9908    1.2487 O   0  0  0  0  0  0  0  0  0  0  0  0
    3.1347   -2.2456   -1.2761 O   0  0  0  0  0  0  0  0  0  0  0  0
   -2.9411    1.9481   -0.5272 N   0  0  0  0  0  0  0  0  0  0  0  0
    3.0752    1.7653    0.5895 N   0  0  0  0  0  0  0  0  0  0  0  0
   -2.4436   -0.3509   -0.2166 N   0  0  0  0  0  0  0  0  0  0  0  0
    2.3492   -0.4023   -0.0455 N   0  0  0  0  0  0  0  0  0  0  0  0
   -0.0650   -1.7096   -0.0406 N   0  0  0  0  0  0  0  0  0  0  0  0
   -1.5109    2.2207   -0.6826 C   0  0  0  0  0  0  0  0  0  0  0  0
   -3.7979    3.1268   -0.6712 C   0  0  0  0  0  0  0  0  0  0  0  0
    1.8114    1.9630    1.3021 C   0  0  0  0  0  0  0  0  0  0  0  0
    4.0044    2.8929    0.6872 C   0  0  0  0  0  0  0  0  0  0  0  0
   -3.4541    0.6447   -0.2878 C   0  0  0  0  0  0  0  0  0  0  0  0
    3.3842    0.5681   -0.1107 C   0  0  0  0  0  0  0  0  0  0  0  0
   -1.0720    2.0744   -2.1249 C   0  0  0  0  0  0  0  0  0  0  0  0
   -4.0779    3.7758    0.6684 C   0  0  0  0  0  0  0  0  0  0  0  0
    1.8968    1.4667    2.7307 C   0  0  0  0  0  0  0  0  0  0  0  0
    3.8398    3.8494   -0.4757 C   0  0  0  0  0  0  0  0  0  0  0  0
   -1.1917   -2.3881    0.2720 C   0  0  0  0  0  0  0  0  0  0  0  0
    1.0431   -2.4530   -0.2573 C   0  0  0  0  0  0  0  0  0  0  0  0
   -2.4001   -1.5567    0.5069 C   0  0  0  0  0  0  0  0  0  0  0  0
    2.2452   -1.7097   -0.5928 C   0  0  0  0  0  0  0  0  0  0  0  0
   -1.2620   -3.7678    0.3775 C   0  0  0  0  0  0  0  0  0  0  0  0
    1.0775   -3.8359   -0.1765 C   0  0  0  0  0  0  0  0  0  0  0  0
   -0.1014   -4.4982    0.1475 C   0  0  0  0  0  0  0  0  0  0  0  0
   -1.2981    3.2350   -0.3250 H   0  0  0  0  0  0  0  0  0  0  0  0
   -0.9397    1.5516   -0.0393 H   0  0  0  0  0  0  0  0  0  0  0  0
   -3.3134    3.8454   -1.3425 H   0  0  0  0  0  0  0  0  0  0  0  0
   -4.7412    2.8530   -1.1529 H   0  0  0  0  0  0  0  0  0  0  0  0
    1.5787    3.0351    1.3051 H   0  0  0  0  0  0  0  0  0  0  0  0
    0.9812    1.5007    0.7740 H   0  0  0  0  0  0  0  0  0  0  0  0
    3.8361    3.4197    1.6338 H   0  0  0  0  0  0  0  0  0  0  0  0
    5.0362    2.5313    0.7237 H   0  0  0  0  0  0  0  0  0  0  0  0
    0.0036    2.2580   -2.2126 H   0  0  0  0  0  0  0  0  0  0  0  0
   -1.5905    2.7914   -2.7698 H   0  0  0  0  0  0  0  0  0  0  0  0
   -1.2782    1.0737   -2.5166 H   0  0  0  0  0  0  0  0  0  0  0  0
   -4.7180    4.6540    0.5376 H   0  0  0  0  0  0  0  0  0  0  0  0
   -3.1498    4.1033    1.1487 H   0  0  0  0  0  0  0  0  0  0  0  0
   -4.5802    3.0913    1.3582 H   0  0  0  0  0  0  0  0  0  0  0  0
    2.6834    1.9870    3.2867 H   0  0  0  0  0  0  0  0  0  0  0  0
    0.9476    1.6366    3.2483 H   0  0  0  0  0  0  0  0  0  0  0  0
    2.1177    0.3953    2.7704 H   0  0  0  0  0  0  0  0  0  0  0  0
    4.5415    4.6842   -0.3821 H   0  0  0  0  0  0  0  0  0  0  0  0
    2.8259    4.2625   -0.5050 H   0  0  0  0  0  0  0  0  0  0  0  0
    4.0223    3.3606   -1.4371 H   0  0  0  0  0  0  0  0  0  0  0  0
   -1.5983   -0.1607   -0.7442 H   0  0  0  0  0  0  0  0  0  0  0  0
    1.5547   -0.1831    0.5399 H   0  0  0  0  0  0  0  0  0  0  0  0
   -2.1844   -4.2815    0.6263 H   0  0  0  0  0  0  0  0  0  0  0  0
    1.9853   -4.4030   -0.3525 H   0  0  0  0  0  0  0  0  0  0  0  0
   -0.1157   -5.5815    0.2206 H   0  0  0  0  0  0  0  0  0  0  0  0
  1 14  2  0  0  0  0
  2 15  2  0  0  0  0
  3 22  2  0  0  0  0
  4 23  2  0  0  0  0
  5 10  1  0  0  0  0
  5 11  1  0  0  0  0
  5 14  1  0  0  0  0
  6 12  1  0  0  0  0
  6 13  1  0  0  0  0
  6 15  1  0  0  0  0
  7 14  1  0  0  0  0
  7 22  1  0  0  0  0
  7 47  1  0  0  0  0
  8 15  1  0  0  0  0
  8 23  1  0  0  0  0
  8 48  1  0  0  0  0
  9 20  2  0  0  0  0
  9 21  1  0  0  0  0
 10 16  1  0  0  0  0
 10 27  1  0  0  0  0
 10 28  1  0  0  0  0
 11 17  1  0  0  0  0
 11 29  1  0  0  0  0
 11 30  1  0  0  0  0
 12 18  1  0  0  0  0
 12 31  1  0  0  0  0
 12 32  1  0  0  0  0
 13 19  1  0  0  0  0
 13 33  1  0  0  0  0
 13 34  1  0  0  0  0
 16 35  1  0  0  0  0
 16 36  1  0  0  0  0
 16 37  1  0  0  0  0
 17 38  1  0  0  0  0
 17 39  1  0  0  0  0
 17 40  1  0  0  0  0
 18 41  1  0  0  0  0
 18 42  1  0  0  0  0
 18 43  1  0  0  0  0
 19 44  1  0  0  0  0
 19 45  1  0  0  0  0
 19 46  1  0  0  0  0
 20 22  1  0  0  0  0
 20 24  1  0  0  0  0
 21 23  1  0  0  0  0
 21 25  2  0  0  0  0
 24 26  2  0  0  0  0
 24 49  1  0  0  0  0
 25 26  1  0  0  0  0
 25 50  1  0  0  0  0
 26 51  1  0  0  0  0
M  END
> <PUBCHEM_COMPOUND_CID>
132595682

> <PUBCHEM_CONFORMER_RMSD>
1

> <PUBCHEM_CONFORMER_DIVERSEORDER>
1
71
100
83
105
152
13
128
44
143
103
37
2
125
11
81
124
145
73
120
18
121
88
99
56
144
138
75
123
151
53
80
116
36
146
66
154
76
61
129
43
130
62
21
79
72
20
114
95
107
40
48
23
153
39
149
34
55
74
131
5
133
136
52
17
82
58
49
78
63
68
102
118
117
89
137
90
106
97
104
101
33
25
59
60
93
115
94
77
150
85
6
27
86
126
112
141
41
57
92
65
22
142
127
70
132
96
31
9
3
64
110
108
69
10
38
147
51
46
14
140
45
30
4
29
15
35
119
109
28
16
26
135
54
19
148
139
113
91
32
134
84
111
67
87
50
24
42
12
8
98
7
122
47

> <PUBCHEM_MMFF94_PARTIAL_CHARGES>
27
1 -0.38
10 0.3
11 0.3
12 0.3
13 0.3
14 0.5
15 0.5
2 -0.38
20 0.4
21 0.4
22 0.54
23 0.54
24 -0.15
25 -0.15
26 -0.15
3 -0.57
4 -0.57
47 0.37
48 0.37
49 0.15
5 -0.66
50 0.15
51 0.15
6 -0.66
7 -0.49
8 -0.49
9 -0.62

> <PUBCHEM_EFFECTIVE_ROTOR_COUNT>
12

> <PUBCHEM_PHARMACOPHORE_FEATURES>
8
1 1 acceptor
1 2 acceptor
1 3 acceptor
1 4 acceptor
1 7 donor
1 8 donor
1 9 acceptor
6 9 20 21 24 25 26 rings

> <PUBCHEM_HEAVY_ATOM_COUNT>
26

> <PUBCHEM_ATOM_DEF_STEREO_COUNT>
0

> <PUBCHEM_ATOM_UDEF_STEREO_COUNT>
0

> <PUBCHEM_BOND_DEF_STEREO_COUNT>
0

> <PUBCHEM_BOND_UDEF_STEREO_COUNT>
0

> <PUBCHEM_ISOTOPIC_ATOM_COUNT>
0

> <PUBCHEM_COMPONENT_COUNT>
1

> <PUBCHEM_CACTVS_TAUTO_COUNT>
6

> <PUBCHEM_CONFORMER_ID>
07E73FE200000001

> <PUBCHEM_MMFF94_ENERGY>
75.2594

> <PUBCHEM_FEATURE_SELFOVERLAP>
40.599

> <PUBCHEM_SHAPE_FINGERPRINT>
10165383 225 18410868649978009064
10670039 82 17759532462358840188
11059048 146 18340784657917120368
11370993 70 18410851066450847860
12100795 323 18265328593770037668
12107183 9 18263062411012672994
12769317 202 18194958539611569559
13402501 40 18340207482957278160
138480 1 17762052138438159799
14114211 68 17614039237460849191
14466204 15 18193266400212902754
151778 21 18337111138023539737
15322687 12 18194682566467047905
19930381 70 18266173929549896745
20398071 114 18409728426503161333
20775438 99 17180472133959770509
21344244 78 16168047131235817739
23536364 44 17911548422968953854
23559900 14 18121207689329905725
238 59 17977913861988217869
3187 122 17401755818885546178
3524813 1 18412831308419965490
508706 21 18197490925691745294
54672768 99 18411980269519967480
6371009 1 18265874943537449887
7808743 9 18049722120590631256
84936 182 18268424633951762235

> <PUBCHEM_SHAPE_MULTIPOLES>
506.12
9.03
6.44
1.44
0.94
2.68
0.48
-8.59
-0.65
0.45
0.16
-0.66
-0.95
1.67

> <PUBCHEM_SHAPE_SELFOVERLAP>
991.226

> <PUBCHEM_SHAPE_VOLUME>
308.3

> <PUBCHEM_COORDINATE_TYPE>
2
5
10

$$$$
