15461
  -OEChem-11012401183D

 26 26  0     0  0  0  0  0  0999 V2000
    2.6507    0.0005    1.1395 O   0  0  0  0  0  0  0  0  0  0  0  0
    0.5677   -0.0001    0.0327 C   0  0  0  0  0  0  0  0  0  0  0  0
   -0.1296    1.2080    0.0184 C   0  0  0  0  0  0  0  0  0  0  0  0
   -0.1296   -1.2080    0.0186 C   0  0  0  0  0  0  0  0  0  0  0  0
   -2.2215    0.0000   -0.0245 C   0  0  0  0  0  0  0  0  0  0  0  0
   -1.5242    1.2079   -0.0102 C   0  0  0  0  0  0  0  0  0  0  0  0
   -1.5241   -1.2080   -0.0099 C   0  0  0  0  0  0  0  0  0  0  0  0
    0.5895    2.5177    0.0330 C   0  0  0  0  0  0  0  0  0  0  0  0
    0.5896   -2.5178    0.0330 C   0  0  0  0  0  0  0  0  0  0  0  0
    2.0266   -0.0001    0.0626 C   0  0  0  0  0  0  0  0  0  0  0  0
   -3.7125    0.0001   -0.0549 C   0  0  0  0  0  0  0  0  0  0  0  0
    2.8172   -0.0002   -1.2384 C   0  0  0  0  0  0  0  0  0  0  0  0
   -2.0726    2.1470   -0.0238 H   0  0  0  0  0  0  0  0  0  0  0  0
   -2.0725   -2.1469   -0.0234 H   0  0  0  0  0  0  0  0  0  0  0  0
   -0.1055    3.3641    0.0599 H   0  0  0  0  0  0  0  0  0  0  0  0
    1.2278    2.5974    0.9191 H   0  0  0  0  0  0  0  0  0  0  0  0
    1.2025    2.6288   -0.8674 H   0  0  0  0  0  0  0  0  0  0  0  0
    1.2287   -2.5972    0.9186 H   0  0  0  0  0  0  0  0  0  0  0  0
   -0.1054   -3.3642    0.0608 H   0  0  0  0  0  0  0  0  0  0  0  0
    1.2017   -2.6291   -0.8679 H   0  0  0  0  0  0  0  0  0  0  0  0
   -4.0670    0.0013   -1.0904 H   0  0  0  0  0  0  0  0  0  0  0  0
   -4.1185   -0.8808    0.4541 H   0  0  0  0  0  0  0  0  0  0  0  0
   -4.1184    0.8797    0.4562 H   0  0  0  0  0  0  0  0  0  0  0  0
    3.4387    0.8978   -1.2812 H   0  0  0  0  0  0  0  0  0  0  0  0
    2.1407   -0.0009   -2.0977 H   0  0  0  0  0  0  0  0  0  0  0  0
    3.4396   -0.8976   -1.2805 H   0  0  0  0  0  0  0  0  0  0  0  0
  1 10  2  0  0  0  0
  2  3  2  0  0  0  0
  2  4  1  0  0  0  0
  2 10  1  0  0  0  0
  3  6  1  0  0  0  0
  3  8  1  0  0  0  0
  4  7  2  0  0  0  0
  4  9  1  0  0  0  0
  5  6  2  0  0  0  0
  5  7  1  0  0  0  0
  5 11  1  0  0  0  0
  6 13  1  0  0  0  0
  7 14  1  0  0  0  0
  8 15  1  0  0  0  0
  8 16  1  0  0  0  0
  8 17  1  0  0  0  0
  9 18  1  0  0  0  0
  9 19  1  0  0  0  0
  9 20  1  0  0  0  0
 10 12  1  0  0  0  0
 11 21  1  0  0  0  0
 11 22  1  0  0  0  0
 11 23  1  0  0  0  0
 12 24  1  0  0  0  0
 12 25  1  0  0  0  0
 12 26  1  0  0  0  0
M  END
> <PUBCHEM_COMPOUND_CID>
15461

> <PUBCHEM_CONFORMER_RMSD>
0.4

> <PUBCHEM_CONFORMER_DIVERSEORDER>
1

> <PUBCHEM_MMFF94_PARTIAL_CHARGES>
14
1 -0.57
10 0.42
11 0.14
12 0.06
13 0.15
14 0.15
2 0.09
3 -0.14
4 -0.14
5 -0.14
6 -0.15
7 -0.15
8 0.14
9 0.14

> <PUBCHEM_EFFECTIVE_ROTOR_COUNT>
1

> <PUBCHEM_PHARMACOPHORE_FEATURES>
2
1 1 acceptor
6 2 3 4 5 6 7 rings

> <PUBCHEM_HEAVY_ATOM_COUNT>
12

> <PUBCHEM_ATOM_DEF_STEREO_COUNT>
0

> <PUBCHEM_ATOM_UDEF_STEREO_COUNT>
0

> <PUBCHEM_BOND_DEF_STEREO_COUNT>
0

> <PUBCHEM_BOND_UDEF_STEREO_COUNT>
0

> <PUBCHEM_ISOTOPIC_ATOM_COUNT>
0

> <PUBCHEM_COMPONENT_COUNT>
1

> <PUBCHEM_CACTVS_TAUTO_COUNT>
2

> <PUBCHEM_CONFORMER_ID>
00003C6500000001

> <PUBCHEM_MMFF94_ENERGY>
36.5609

> <PUBCHEM_FEATURE_SELFOVERLAP>
10.148

> <PUBCHEM_SHAPE_FINGERPRINT>
10219947 1 18410290311415222675
10353120 184 18411989056785379589
11206711 2 18408600336469063685
12423570 1 11491965739745816652
12524768 44 18197782300267347452
13380535 76 17909539906665480464
13380536 305 18338241577789578133
14911166 2 18410858776175250069
14993402 34 18408890658624534797
161256 15 18126850391245654446
16945 1 18410855460481570187
193761 8 17690279309432654473
20511035 2 18045225096362732599
20588541 1 18335145276000054635
20645476 183 17677343825847107270
21040471 1 18338516339716437898
21501502 16 17979359659596511355
22802520 49 18056504810232793470
2334 1 17978227493654026761
23402539 116 18343012303319152958
23402655 69 18195226847236896725
23419403 2 16259189420330902549
23463225 33 18261949639966545106
23552423 10 17973449801772037111
23559900 14 18342186587857373740
241688 4 17905895777359661641
2748010 2 18121217851238248261
4369600 1 18411429409709184164
5084963 1 18059864981769494033
528886 8 18411136952406210451
53812653 166 18342450422585923321

> <PUBCHEM_SHAPE_MULTIPOLES>
241.09
4.15
2.19
0.82
1.45
0
-0.04
0
-0.38
-0.31
0.08
-0.55
0
0

> <PUBCHEM_SHAPE_SELFOVERLAP>
498.953

> <PUBCHEM_SHAPE_VOLUME>
141.2

> <PUBCHEM_COORDINATE_TYPE>
2
5
10

$$$$
