142290
  -OEChem-11012400533D

 30 29  0     1  0  0  0  0  0999 V2000
   -1.8584   -0.7018   -0.4341 O   0  0  0  0  0  0  0  0  0  0  0  0
   -0.7591    0.0557    0.1469 O   0  0  0  0  0  0  0  0  0  0  0  0
    1.6560    1.4623   -0.2376 O   0  0  0  0  0  0  0  0  0  0  0  0
    4.0456    0.1702    0.3178 O   0  0  0  0  0  0  0  0  0  0  0  0
   -3.0421   -0.0439    0.0191 C   0  0  0  0  0  0  0  0  0  0  0  0
    1.6483    0.1190    0.2511 C   0  0  1  0  0  0  0  0  0  0  0  0
   -3.0159    1.4009   -0.4775 C   0  0  0  0  0  0  0  0  0  0  0  0
   -4.2374   -0.7921   -0.5671 C   0  0  0  0  0  0  0  0  0  0  0  0
   -3.0727   -0.0948    1.5460 C   0  0  0  0  0  0  0  0  0  0  0  0
    0.4205   -0.5957   -0.3018 C   0  0  0  0  0  0  0  0  0  0  0  0
    2.9365   -0.5541   -0.2039 C   0  0  0  0  0  0  0  0  0  0  0  0
    5.2786   -0.4257   -0.0589 C   0  0  0  0  0  0  0  0  0  0  0  0
    1.5987    0.1843    1.3438 H   0  0  0  0  0  0  0  0  0  0  0  0
   -2.8528    1.4371   -1.5608 H   0  0  0  0  0  0  0  0  0  0  0  0
   -3.9589    1.9119   -0.2545 H   0  0  0  0  0  0  0  0  0  0  0  0
   -2.2117    1.9874   -0.0198 H   0  0  0  0  0  0  0  0  0  0  0  0
   -4.2328   -1.8417   -0.2514 H   0  0  0  0  0  0  0  0  0  0  0  0
   -4.1937   -0.7985   -1.6623 H   0  0  0  0  0  0  0  0  0  0  0  0
   -5.1874   -0.3422   -0.2609 H   0  0  0  0  0  0  0  0  0  0  0  0
   -2.2657    0.4900    2.0010 H   0  0  0  0  0  0  0  0  0  0  0  0
   -4.0189    0.2970    1.9351 H   0  0  0  0  0  0  0  0  0  0  0  0
   -2.9535   -1.1242    1.9033 H   0  0  0  0  0  0  0  0  0  0  0  0
    0.4037   -1.6392    0.0324 H   0  0  0  0  0  0  0  0  0  0  0  0
    0.4281   -0.5697   -1.3980 H   0  0  0  0  0  0  0  0  0  0  0  0
    3.0004   -0.5476   -1.2988 H   0  0  0  0  0  0  0  0  0  0  0  0
    2.9696   -1.5898    0.1534 H   0  0  0  0  0  0  0  0  0  0  0  0
    2.4518    1.8958    0.1153 H   0  0  0  0  0  0  0  0  0  0  0  0
    5.3493   -1.4441    0.3351 H   0  0  0  0  0  0  0  0  0  0  0  0
    6.0921    0.1690    0.3652 H   0  0  0  0  0  0  0  0  0  0  0  0
    5.3843   -0.4345   -1.1480 H   0  0  0  0  0  0  0  0  0  0  0  0
  1  2  1  0  0  0  0
  1  5  1  0  0  0  0
  2 10  1  0  0  0  0
  3  6  1  0  0  0  0
  3 27  1  0  0  0  0
  4 11  1  0  0  0  0
  4 12  1  0  0  0  0
  5  7  1  0  0  0  0
  5  8  1  0  0  0  0
  5  9  1  0  0  0  0
  6 10  1  0  0  0  0
  6 11  1  0  0  0  0
  6 13  1  0  0  0  0
  7 14  1  0  0  0  0
  7 15  1  0  0  0  0
  7 16  1  0  0  0  0
  8 17  1  0  0  0  0
  8 18  1  0  0  0  0
  8 19  1  0  0  0  0
  9 20  1  0  0  0  0
  9 21  1  0  0  0  0
  9 22  1  0  0  0  0
 10 23  1  0  0  0  0
 10 24  1  0  0  0  0
 11 25  1  0  0  0  0
 11 26  1  0  0  0  0
 12 28  1  0  0  0  0
 12 29  1  0  0  0  0
 12 30  1  0  0  0  0
M  END
> <PUBCHEM_COMPOUND_CID>
142290

> <PUBCHEM_CONFORMER_RMSD>
0.6

> <PUBCHEM_CONFORMER_DIVERSEORDER>
1
47
34
62
30
36
19
71
38
35
53
66
67
26
50
41
32
55
58
37
59
8
60
40
3
29
22
6
51
68
23
33
46
20
25
52
44
63
49
61
56
24
17
43
4
27
70
14
18
13
21
15
45
5
28
39
11
31
2
42
54
65
7
69
57
12
9
48
64
16
10

> <PUBCHEM_MMFF94_PARTIAL_CHARGES>
10
1 -0.28
10 0.28
11 0.28
12 0.28
2 -0.28
27 0.4
3 -0.68
4 -0.56
5 0.28
6 0.28

> <PUBCHEM_EFFECTIVE_ROTOR_COUNT>
6

> <PUBCHEM_PHARMACOPHORE_FEATURES>
4
1 3 acceptor
1 3 donor
1 4 acceptor
4 5 7 8 9 hydrophobe

> <PUBCHEM_HEAVY_ATOM_COUNT>
12

> <PUBCHEM_ATOM_DEF_STEREO_COUNT>
0

> <PUBCHEM_ATOM_UDEF_STEREO_COUNT>
1

> <PUBCHEM_BOND_DEF_STEREO_COUNT>
0

> <PUBCHEM_BOND_UDEF_STEREO_COUNT>
0

> <PUBCHEM_ISOTOPIC_ATOM_COUNT>
0

> <PUBCHEM_COMPONENT_COUNT>
1

> <PUBCHEM_CACTVS_TAUTO_COUNT>
1

> <PUBCHEM_CONFORMER_ID>
00022BD200000001

> <PUBCHEM_MMFF94_ENERGY>
24.892

> <PUBCHEM_FEATURE_SELFOVERLAP>
20.302

> <PUBCHEM_SHAPE_FINGERPRINT>
10680689 15 18408608054071405554
11062470 55 14261352457556481410
124424 183 18040152915837216089
12916754 54 18341049735156191303
14123238 8 18202001044947517902
17802600 8 18411975884221078245
17834072 33 18130222765686523468
190213 19 17775849007933107134
200 152 17917703613688719183
20279233 1 18040721354843575659
20645477 70 18267861692757373118
20671657 1 18194406816834892684
20719005 15 18272087201883881814
20828058 21 18334576832772808462
20828058 44 16443067201085137426
22485316 2 18335416846813894218
2306618 200 18202004296538759993
23380061 127 16702303451486188123
23402539 116 15267338505050052889
42788 4 16988843882856445946

> <PUBCHEM_SHAPE_MULTIPOLES>
223.48
9.94
1.08
0.9
7.94
0.35
0.3
-1.15
-0.04
-0.46
-0.18
-0.83
-0.04
0.04

> <PUBCHEM_SHAPE_SELFOVERLAP>
409.318

> <PUBCHEM_SHAPE_VOLUME>
144.5

> <PUBCHEM_COORDINATE_TYPE>
2
5
10

$$$$
