137247
  -OEChem-11012400403D

 29 30  0     0  0  0  0  0  0999 V2000
    2.1714    0.9259   -0.0019 N   0  0  0  0  0  0  0  0  0  0  0  0
   -2.1906    1.0904   -0.0042 N   0  0  0  0  0  0  0  0  0  0  0  0
    1.0413    0.1919   -0.0018 N   0  0  0  0  0  0  0  0  0  0  0  0
   -1.2508    0.2643   -0.0033 N   0  0  0  0  0  0  0  0  0  0  0  0
    3.4304    0.3054   -0.0001 C   0  0  0  0  0  0  0  0  0  0  0  0
    4.5964    1.0774    0.0026 C   0  0  0  0  0  0  0  0  0  0  0  0
    3.5278   -1.0896   -0.0016 C   0  0  0  0  0  0  0  0  0  0  0  0
    5.8474    0.4605    0.0036 C   0  0  0  0  0  0  0  0  0  0  0  0
    4.7789   -1.7064   -0.0005 C   0  0  0  0  0  0  0  0  0  0  0  0
    5.9387   -0.9312    0.0022 C   0  0  0  0  0  0  0  0  0  0  0  0
   -3.4180    0.4204   -0.0016 C   0  0  0  0  0  0  0  0  0  0  0  0
   -4.0289    0.0889    1.2080 C   0  0  0  0  0  0  0  0  0  0  0  0
   -4.0315    0.0830   -1.2082 C   0  0  0  0  0  0  0  0  0  0  0  0
   -5.2528   -0.5801    1.2109 C   0  0  0  0  0  0  0  0  0  0  0  0
   -5.2555   -0.5860   -1.2050 C   0  0  0  0  0  0  0  0  0  0  0  0
   -5.8660   -0.9175    0.0046 C   0  0  0  0  0  0  0  0  0  0  0  0
   -0.0382    0.9028   -0.0036 C   0  0  0  0  0  0  0  0  0  0  0  0
    4.5401    2.1631    0.0036 H   0  0  0  0  0  0  0  0  0  0  0  0
    2.6462   -1.7251   -0.0038 H   0  0  0  0  0  0  0  0  0  0  0  0
    6.7505    1.0638    0.0056 H   0  0  0  0  0  0  0  0  0  0  0  0
    4.8507   -2.7901   -0.0017 H   0  0  0  0  0  0  0  0  0  0  0  0
    6.9128   -1.4116    0.0030 H   0  0  0  0  0  0  0  0  0  0  0  0
   -3.5594    0.3481    2.1534 H   0  0  0  0  0  0  0  0  0  0  0  0
   -3.5641    0.3375   -2.1559 H   0  0  0  0  0  0  0  0  0  0  0  0
    2.1378    1.9393   -0.0014 H   0  0  0  0  0  0  0  0  0  0  0  0
   -5.7284   -0.8382    2.1526 H   0  0  0  0  0  0  0  0  0  0  0  0
   -5.7333   -0.8487   -2.1443 H   0  0  0  0  0  0  0  0  0  0  0  0
   -6.8191   -1.4383    0.0069 H   0  0  0  0  0  0  0  0  0  0  0  0
   -0.0122    2.0101   -0.0051 H   0  0  0  0  0  0  0  0  0  0  0  0
  1  3  1  0  0  0  0
  1  5  1  0  0  0  0
  1 25  1  0  0  0  0
  2  4  2  0  0  0  0
  2 11  1  0  0  0  0
  3 17  2  3  0  0  0
  4 17  1  0  0  0  0
  5  6  2  0  0  0  0
  5  7  1  0  0  0  0
  6  8  1  0  0  0  0
  6 18  1  0  0  0  0
  7  9  2  0  0  0  0
  7 19  1  0  0  0  0
  8 10  2  0  0  0  0
  8 20  1  0  0  0  0
  9 10  1  0  0  0  0
  9 21  1  0  0  0  0
 10 22  1  0  0  0  0
 11 12  2  0  0  0  0
 11 13  1  0  0  0  0
 12 14  1  0  0  0  0
 12 23  1  0  0  0  0
 13 15  2  0  0  0  0
 13 24  1  0  0  0  0
 14 16  2  0  0  0  0
 14 26  1  0  0  0  0
 15 16  1  0  0  0  0
 15 27  1  0  0  0  0
 16 28  1  0  0  0  0
 17 29  1  0  0  0  0
M  END
> <PUBCHEM_COMPOUND_CID>
137247

> <PUBCHEM_CONFORMER_RMSD>
0.6

> <PUBCHEM_CONFORMER_DIVERSEORDER>
1
7
8
5
6
2
3
4

> <PUBCHEM_MMFF94_PARTIAL_CHARGES>
29
1 -0.46
10 -0.15
11 0.18
12 -0.15
13 -0.15
14 -0.15
15 -0.15
16 -0.15
17 0.6
18 0.15
19 0.15
2 -0.18
20 0.15
21 0.15
22 0.15
23 0.15
24 0.15
25 0.4
26 0.15
27 0.15
28 0.15
29 0.06
3 -0.49
4 -0.21
5 0.1
6 -0.15
7 -0.15
8 -0.15
9 -0.15

> <PUBCHEM_EFFECTIVE_ROTOR_COUNT>
4

> <PUBCHEM_PHARMACOPHORE_FEATURES>
4
1 1 donor
3 3 4 17 cation
6 11 12 13 14 15 16 rings
6 5 6 7 8 9 10 rings

> <PUBCHEM_HEAVY_ATOM_COUNT>
17

> <PUBCHEM_ATOM_DEF_STEREO_COUNT>
0

> <PUBCHEM_ATOM_UDEF_STEREO_COUNT>
0

> <PUBCHEM_BOND_DEF_STEREO_COUNT>
0

> <PUBCHEM_BOND_UDEF_STEREO_COUNT>
1

> <PUBCHEM_ISOTOPIC_ATOM_COUNT>
0

> <PUBCHEM_COMPONENT_COUNT>
1

> <PUBCHEM_CACTVS_TAUTO_COUNT>
1

> <PUBCHEM_CONFORMER_ID>
0002181F00000001

> <PUBCHEM_MMFF94_ENERGY>
48.13

> <PUBCHEM_FEATURE_SELFOVERLAP>
20.297

> <PUBCHEM_SHAPE_FINGERPRINT>
10912923 1 17632859745491855705
11287383 113 17676209095603321036
11315181 36 17530687623724016661
117890 112 7853854988250927318
12091667 2 18413670205885436489
12107183 9 17339015035440994018
12236239 1 17918276454202918681
12516196 113 18343863329245104400
12596602 18 16702018686369727138
13167823 11 18272086076238407982
13288520 33 18343020004432988661
13533116 47 18202566155739182514
13668630 136 18334296474445812395
13685833 64 18334018311067793507
13885169 127 18334857204750103933
1420 363 18259989274979147930
14251718 22 17240484719000031628
14455015 7 18334862705511148139
14528608 73 13623535674994270558
14848160 23 17967250901179986714
15183329 4 11602819094874306558
15348495 7 13470393505039261246
15716309 27 18131071532549029595
17834072 33 18272930535802584820
17844677 252 18409170999783185444
17857418 61 18273210902419374343
17870717 6 16950565480799551459
19489759 90 15936407836480241573
200 152 18412824681480541721
20281389 69 10519987054154639603
20645477 70 18336828598564677094
21150785 3 15864079792499127694
21267235 1 18271531906147666550
212847 35 10953460730666433150
21623969 137 18411707586003850914
220451 1 17989210360437177942
22061861 79 18113052718591835846
2297311 6 16732985332471237813
23081809 10 18411423899377263772
23402539 116 18343582923942110017
23402655 69 11097862895408744296
23522609 53 17986701296188552360
23559900 14 17386287704938715597
239999 70 18040436594960350818
2767999 5 11386367058144721790
3014965 18 10231490592321572988
314194 84 18342457049535786034
34797466 226 16733276710793252694
351380 3 18131347509724995430
465052 167 18273498966398065814
49783359 22 18202845448339477351
5104073 3 18269270175874013816
542803 24 15554446305868679896
7495541 125 17418087754377356584

> <PUBCHEM_SHAPE_MULTIPOLES>
329.93
18.1
1.26
0.96
2.08
0.24
0
5.07
-0.03
1.27
0
-1.69
0.09
0

> <PUBCHEM_SHAPE_SELFOVERLAP>
699.668

> <PUBCHEM_SHAPE_VOLUME>
183.5

> <PUBCHEM_COORDINATE_TYPE>
2
5
10

$$$$
