137055
  -OEChem-11012400523D

 37 38  0     0  0  0  0  0  0999 V2000
   -0.0191    1.2143   -0.2770 C   0  0  0  0  0  0  0  0  0  0  0  0
   -0.8179    0.5038    0.8451 C   0  0  0  0  0  0  0  0  0  0  0  0
    1.4282    1.5741    0.1448 C   0  0  0  0  0  0  0  0  0  0  0  0
   -0.7717    2.4795   -0.7578 C   0  0  0  0  0  0  0  0  0  0  0  0
   -2.0346   -0.2643    0.3854 C   0  0  0  0  0  0  0  0  0  0  0  0
    2.4256    0.4425    0.0655 C   0  0  0  0  0  0  0  0  0  0  0  0
   -0.9616    3.5655    0.2928 C   0  0  0  0  0  0  0  0  0  0  0  0
   -3.2596    0.3801    0.3217 C   0  0  0  0  0  0  0  0  0  0  0  0
    2.6169   -0.3718    1.1701 C   0  0  0  0  0  0  0  0  0  0  0  0
   -1.9028   -1.5985    0.0357 C   0  0  0  0  0  0  0  0  0  0  0  0
    3.1300    0.2400   -1.1103 C   0  0  0  0  0  0  0  0  0  0  0  0
   -4.3832   -0.3291   -0.1028 C   0  0  0  0  0  0  0  0  0  0  0  0
    3.5377   -1.4169    1.0969 C   0  0  0  0  0  0  0  0  0  0  0  0
   -3.0265   -2.3075   -0.3890 C   0  0  0  0  0  0  0  0  0  0  0  0
    4.0507   -0.8053   -1.1833 C   0  0  0  0  0  0  0  0  0  0  0  0
   -4.2667   -1.6727   -0.4582 C   0  0  0  0  0  0  0  0  0  0  0  0
    4.2546   -1.6337   -0.0796 C   0  0  0  0  0  0  0  0  0  0  0  0
    0.0409    0.5380   -1.1414 H   0  0  0  0  0  0  0  0  0  0  0  0
   -1.0988    1.2006    1.6431 H   0  0  0  0  0  0  0  0  0  0  0  0
   -0.1654   -0.2184    1.3497 H   0  0  0  0  0  0  0  0  0  0  0  0
    1.8047    2.3892   -0.4887 H   0  0  0  0  0  0  0  0  0  0  0  0
    1.4300    1.9841    1.1638 H   0  0  0  0  0  0  0  0  0  0  0  0
   -1.7481    2.2049   -1.1710 H   0  0  0  0  0  0  0  0  0  0  0  0
   -0.2140    2.9134   -1.5982 H   0  0  0  0  0  0  0  0  0  0  0  0
   -1.4246    4.4448   -0.1680 H   0  0  0  0  0  0  0  0  0  0  0  0
   -0.0084    3.8851    0.7231 H   0  0  0  0  0  0  0  0  0  0  0  0
   -1.6197    3.2441    1.1038 H   0  0  0  0  0  0  0  0  0  0  0  0
   -3.3656    1.4233    0.6033 H   0  0  0  0  0  0  0  0  0  0  0  0
    2.0735   -0.2072    2.0956 H   0  0  0  0  0  0  0  0  0  0  0  0
   -0.9410   -2.1009    0.0831 H   0  0  0  0  0  0  0  0  0  0  0  0
    2.9761    0.8778   -1.9759 H   0  0  0  0  0  0  0  0  0  0  0  0
   -5.3492    0.1646   -0.1550 H   0  0  0  0  0  0  0  0  0  0  0  0
    3.6982   -2.0604    1.9570 H   0  0  0  0  0  0  0  0  0  0  0  0
   -2.9357   -3.3536   -0.6665 H   0  0  0  0  0  0  0  0  0  0  0  0
    4.6085   -0.9748   -2.0997 H   0  0  0  0  0  0  0  0  0  0  0  0
   -5.1415   -2.2249   -0.7886 H   0  0  0  0  0  0  0  0  0  0  0  0
    4.9718   -2.4473   -0.1365 H   0  0  0  0  0  0  0  0  0  0  0  0
  1  2  1  0  0  0  0
  1  3  1  0  0  0  0
  1  4  1  0  0  0  0
  1 18  1  0  0  0  0
  2  5  1  0  0  0  0
  2 19  1  0  0  0  0
  2 20  1  0  0  0  0
  3  6  1  0  0  0  0
  3 21  1  0  0  0  0
  3 22  1  0  0  0  0
  4  7  1  0  0  0  0
  4 23  1  0  0  0  0
  4 24  1  0  0  0  0
  5  8  2  0  0  0  0
  5 10  1  0  0  0  0
  6  9  2  0  0  0  0
  6 11  1  0  0  0  0
  7 25  1  0  0  0  0
  7 26  1  0  0  0  0
  7 27  1  0  0  0  0
  8 12  1  0  0  0  0
  8 28  1  0  0  0  0
  9 13  1  0  0  0  0
  9 29  1  0  0  0  0
 10 14  2  0  0  0  0
 10 30  1  0  0  0  0
 11 15  2  0  0  0  0
 11 31  1  0  0  0  0
 12 16  2  0  0  0  0
 12 32  1  0  0  0  0
 13 17  2  0  0  0  0
 13 33  1  0  0  0  0
 14 16  1  0  0  0  0
 14 34  1  0  0  0  0
 15 17  1  0  0  0  0
 15 35  1  0  0  0  0
 16 36  1  0  0  0  0
 17 37  1  0  0  0  0
M  END
> <PUBCHEM_COMPOUND_CID>
137055

> <PUBCHEM_CONFORMER_RMSD>
0.6

> <PUBCHEM_CONFORMER_DIVERSEORDER>
1
13
20
8
29
18
12
17
11
25
24
16
26
10
21
22
23
3
4
5
27
14
6
15
28
9
19
7
2

> <PUBCHEM_MMFF94_PARTIAL_CHARGES>
24
10 -0.15
11 -0.15
12 -0.15
13 -0.15
14 -0.15
15 -0.15
16 -0.15
17 -0.15
2 0.14
28 0.15
29 0.15
3 0.14
30 0.15
31 0.15
32 0.15
33 0.15
34 0.15
35 0.15
36 0.15
37 0.15
5 -0.14
6 -0.14
8 -0.15
9 -0.15

> <PUBCHEM_EFFECTIVE_ROTOR_COUNT>
5

> <PUBCHEM_PHARMACOPHORE_FEATURES>
4
1 7 hydrophobe
4 1 2 3 4 hydrophobe
6 5 8 10 12 14 16 rings
6 6 9 11 13 15 17 rings

> <PUBCHEM_HEAVY_ATOM_COUNT>
17

> <PUBCHEM_ATOM_DEF_STEREO_COUNT>
0

> <PUBCHEM_ATOM_UDEF_STEREO_COUNT>
0

> <PUBCHEM_BOND_DEF_STEREO_COUNT>
0

> <PUBCHEM_BOND_UDEF_STEREO_COUNT>
0

> <PUBCHEM_ISOTOPIC_ATOM_COUNT>
0

> <PUBCHEM_COMPONENT_COUNT>
1

> <PUBCHEM_CACTVS_TAUTO_COUNT>
1

> <PUBCHEM_CONFORMER_ID>
0002175F00000001

> <PUBCHEM_MMFF94_ENERGY>
43.7556

> <PUBCHEM_FEATURE_SELFOVERLAP>
20.341

> <PUBCHEM_SHAPE_FINGERPRINT>
10062212 137 18272931665706466655
10618630 7 18409728469500105556
11578080 2 17750210587713952228
116883 192 18411983524762046212
11715629 250 10737274766696813059
12346177 29 18202558454482746237
12363563 72 18412267258838767974
12553582 1 18408046216546234154
12633257 1 17845667949136892881
12788726 201 18336273335974955416
13583140 156 14907900414430555673
14123255 52 8935005866769662667
14178342 30 18047172082801023992
15342816 4 18338237166900324430
15885798 251 18411699893954339425
16752209 62 18189323581263613465
17492 89 18053099811695461495
17804303 29 18272653458903942993
1798214 20 18334292093246737622
18186145 218 15647051572905649547
18915474 69 18334300885429784718
20281475 54 18411985758234730224
20291156 8 18409731797999611123
20374829 77 18410290306877876498
20626108 58 18129370674066071575
20645477 70 18266457792243373087
20671657 53 18340206401005399185
21250096 35 18410009970225683415
21634736 98 18260275157083038124
22646028 28 18411418427409548138
23557571 272 18338785771958571312
23559900 14 18131631213958758784
3004659 81 18186518804542456518
31174 14 17846205709429090808
314173 41 18264775526562737995
49207404 50 10663549261027803501
603831 33 18113625560450707268
6333272 397 10303815397205950493
7164475 11 18187922816524418428
7364860 26 17908705381967528617
81228 2 18261394420785873992
960060 61 18113617923450541031
9709674 26 18049722116216821939

> <PUBCHEM_SHAPE_MULTIPOLES>
349.85
8.78
2.96
1.05
0.71
2.22
0
-6.5
-1.04
-1.5
-0.16
0.84
-0.09
-0.52

> <PUBCHEM_SHAPE_SELFOVERLAP>
728.637

> <PUBCHEM_SHAPE_VOLUME>
190.9

> <PUBCHEM_COORDINATE_TYPE>
2
5
10

$$$$
