5462822
  -OEChem-11012401173D

 24 23  0     0  0  0  0  0  0999 V2000
    5.8227    0.2557   -0.0035 O   0  0  0  0  0  0  0  0  0  0  0  0
   -3.8907   -0.0067   -0.0506 N   0  0  0  0  0  0  0  0  0  0  0  0
   -2.6186   -0.4793    0.0032 C   0  0  0  0  0  0  0  0  0  0  0  0
   -5.0439   -0.9001    0.0256 C   0  0  0  0  0  0  0  0  0  0  0  0
   -4.1845    1.4197    0.0627 C   0  0  0  0  0  0  0  0  0  0  0  0
   -1.4830    0.2294   -0.0557 C   0  0  0  0  0  0  0  0  0  0  0  0
   -0.1723   -0.3795    0.0117 C   0  0  0  0  0  0  0  0  0  0  0  0
    1.0198    0.2368   -0.0381 C   0  0  0  0  0  0  0  0  0  0  0  0
    2.3315   -0.3721    0.0293 C   0  0  0  0  0  0  0  0  0  0  0  0
    3.4599    0.3465   -0.0306 C   0  0  0  0  0  0  0  0  0  0  0  0
    4.7590   -0.3502    0.0461 C   0  0  0  0  0  0  0  0  0  0  0  0
   -2.5755   -1.5618    0.0875 H   0  0  0  0  0  0  0  0  0  0  0  0
   -5.3695   -1.0063    1.0656 H   0  0  0  0  0  0  0  0  0  0  0  0
   -4.8088   -1.8955   -0.3676 H   0  0  0  0  0  0  0  0  0  0  0  0
   -5.8800   -0.5106   -0.5651 H   0  0  0  0  0  0  0  0  0  0  0  0
   -5.2620    1.6154    0.0269 H   0  0  0  0  0  0  0  0  0  0  0  0
   -3.7289    1.9766   -0.7633 H   0  0  0  0  0  0  0  0  0  0  0  0
   -3.8106    1.8172    1.0127 H   0  0  0  0  0  0  0  0  0  0  0  0
   -1.5044    1.3110   -0.1528 H   0  0  0  0  0  0  0  0  0  0  0  0
   -0.1707   -1.4647    0.1145 H   0  0  0  0  0  0  0  0  0  0  0  0
    1.0188    1.3221   -0.1411 H   0  0  0  0  0  0  0  0  0  0  0  0
    2.3648   -1.4535    0.1326 H   0  0  0  0  0  0  0  0  0  0  0  0
    3.4698    1.4256   -0.1332 H   0  0  0  0  0  0  0  0  0  0  0  0
    4.7200   -1.4474    0.1505 H   0  0  0  0  0  0  0  0  0  0  0  0
  1 11  2  0  0  0  0
  2  3  1  0  0  0  0
  2  4  1  0  0  0  0
  2  5  1  0  0  0  0
  3  6  2  0  0  0  0
  3 12  1  0  0  0  0
  4 13  1  0  0  0  0
  4 14  1  0  0  0  0
  4 15  1  0  0  0  0
  5 16  1  0  0  0  0
  5 17  1  0  0  0  0
  5 18  1  0  0  0  0
  6  7  1  0  0  0  0
  6 19  1  0  0  0  0
  7  8  2  0  0  0  0
  7 20  1  0  0  0  0
  8  9  1  0  0  0  0
  8 21  1  0  0  0  0
  9 10  2  0  0  0  0
  9 22  1  0  0  0  0
 10 11  1  0  0  0  0
 10 23  1  0  0  0  0
 11 24  1  0  0  0  0
M  END
> <PUBCHEM_COMPOUND_CID>
5462822

> <PUBCHEM_CONFORMER_RMSD>
0.6

> <PUBCHEM_CONFORMER_DIVERSEORDER>
1
3
4
9
2
8
5
6
7
10

> <PUBCHEM_MMFF94_PARTIAL_CHARGES>
18
1 -0.57
10 -0.14
11 0.5
12 0.15
19 0.15
2 -0.84
20 0.15
21 0.15
22 0.15
23 0.15
24 0.06
3 -0.05
4 0.37
5 0.37
6 -0.15
7 -0.15
8 -0.15
9 -0.15

> <PUBCHEM_EFFECTIVE_ROTOR_COUNT>
4

> <PUBCHEM_PHARMACOPHORE_FEATURES>
2
1 1 acceptor
1 2 cation

> <PUBCHEM_HEAVY_ATOM_COUNT>
11

> <PUBCHEM_ATOM_DEF_STEREO_COUNT>
0

> <PUBCHEM_ATOM_UDEF_STEREO_COUNT>
0

> <PUBCHEM_BOND_DEF_STEREO_COUNT>
3

> <PUBCHEM_BOND_UDEF_STEREO_COUNT>
0

> <PUBCHEM_ISOTOPIC_ATOM_COUNT>
0

> <PUBCHEM_COMPONENT_COUNT>
1

> <PUBCHEM_CACTVS_TAUTO_COUNT>
1

> <PUBCHEM_CONFORMER_ID>
00535B2600000001

> <PUBCHEM_MMFF94_ENERGY>
17.4191

> <PUBCHEM_FEATURE_SELFOVERLAP>
10.148

> <PUBCHEM_SHAPE_FINGERPRINT>
10680689 15 17775281681924956471
11062470 55 18410856555350103522
114248 4 18131633391491086970
12091667 2 18342457049388060438
14123238 8 17967532376309645710
14251718 22 18412825806535054858
15501527 16 18342178817792491241
17834072 33 18411138082135525244
17834076 25 18259704501973949514
20645477 70 17774165596066404214
20719005 15 18410292518907164838
22485316 2 18272650134362151846
23402539 116 18411132532937591109
366044 4 18260829310685286362
42788 4 18411136939874586916

> <PUBCHEM_SHAPE_MULTIPOLES>
215.52
12.9
0.96
0.6
5.96
0.18
0
0.08
0.16
-1.1
0.01
-0.02
0
-0.04

> <PUBCHEM_SHAPE_SELFOVERLAP>
404.519

> <PUBCHEM_SHAPE_VOLUME>
134.7

> <PUBCHEM_COORDINATE_TYPE>
2
5
10

$$$$
