140047
  -OEChem-11012401133D

 30 32  0     0  0  0  0  0  0999 V2000
   -0.8269    0.6136    1.5864 S   0  0  0  0  0  0  0  0  0  0  0  0
    0.8307   -0.6146    1.5864 S   0  0  0  0  0  0  0  0  0  0  0  0
   -2.9538    0.0615   -0.0285 C   0  0  0  0  0  0  0  0  0  0  0  0
    2.9564   -0.0619   -0.0287 C   0  0  0  0  0  0  0  0  0  0  0  0
   -1.4903    0.1503    0.0455 C   0  0  0  0  0  0  0  0  0  0  0  0
    1.4931   -0.1521    0.0453 C   0  0  0  0  0  0  0  0  0  0  0  0
   -0.7231   -0.0569   -1.0413 C   0  0  0  0  0  0  0  0  0  0  0  0
    0.7258    0.0543   -1.0416 C   0  0  0  0  0  0  0  0  0  0  0  0
   -3.5958   -1.1581    0.2015 C   0  0  0  0  0  0  0  0  0  0  0  0
    3.5923    1.1581    0.2013 C   0  0  0  0  0  0  0  0  0  0  0  0
   -3.7121    1.1961   -0.3285 C   0  0  0  0  0  0  0  0  0  0  0  0
    3.7110   -1.1959   -0.3285 C   0  0  0  0  0  0  0  0  0  0  0  0
   -4.9865   -1.2425    0.1318 C   0  0  0  0  0  0  0  0  0  0  0  0
    4.9828    1.2440    0.1317 C   0  0  0  0  0  0  0  0  0  0  0  0
   -5.1026    1.1118   -0.3981 C   0  0  0  0  0  0  0  0  0  0  0  0
    5.1014   -1.1101   -0.3982 C   0  0  0  0  0  0  0  0  0  0  0  0
   -5.7398   -0.1076   -0.1680 C   0  0  0  0  0  0  0  0  0  0  0  0
    5.7374    0.1099   -0.1682 C   0  0  0  0  0  0  0  0  0  0  0  0
   -1.1731   -0.3018   -2.0003 H   0  0  0  0  0  0  0  0  0  0  0  0
    1.1757    0.2991   -2.0008 H   0  0  0  0  0  0  0  0  0  0  0  0
   -3.0234   -2.0525    0.4364 H   0  0  0  0  0  0  0  0  0  0  0  0
    3.0184    2.0515    0.4362 H   0  0  0  0  0  0  0  0  0  0  0  0
   -3.2319    2.1545   -0.5117 H   0  0  0  0  0  0  0  0  0  0  0  0
    3.2311   -2.1544   -0.5115 H   0  0  0  0  0  0  0  0  0  0  0  0
   -5.4827   -2.1919    0.3110 H   0  0  0  0  0  0  0  0  0  0  0  0
    5.4781    2.1939    0.3108 H   0  0  0  0  0  0  0  0  0  0  0  0
   -5.6894    1.9954   -0.6317 H   0  0  0  0  0  0  0  0  0  0  0  0
    5.6891   -1.9931   -0.6318 H   0  0  0  0  0  0  0  0  0  0  0  0
   -6.8225   -0.1732   -0.2223 H   0  0  0  0  0  0  0  0  0  0  0  0
    6.8200    0.1767   -0.2225 H   0  0  0  0  0  0  0  0  0  0  0  0
  1  2  1  0  0  0  0
  1  5  1  0  0  0  0
  2  6  1  0  0  0  0
  3  5  1  0  0  0  0
  3  9  2  0  0  0  0
  3 11  1  0  0  0  0
  4  6  1  0  0  0  0
  4 10  2  0  0  0  0
  4 12  1  0  0  0  0
  5  7  2  0  0  0  0
  6  8  2  0  0  0  0
  7  8  1  0  0  0  0
  7 19  1  0  0  0  0
  8 20  1  0  0  0  0
  9 13  1  0  0  0  0
  9 21  1  0  0  0  0
 10 14  1  0  0  0  0
 10 22  1  0  0  0  0
 11 15  2  0  0  0  0
 11 23  1  0  0  0  0
 12 16  2  0  0  0  0
 12 24  1  0  0  0  0
 13 17  2  0  0  0  0
 13 25  1  0  0  0  0
 14 18  2  0  0  0  0
 14 26  1  0  0  0  0
 15 17  1  0  0  0  0
 15 27  1  0  0  0  0
 16 18  1  0  0  0  0
 16 28  1  0  0  0  0
 17 29  1  0  0  0  0
 18 30  1  0  0  0  0
M  END
> <PUBCHEM_COMPOUND_CID>
140047

> <PUBCHEM_CONFORMER_RMSD>
0.6

> <PUBCHEM_CONFORMER_DIVERSEORDER>
1
3
2

> <PUBCHEM_MMFF94_PARTIAL_CHARGES>
30
1 -0.1
10 -0.15
11 -0.15
12 -0.15
13 -0.15
14 -0.15
15 -0.15
16 -0.15
17 -0.15
18 -0.15
19 0.15
2 -0.1
20 0.15
21 0.15
22 0.15
23 0.15
24 0.15
25 0.15
26 0.15
27 0.15
28 0.15
29 0.15
3 0.03
30 0.15
4 0.03
5 0.07
6 0.07
7 -0.15
8 -0.15
9 -0.15

> <PUBCHEM_EFFECTIVE_ROTOR_COUNT>
2.4

> <PUBCHEM_PHARMACOPHORE_FEATURES>
3
6 1 2 5 6 7 8 rings
6 3 9 11 13 15 17 rings
6 4 10 12 14 16 18 rings

> <PUBCHEM_HEAVY_ATOM_COUNT>
18

> <PUBCHEM_ATOM_DEF_STEREO_COUNT>
0

> <PUBCHEM_ATOM_UDEF_STEREO_COUNT>
0

> <PUBCHEM_BOND_DEF_STEREO_COUNT>
0

> <PUBCHEM_BOND_UDEF_STEREO_COUNT>
0

> <PUBCHEM_ISOTOPIC_ATOM_COUNT>
0

> <PUBCHEM_COMPONENT_COUNT>
1

> <PUBCHEM_CACTVS_TAUTO_COUNT>
1

> <PUBCHEM_CONFORMER_ID>
0002230F00000001

> <PUBCHEM_MMFF94_ENERGY>
53.4755

> <PUBCHEM_FEATURE_SELFOVERLAP>
15.224

> <PUBCHEM_SHAPE_FINGERPRINT>
10595046 47 18410292527354616160
11287383 113 18411419527005201658
11401426 45 16805322206103440683
12107183 9 17617940231690912432
12236239 1 18410575080368111654
13167823 11 18410571781849494359
13288520 33 18407761448078563647
13533116 47 16916790639736784726
13760787 5 16774076284438605024
13862211 1 15770053917209002293
1420 363 18186806893715880107
14251718 22 18408885152692686931
14341114 176 18412549820489690197
14528608 73 18040434403888758706
14573314 32 18335421248701490742
15048467 5 18411698785641903885
15788980 27 18060416919553356103
17834072 33 18412261748543335830
17834076 25 16515685541536633007
17844677 252 18412269427792269965
1813 80 14979964682842731744
19489759 90 18259703393803925805
200 152 18131070424268041352
20612939 158 15338827711832531489
20645477 70 18271810073599035598
20681677 155 18113899351841890435
21033648 29 17988345010542937841
21054139 6 17313382391762473171
21267235 1 17489317365252918702
21641784 216 17059794272569442656
23402539 116 16515401876416745463
23536379 177 18410573963676614739
23557571 272 18410576150189995693
23559900 14 18411978087285872873
23569914 2 17618165850624823765
23569943 247 17097765769037283378
26918003 58 18201720651996747055
29717793 49 17274830121410925484
300161 21 17749100076742631679
3004659 81 18341333314857073362
34797466 226 18341900713700170997
351380 180 18187083970582996900
3545911 37 18410856563961208692
4073 2 18041285456159520970
4214541 1 18409730647249147205
42788 4 18410292510174766597
4340502 62 18342453755776242698
465052 167 17132117973910864534
4990 188 18333733494474832906
5104073 3 18410856542459921243
5283173 99 18338515240358362729
542803 24 17918276441576388593
59755656 520 17603581950295191818
7495541 125 17560516321454160595
9971528 1 17748829613888086148

> <PUBCHEM_SHAPE_MULTIPOLES>
378.13
13.99
1.28
1.11
0.04
0
-0.38
0.01
1.94
0
-0.02
0
0
0.46

> <PUBCHEM_SHAPE_SELFOVERLAP>
800.348

> <PUBCHEM_SHAPE_VOLUME>
208.2

> <PUBCHEM_COORDINATE_TYPE>
2
5
10

$$$$
