69050
  -OEChem-11012400503D

 33 34  0     0  0  0  0  0  0999 V2000
   -1.8139   -1.6198   -0.2155 O   0  0  0  0  0  0  0  0  0  0  0  0
   -0.0391   -2.4573    0.9482 O   0  0  0  0  0  0  0  0  0  0  0  0
    0.0758   -0.2479    0.1562 N   0  0  0  0  0  0  0  0  0  0  0  0
   -0.6762    0.9240    0.0684 C   0  0  0  0  0  0  0  0  0  0  0  0
    1.5335   -0.2076    0.0496 C   0  0  0  0  0  0  0  0  0  0  0  0
   -0.2160    1.9923   -0.7012 C   0  0  0  0  0  0  0  0  0  0  0  0
    2.1665    0.9196    0.4802 C   0  0  0  0  0  0  0  0  0  0  0  0
   -1.8891    1.0267    0.7497 C   0  0  0  0  0  0  0  0  0  0  0  0
    2.1578   -1.3006   -0.4720 C   0  0  0  0  0  0  0  0  0  0  0  0
   -0.5677   -1.5187    0.3531 C   0  0  0  0  0  0  0  0  0  0  0  0
   -0.9685    3.1635   -0.7897 C   0  0  0  0  0  0  0  0  0  0  0  0
    3.5572    0.9575    0.3794 C   0  0  0  0  0  0  0  0  0  0  0  0
   -2.6416    2.1979    0.6612 C   0  0  0  0  0  0  0  0  0  0  0  0
    3.5485   -1.2629   -0.5728 C   0  0  0  0  0  0  0  0  0  0  0  0
   -2.1813    3.2662   -0.1084 C   0  0  0  0  0  0  0  0  0  0  0  0
    4.2481   -0.1337   -0.1471 C   0  0  0  0  0  0  0  0  0  0  0  0
   -2.4719   -2.8848   -0.0791 C   0  0  0  0  0  0  0  0  0  0  0  0
   -3.8220   -2.8143   -0.7601 C   0  0  0  0  0  0  0  0  0  0  0  0
    0.6807    1.9383   -1.3122 H   0  0  0  0  0  0  0  0  0  0  0  0
    1.6790    1.7572    0.9662 H   0  0  0  0  0  0  0  0  0  0  0  0
   -2.2623    0.2334    1.3916 H   0  0  0  0  0  0  0  0  0  0  0  0
    1.6403   -2.1756   -0.8487 H   0  0  0  0  0  0  0  0  0  0  0  0
   -0.6190    3.9894   -1.4024 H   0  0  0  0  0  0  0  0  0  0  0  0
    4.1040    1.8295    0.7268 H   0  0  0  0  0  0  0  0  0  0  0  0
   -3.5820    2.2815    1.1982 H   0  0  0  0  0  0  0  0  0  0  0  0
    4.0864   -2.1090   -0.9907 H   0  0  0  0  0  0  0  0  0  0  0  0
   -2.7682    4.1774   -0.1788 H   0  0  0  0  0  0  0  0  0  0  0  0
    5.3311   -0.1051   -0.2237 H   0  0  0  0  0  0  0  0  0  0  0  0
   -1.8618   -3.6654   -0.5467 H   0  0  0  0  0  0  0  0  0  0  0  0
   -2.6055   -3.1131    0.9841 H   0  0  0  0  0  0  0  0  0  0  0  0
   -4.3539   -3.7659   -0.6743 H   0  0  0  0  0  0  0  0  0  0  0  0
   -4.4363   -2.0241   -0.3160 H   0  0  0  0  0  0  0  0  0  0  0  0
   -3.7060   -2.5681   -1.8207 H   0  0  0  0  0  0  0  0  0  0  0  0
  1 10  1  0  0  0  0
  1 17  1  0  0  0  0
  2 10  2  0  0  0  0
  3  4  1  0  0  0  0
  3  5  1  0  0  0  0
  3 10  1  0  0  0  0
  4  6  2  0  0  0  0
  4  8  1  0  0  0  0
  5  7  2  0  0  0  0
  5  9  1  0  0  0  0
  6 11  1  0  0  0  0
  6 19  1  0  0  0  0
  7 12  1  0  0  0  0
  7 20  1  0  0  0  0
  8 13  2  0  0  0  0
  8 21  1  0  0  0  0
  9 14  2  0  0  0  0
  9 22  1  0  0  0  0
 11 15  2  0  0  0  0
 11 23  1  0  0  0  0
 12 16  2  0  0  0  0
 12 24  1  0  0  0  0
 13 15  1  0  0  0  0
 13 25  1  0  0  0  0
 14 16  1  0  0  0  0
 14 26  1  0  0  0  0
 15 27  1  0  0  0  0
 16 28  1  0  0  0  0
 17 18  1  0  0  0  0
 17 29  1  0  0  0  0
 17 30  1  0  0  0  0
 18 31  1  0  0  0  0
 18 32  1  0  0  0  0
 18 33  1  0  0  0  0
M  END
> <PUBCHEM_COMPOUND_CID>
69050

> <PUBCHEM_CONFORMER_RMSD>
0.6

> <PUBCHEM_CONFORMER_DIVERSEORDER>
1
21
10
2
20
13
9
4
23
5
24
11
12
16
3
15
22
6
17
25
18
19
8
7
14

> <PUBCHEM_MMFF94_PARTIAL_CHARGES>
27
1 -0.43
10 0.78
11 -0.15
12 -0.15
13 -0.15
14 -0.15
15 -0.15
16 -0.15
17 0.28
19 0.15
2 -0.57
20 0.15
21 0.15
22 0.15
23 0.15
24 0.15
25 0.15
26 0.15
27 0.15
28 0.15
3 -0.29
4 0.12
5 0.12
6 -0.15
7 -0.15
8 -0.15
9 -0.15

> <PUBCHEM_EFFECTIVE_ROTOR_COUNT>
5

> <PUBCHEM_PHARMACOPHORE_FEATURES>
3
1 2 acceptor
6 4 6 8 11 13 15 rings
6 5 7 9 12 14 16 rings

> <PUBCHEM_HEAVY_ATOM_COUNT>
18

> <PUBCHEM_ATOM_DEF_STEREO_COUNT>
0

> <PUBCHEM_ATOM_UDEF_STEREO_COUNT>
0

> <PUBCHEM_BOND_DEF_STEREO_COUNT>
0

> <PUBCHEM_BOND_UDEF_STEREO_COUNT>
0

> <PUBCHEM_ISOTOPIC_ATOM_COUNT>
0

> <PUBCHEM_COMPONENT_COUNT>
1

> <PUBCHEM_CACTVS_TAUTO_COUNT>
1

> <PUBCHEM_CONFORMER_ID>
00010DBA00000001

> <PUBCHEM_MMFF94_ENERGY>
81.2705

> <PUBCHEM_FEATURE_SELFOVERLAP>
15.223

> <PUBCHEM_SHAPE_FINGERPRINT>
10608611 8 18413388714098206384
10906281 52 17975142250798967088
10967382 1 18049163263551132296
11265709 11 18266744777726440927
11578080 2 16844426380037231483
116883 192 18340207500174291703
12553582 1 18048617093839757634
12715332 25 17979358564712491562
12730499 353 17688033011947822973
12788726 201 18335415824500908458
13004483 165 18268980041684350295
13134695 92 17627223799871036239
138480 1 16321185985027362621
14178000 15 17980479284957119679
14178342 30 18337656547973680450
14508225 48 18339073912254780061
14790565 3 17040923633806899065
15042514 8 18336554828268568419
15309172 13 18050294669321484784
15490181 7 18119529842880481026
15848700 24 18124868212336022127
16945 1 18265045834719249264
17357779 13 18198609111689618583
17539 30 18341040878706936471
18186145 218 17911806773641184536
19591789 44 18050009887393685035
20261772 1 18338535074669667281
20510252 161 18341047518689342392
20645477 70 17181370301536802773
21029758 11 18121493819930073191
21041028 32 18120388794049664059
21160774 45 18336540517685496997
21478907 32 18410852174747803351
21501502 16 18410014338713721658
21524375 3 17901393294291932208
22112679 90 18193863623693700221
22620623 9 18199771200991059958
23402539 116 18339634663322485238
23419403 2 17700671120592823249
23557571 272 18340771541334249454
23558518 356 18335140886532837762
238 59 17250590094174542405
25 1 17981608161265885284
2748010 2 18338795731560098530
3060560 45 17618219511976361781
532947 4 17116077443787394868
6443956 14 18050281771835011495
69090 78 18267585714942668488
7164475 11 18410293635804585342
7364860 26 17329146283079401303
7471813 234 17698717344533897927
81228 2 18335703896246484432
8272917 22 17260468072600827485
9709674 26 18200877275434320126
9925002 15 18261972815562946381

> <PUBCHEM_SHAPE_MULTIPOLES>
353.71
6.14
4.16
0.86
4.24
0.08
-0.01
-1.92
-0.52
-5.47
-0.61
-0.15
0.05
-0.21

> <PUBCHEM_SHAPE_SELFOVERLAP>
754.401

> <PUBCHEM_SHAPE_VOLUME>
194.6

> <PUBCHEM_COORDINATE_TYPE>
2
5
10

$$$$
