20150
  -OEChem-11012400433D

 24 23  0     0  0  0  0  0  0999 V2000
    2.9133   -1.1471   -0.1104 O   0  0  0  0  0  0  0  0  0  0  0  0
   -3.3645   -0.4309    0.6973 O   0  0  0  0  0  0  0  0  0  0  0  0
    0.6335    1.9456   -1.4003 O   0  5  0  0  0  0  0  0  0  0  0  0
   -0.5540    3.1415    0.0167 O   0  0  0  0  0  0  0  0  0  0  0  0
    4.7177    0.0156    0.4322 O   0  5  0  0  0  0  0  0  0  0  0  0
   -3.7296   -1.3554   -1.2812 O   0  5  0  0  0  0  0  0  0  0  0  0
    4.9829   -2.0614   -0.3343 O   0  0  0  0  0  0  0  0  0  0  0  0
   -5.3294   -1.4904    0.2661 O   0  0  0  0  0  0  0  0  0  0  0  0
    0.0172    1.0363    0.5614 N   0  0  0  0  0  0  0  0  0  0  0  0
    0.0204    2.1050   -0.3379 N   0  3  0  0  0  0  0  0  0  0  0  0
    4.3295   -1.0706    0.0008 N   0  3  0  0  0  0  0  0  0  0  0  0
   -4.2262   -1.1563   -0.1717 N   0  3  0  0  0  0  0  0  0  0  0  0
    0.7484   -0.1601    0.1350 C   0  0  0  0  0  0  0  0  0  0  0  0
   -1.2882    0.6777    1.1230 C   0  0  0  0  0  0  0  0  0  0  0  0
    2.2467    0.0403    0.2976 C   0  0  0  0  0  0  0  0  0  0  0  0
   -2.1176   -0.0898    0.1058 C   0  0  0  0  0  0  0  0  0  0  0  0
    0.5071   -0.4763   -0.8891 H   0  0  0  0  0  0  0  0  0  0  0  0
    0.4918   -1.0209    0.7694 H   0  0  0  0  0  0  0  0  0  0  0  0
   -1.8389    1.5575    1.4801 H   0  0  0  0  0  0  0  0  0  0  0  0
   -1.1503    0.0643    2.0235 H   0  0  0  0  0  0  0  0  0  0  0  0
    2.4657    0.2455    1.3541 H   0  0  0  0  0  0  0  0  0  0  0  0
    2.5943    0.8806   -0.3140 H   0  0  0  0  0  0  0  0  0  0  0  0
   -1.6131   -1.0160   -0.1909 H   0  0  0  0  0  0  0  0  0  0  0  0
   -2.2890    0.5386   -0.7777 H   0  0  0  0  0  0  0  0  0  0  0  0
  1 11  1  0  0  0  0
  1 15  1  0  0  0  0
  2 12  1  0  0  0  0
  2 16  1  0  0  0  0
  3 10  1  0  0  0  0
  4 10  2  0  0  0  0
  5 11  1  0  0  0  0
  6 12  1  0  0  0  0
  7 11  2  0  0  0  0
  8 12  2  0  0  0  0
  9 10  1  0  0  0  0
  9 13  1  0  0  0  0
  9 14  1  0  0  0  0
 13 15  1  0  0  0  0
 13 17  1  0  0  0  0
 13 18  1  0  0  0  0
 14 16  1  0  0  0  0
 14 19  1  0  0  0  0
 14 20  1  0  0  0  0
 15 21  1  0  0  0  0
 15 22  1  0  0  0  0
 16 23  1  0  0  0  0
 16 24  1  0  0  0  0
M  CHG  6   3  -1   5  -1   6  -1  10   1  11   1  12   1
M  END
> <PUBCHEM_COMPOUND_CID>
20150

> <PUBCHEM_CONFORMER_RMSD>
0.8

> <PUBCHEM_CONFORMER_DIVERSEORDER>
1
66
218
238
16
67
191
43
80
223
207
203
155
225
235
152
168
3
86
148
122
120
144
107
178
171
204
210
64
98
125
209
236
52
179
138
20
100
217
8
42
61
221
188
226
50
162
59
108
136
32
113
216
74
137
18
175
240
4
205
193
185
40
65
215
92
151
2
201
14
167
51
15
58
17
139
142
232
33
77
10
174
87
146
246
103
141
84
180
123
38
241
117
170
208
160
79
114
222
227
124
5
102
176
231
228
234
166
69
9
25
115
35
44
11
31
196
243
110
82
27
219
128
158
41
26
224
199
132
46
28
62
186
57
29
245
13
163
149
112
161
70
187
143
127
30
55
76
156
71
89
83
237
7
130
213
131
99
96
6
214
101
169
78
54
73
198
37
150
85
200
202
135
36
129
119
212
229
109
118
49
19
90
48
173
153
197
116
39
53
230
97
181
111
159
105
22
45
172
211
56
183
233
94
194
72
12
60
24
182
147
145
68
177
88
140
104
184
189
133
126
91
121
23
63
34
154
195
206
220
21
93
75
81
164
47
157
106
95
242
239
165
134
192
244
190

> <PUBCHEM_MMFF94_PARTIAL_CHARGES>
16
1 -0.27
10 1.03
11 1.03
12 1.03
13 0.27
14 0.27
15 0.28
16 0.28
2 -0.27
3 -0.52
4 -0.52
5 -0.52
6 -0.52
7 -0.52
8 -0.52
9 -0.53

> <PUBCHEM_EFFECTIVE_ROTOR_COUNT>
9

> <PUBCHEM_PHARMACOPHORE_FEATURES>
6
1 3 acceptor
1 4 acceptor
1 5 acceptor
1 6 acceptor
1 7 acceptor
1 8 acceptor

> <PUBCHEM_HEAVY_ATOM_COUNT>
16

> <PUBCHEM_ATOM_DEF_STEREO_COUNT>
0

> <PUBCHEM_ATOM_UDEF_STEREO_COUNT>
0

> <PUBCHEM_BOND_DEF_STEREO_COUNT>
0

> <PUBCHEM_BOND_UDEF_STEREO_COUNT>
0

> <PUBCHEM_ISOTOPIC_ATOM_COUNT>
0

> <PUBCHEM_COMPONENT_COUNT>
1

> <PUBCHEM_CACTVS_TAUTO_COUNT>
1

> <PUBCHEM_CONFORMER_ID>
00004EB600000001

> <PUBCHEM_MMFF94_ENERGY>
41.025

> <PUBCHEM_FEATURE_SELFOVERLAP>
30.671

> <PUBCHEM_SHAPE_FINGERPRINT>
10922049 32 9871750212691265536
11806522 49 18413108389708163232
12841375 25 18409445903781114753
12916754 54 18270122306196656466
14178000 29 18410574015226797765
17539 30 18191296092170701501
1813 80 18342190963384640901
187816 3 17530686502362830938
19784866 240 18341056293793136299
200 152 18113336384376244738
20112054 13 10735873980366886234
20388580 30 18260553358814628045
204376 136 10159699101239567833
20671657 53 18409453621842776381
20871999 31 18040990705396342805
21426921 1 18194403295225135536
23402539 116 18260830350088120066
2916195 48 7853562492240870918
298252 57 13045942412797902177

> <PUBCHEM_SHAPE_MULTIPOLES>
262.39
9.8
2.37
0.92
1.32
1.65
-0.14
-9.48
-0.24
0.03
-0.56
-0.42
0.16
-0.22

> <PUBCHEM_SHAPE_SELFOVERLAP>
502.966

> <PUBCHEM_SHAPE_VOLUME>
161.2

> <PUBCHEM_COORDINATE_TYPE>
2
5
10

$$$$
