138372
  -OEChem-11012401153D

 17 16  0     0  0  0  0  0  0999 V2000
   -0.7197   -0.1663   -0.0879 S   0  0  0  0  0  0  0  0  0  0  0  0
   -0.7304   -0.0129   -1.5303 O   0  0  0  0  0  0  0  0  0  0  0  0
   -1.2468   -1.3638    0.5386 O   0  0  0  0  0  0  0  0  0  0  0  0
    0.9483    0.0539    0.4723 C   0  0  0  0  0  0  0  0  0  0  0  0
    1.5036    1.3772   -0.0332 C   0  0  0  0  0  0  0  0  0  0  0  0
    1.8122   -1.1173    0.0285 C   0  0  0  0  0  0  0  0  0  0  0  0
   -1.5671    1.2294    0.6120 C   0  0  0  0  0  0  0  0  0  0  0  0
    0.9121    0.0670    1.5676 H   0  0  0  0  0  0  0  0  0  0  0  0
    2.5506    1.4917    0.2689 H   0  0  0  0  0  0  0  0  0  0  0  0
    1.4649    1.4479   -1.1253 H   0  0  0  0  0  0  0  0  0  0  0  0
    0.9610    2.2322    0.3793 H   0  0  0  0  0  0  0  0  0  0  0  0
    2.8373   -1.0060    0.3969 H   0  0  0  0  0  0  0  0  0  0  0  0
    1.8516   -1.1952   -1.0634 H   0  0  0  0  0  0  0  0  0  0  0  0
    1.4212   -2.0652    0.4131 H   0  0  0  0  0  0  0  0  0  0  0  0
   -1.2519    2.1443    0.1097 H   0  0  0  0  0  0  0  0  0  0  0  0
   -2.6380    1.0825    0.4524 H   0  0  0  0  0  0  0  0  0  0  0  0
   -1.3594    1.2726    1.6825 H   0  0  0  0  0  0  0  0  0  0  0  0
  1  2  2  0  0  0  0
  1  3  2  0  0  0  0
  1  4  1  0  0  0  0
  1  7  1  0  0  0  0
  4  5  1  0  0  0  0
  4  6  1  0  0  0  0
  4  8  1  0  0  0  0
  5  9  1  0  0  0  0
  5 10  1  0  0  0  0
  5 11  1  0  0  0  0
  6 12  1  0  0  0  0
  6 13  1  0  0  0  0
  6 14  1  0  0  0  0
  7 15  1  0  0  0  0
  7 16  1  0  0  0  0
  7 17  1  0  0  0  0
M  END
> <PUBCHEM_COMPOUND_CID>
138372

> <PUBCHEM_CONFORMER_RMSD>
0.4

> <PUBCHEM_CONFORMER_DIVERSEORDER>
1
3
2

> <PUBCHEM_MMFF94_PARTIAL_CHARGES>
5
1 1.09
2 -0.65
3 -0.65
4 0.11
7 0.11

> <PUBCHEM_EFFECTIVE_ROTOR_COUNT>
1

> <PUBCHEM_PHARMACOPHORE_FEATURES>
3
1 2 acceptor
1 3 acceptor
3 4 5 6 hydrophobe

> <PUBCHEM_HEAVY_ATOM_COUNT>
7

> <PUBCHEM_ATOM_DEF_STEREO_COUNT>
0

> <PUBCHEM_ATOM_UDEF_STEREO_COUNT>
0

> <PUBCHEM_BOND_DEF_STEREO_COUNT>
0

> <PUBCHEM_BOND_UDEF_STEREO_COUNT>
0

> <PUBCHEM_ISOTOPIC_ATOM_COUNT>
0

> <PUBCHEM_COMPONENT_COUNT>
1

> <PUBCHEM_CACTVS_TAUTO_COUNT>
1

> <PUBCHEM_CONFORMER_ID>
00021C8400000001

> <PUBCHEM_MMFF94_ENERGY>
5.1655

> <PUBCHEM_FEATURE_SELFOVERLAP>
15.24

> <PUBCHEM_SHAPE_FINGERPRINT>
137420 1 13128771694593244631
16714656 1 17908430147530274042
20096714 4 18341054025332894856
21040471 1 18340773615508047672
24536 1 18338499924383022808
29004967 10 18050004694699005699
5084963 1 18057883537515703233
5943 1 12594775777871886740

> <PUBCHEM_SHAPE_MULTIPOLES>
136.17
2.27
1.5
0.98
0.34
0.16
-0.34
0.1
0.27
0.12
0.19
-0.26
-0.05
-0.11

> <PUBCHEM_SHAPE_SELFOVERLAP>
234.674

> <PUBCHEM_SHAPE_VOLUME>
92.5

> <PUBCHEM_COORDINATE_TYPE>
2
5
10

$$$$
