14357
  -OEChem-11012401173D

 24 25  0     0  0  0  0  0  0999 V2000
    4.7254   -0.8901    0.0013 O   0  0  0  0  0  0  0  0  0  0  0  0
   -4.7254    0.8904    0.0012 O   0  0  0  0  0  0  0  0  0  0  0  0
    4.4374    1.3645    0.0002 O   0  0  0  0  0  0  0  0  0  0  0  0
   -4.4375   -1.3643    0.0003 O   0  0  0  0  0  0  0  0  0  0  0  0
    0.2157    0.6738   -0.0002 C   0  0  0  0  0  0  0  0  0  0  0  0
   -0.2156   -0.6741   -0.0003 C   0  0  0  0  0  0  0  0  0  0  0  0
    1.5917    0.9546   -0.0004 C   0  0  0  0  0  0  0  0  0  0  0  0
   -1.5917   -0.9547   -0.0004 C   0  0  0  0  0  0  0  0  0  0  0  0
   -0.7417    1.7013   -0.0004 C   0  0  0  0  0  0  0  0  0  0  0  0
    0.7419   -1.7015   -0.0005 C   0  0  0  0  0  0  0  0  0  0  0  0
    2.5292   -0.0787   -0.0002 C   0  0  0  0  0  0  0  0  0  0  0  0
   -2.5292    0.0787   -0.0001 C   0  0  0  0  0  0  0  0  0  0  0  0
    2.1050   -1.4042   -0.0003 C   0  0  0  0  0  0  0  0  0  0  0  0
   -2.1050    1.4043   -0.0003 C   0  0  0  0  0  0  0  0  0  0  0  0
    3.9505    0.2291    0.0000 C   0  0  0  0  0  0  0  0  0  0  0  0
   -3.9505   -0.2289    0.0000 C   0  0  0  0  0  0  0  0  0  0  0  0
    1.9253    1.9910   -0.0004 H   0  0  0  0  0  0  0  0  0  0  0  0
   -1.9255   -1.9911   -0.0004 H   0  0  0  0  0  0  0  0  0  0  0  0
   -0.4325    2.7446   -0.0005 H   0  0  0  0  0  0  0  0  0  0  0  0
    0.4328   -2.7448   -0.0007 H   0  0  0  0  0  0  0  0  0  0  0  0
    2.8003   -2.2391   -0.0004 H   0  0  0  0  0  0  0  0  0  0  0  0
   -2.8002    2.2391   -0.0004 H   0  0  0  0  0  0  0  0  0  0  0  0
    5.6817   -0.6718    0.0020 H   0  0  0  0  0  0  0  0  0  0  0  0
   -5.6818    0.6720    0.0018 H   0  0  0  0  0  0  0  0  0  0  0  0
  1 15  1  0  0  0  0
  1 23  1  0  0  0  0
  2 16  1  0  0  0  0
  2 24  1  0  0  0  0
  3 15  2  0  0  0  0
  4 16  2  0  0  0  0
  5  6  2  0  0  0  0
  5  7  1  0  0  0  0
  5  9  1  0  0  0  0
  6  8  1  0  0  0  0
  6 10  1  0  0  0  0
  7 11  2  0  0  0  0
  7 17  1  0  0  0  0
  8 12  2  0  0  0  0
  8 18  1  0  0  0  0
  9 14  2  0  0  0  0
  9 19  1  0  0  0  0
 10 13  2  0  0  0  0
 10 20  1  0  0  0  0
 11 13  1  0  0  0  0
 11 15  1  0  0  0  0
 12 14  1  0  0  0  0
 12 16  1  0  0  0  0
 13 21  1  0  0  0  0
 14 22  1  0  0  0  0
M  END
> <PUBCHEM_COMPOUND_CID>
14357

> <PUBCHEM_CONFORMER_RMSD>
0.6

> <PUBCHEM_CONFORMER_DIVERSEORDER>
1
2

> <PUBCHEM_MMFF94_PARTIAL_CHARGES>
22
1 -0.65
10 -0.15
11 0.09
12 0.09
13 -0.15
14 -0.15
15 0.63
16 0.63
17 0.15
18 0.15
19 0.15
2 -0.65
20 0.15
21 0.15
22 0.15
23 0.5
24 0.5
3 -0.57
4 -0.57
7 -0.15
8 -0.15
9 -0.15

> <PUBCHEM_EFFECTIVE_ROTOR_COUNT>
2

> <PUBCHEM_PHARMACOPHORE_FEATURES>
8
1 1 acceptor
1 2 acceptor
1 3 acceptor
1 4 acceptor
3 1 3 15 anion
3 2 4 16 anion
6 5 6 7 10 11 13 rings
6 5 6 8 9 12 14 rings

> <PUBCHEM_HEAVY_ATOM_COUNT>
16

> <PUBCHEM_ATOM_DEF_STEREO_COUNT>
0

> <PUBCHEM_ATOM_UDEF_STEREO_COUNT>
0

> <PUBCHEM_BOND_DEF_STEREO_COUNT>
0

> <PUBCHEM_BOND_UDEF_STEREO_COUNT>
0

> <PUBCHEM_ISOTOPIC_ATOM_COUNT>
0

> <PUBCHEM_COMPONENT_COUNT>
1

> <PUBCHEM_CACTVS_TAUTO_COUNT>
1

> <PUBCHEM_CONFORMER_ID>
0000381500000001

> <PUBCHEM_MMFF94_ENERGY>
51.0338

> <PUBCHEM_FEATURE_SELFOVERLAP>
40.739

> <PUBCHEM_SHAPE_FINGERPRINT>
10608611 8 18337951186629708948
10967382 1 18410855464702846854
11132069 177 18411978078738019170
11401426 45 18410289216367458109
11471102 20 18411133632285610428
11806522 49 18410011065489660791
12032990 46 18411422812470592759
13214271 11 18412261744712585807
13221675 6 18413106160483109791
13288520 33 18340771451250556382
13380535 76 18409451383969876674
13690532 89 18408040710635348832
13862211 1 18410849979771491302
14115302 16 17894922857494265622
14252887 29 17917443020115254743
14576447 43 18200296849417499895
15196674 1 18410573989446418432
15375358 24 18333732412016343987
15536298 74 18342740672112280214
16945 1 18410855460128161798
18522853 276 18412825776380691016
200 152 18202278113467046421
20510252 161 18272653402689988993
20645477 70 18271243807319016631
21029758 11 18342453759818067473
21267235 1 18410865342890471694
21501502 16 18194683670151836576
221490 88 18047474714592001139
23402539 116 18413100671625701519
23402655 69 18341607075951064973
23463225 33 18408040697486722396
23559900 14 18124309415985273470
2748010 2 18194682553460326679
2871803 45 18335698317062971575
296302 2 18186803577985153781
3312278 4 18411419497293852113
34934 24 18409724024715395383
43471831 8 18262233318340944314
474 4 17169277134014930916
474229 33 18410572920253100614
4990 188 17988933249379368262
5104073 3 18410575071778178000
53655031 270 18410856542459933448
537710 114 18410016563127284796
69090 78 18273492390328531158
7364860 26 18197498424752584630
77779 3 18412265008270441604
8809292 202 18187651353021847771
9709674 26 18410018714652880774

> <PUBCHEM_SHAPE_MULTIPOLES>
305.8
8.62
1.69
0.59
0
0
0
0
0
0
0
0
0
0

> <PUBCHEM_SHAPE_SELFOVERLAP>
676.12

> <PUBCHEM_SHAPE_VOLUME>
164.7

> <PUBCHEM_COORDINATE_TYPE>
2
5
10

$$$$
