637760
  -OEChem-11012401073D

 28 29  0     0  0  0  0  0  0999 V2000
    1.2418   -2.2212    0.4798 O   0  0  0  0  0  0  0  0  0  0  0  0
    2.4675   -0.2630    0.0706 C   0  0  0  0  0  0  0  0  0  0  0  0
   -2.5674   -0.2931    0.0599 C   0  0  0  0  0  0  0  0  0  0  0  0
    1.2036   -1.0186    0.2441 C   0  0  0  0  0  0  0  0  0  0  0  0
   -1.2597   -0.9130    0.2067 C   0  0  0  0  0  0  0  0  0  0  0  0
   -0.0755   -0.2711    0.0901 C   0  0  0  0  0  0  0  0  0  0  0  0
    2.4948    1.0786    0.3962 C   0  0  0  0  0  0  0  0  0  0  0  0
    3.5807   -0.9230   -0.4111 C   0  0  0  0  0  0  0  0  0  0  0  0
   -2.7030    1.0888    0.1936 C   0  0  0  0  0  0  0  0  0  0  0  0
   -3.6858   -1.0803   -0.2144 C   0  0  0  0  0  0  0  0  0  0  0  0
    3.6838    1.7895    0.2332 C   0  0  0  0  0  0  0  0  0  0  0  0
    4.7698   -0.2120   -0.5739 C   0  0  0  0  0  0  0  0  0  0  0  0
   -3.9569    1.6835    0.0531 C   0  0  0  0  0  0  0  0  0  0  0  0
   -4.9397   -0.4856   -0.3549 C   0  0  0  0  0  0  0  0  0  0  0  0
    4.8212    1.1442   -0.2517 C   0  0  0  0  0  0  0  0  0  0  0  0
   -5.0752    0.8963   -0.2212 C   0  0  0  0  0  0  0  0  0  0  0  0
   -1.2717   -1.9768    0.4344 H   0  0  0  0  0  0  0  0  0  0  0  0
   -0.0345    0.7728   -0.1918 H   0  0  0  0  0  0  0  0  0  0  0  0
    1.6460    1.6088    0.8147 H   0  0  0  0  0  0  0  0  0  0  0  0
    3.5552   -1.9771   -0.6708 H   0  0  0  0  0  0  0  0  0  0  0  0
   -1.8656    1.7395    0.4283 H   0  0  0  0  0  0  0  0  0  0  0  0
   -3.5996   -2.1588   -0.3234 H   0  0  0  0  0  0  0  0  0  0  0  0
    3.7271    2.8432    0.4928 H   0  0  0  0  0  0  0  0  0  0  0  0
    5.6555   -0.7141   -0.9521 H   0  0  0  0  0  0  0  0  0  0  0  0
   -4.0639    2.7588    0.1620 H   0  0  0  0  0  0  0  0  0  0  0  0
   -5.8107   -1.0982   -0.5685 H   0  0  0  0  0  0  0  0  0  0  0  0
    5.7475    1.6972   -0.3766 H   0  0  0  0  0  0  0  0  0  0  0  0
   -6.0517    1.3592   -0.3293 H   0  0  0  0  0  0  0  0  0  0  0  0
  1  4  2  0  0  0  0
  2  4  1  0  0  0  0
  2  7  2  0  0  0  0
  2  8  1  0  0  0  0
  3  5  1  0  0  0  0
  3  9  2  0  0  0  0
  3 10  1  0  0  0  0
  4  6  1  0  0  0  0
  5  6  2  0  0  0  0
  5 17  1  0  0  0  0
  6 18  1  0  0  0  0
  7 11  1  0  0  0  0
  7 19  1  0  0  0  0
  8 12  2  0  0  0  0
  8 20  1  0  0  0  0
  9 13  1  0  0  0  0
  9 21  1  0  0  0  0
 10 14  2  0  0  0  0
 10 22  1  0  0  0  0
 11 15  2  0  0  0  0
 11 23  1  0  0  0  0
 12 15  1  0  0  0  0
 12 24  1  0  0  0  0
 13 16  2  0  0  0  0
 13 25  1  0  0  0  0
 14 16  1  0  0  0  0
 14 26  1  0  0  0  0
 15 27  1  0  0  0  0
 16 28  1  0  0  0  0
M  END
> <PUBCHEM_COMPOUND_CID>
637760

> <PUBCHEM_CONFORMER_RMSD>
0.6

> <PUBCHEM_CONFORMER_DIVERSEORDER>
1
8
7
4
5
3
2
9
6

> <PUBCHEM_MMFF94_PARTIAL_CHARGES>
28
1 -0.57
10 -0.15
11 -0.15
12 -0.15
13 -0.15
14 -0.15
15 -0.15
16 -0.15
17 0.15
18 0.15
19 0.15
2 0.09
20 0.15
21 0.15
22 0.15
23 0.15
24 0.15
25 0.15
26 0.15
27 0.15
28 0.15
3 0.03
4 0.47
5 -0.18
6 -0.14
7 -0.15
8 -0.15
9 -0.15

> <PUBCHEM_EFFECTIVE_ROTOR_COUNT>
3

> <PUBCHEM_PHARMACOPHORE_FEATURES>
3
1 1 acceptor
6 2 7 8 11 12 15 rings
6 3 9 10 13 14 16 rings

> <PUBCHEM_HEAVY_ATOM_COUNT>
16

> <PUBCHEM_ATOM_DEF_STEREO_COUNT>
0

> <PUBCHEM_ATOM_UDEF_STEREO_COUNT>
0

> <PUBCHEM_BOND_DEF_STEREO_COUNT>
1

> <PUBCHEM_BOND_UDEF_STEREO_COUNT>
0

> <PUBCHEM_ISOTOPIC_ATOM_COUNT>
0

> <PUBCHEM_COMPONENT_COUNT>
1

> <PUBCHEM_CACTVS_TAUTO_COUNT>
1

> <PUBCHEM_CONFORMER_ID>
0009BB4000000001

> <PUBCHEM_MMFF94_ENERGY>
50.4547

> <PUBCHEM_FEATURE_SELFOVERLAP>
15.223

> <PUBCHEM_SHAPE_FINGERPRINT>
10014705 185 18260261920305126797
10498660 4 18408317761733006333
11471102 20 18413392038439433326
12107183 9 17690842255228272203
12596602 18 14201405988140694996
12730499 353 18336555961887071338
12916748 109 18409172129316723619
13081056 2 18411700997481424573
13533116 47 17313656049908917019
14251764 18 18187358844969966080
14252887 29 11242243035737934384
14415576 193 18411983550579218742
14528608 73 18411133653992516661
15196674 1 18411418410108288193
15239154 128 18410293597054920821
17834072 33 18272367585627630663
17834072 8 18272660034820665716
17959699 21 18411982455273095369
18186145 218 18334008384986896134
193927 3 11383823918189110397
200 152 17847061082167049617
20300324 65 18272931635614821453
20432913 95 9151174272311759157
20645477 56 18261675887957931677
20645477 70 18060145297664626678
212847 35 18261111872773597060
21652331 79 18408602548255959829
221357 26 18202001018851088729
22289505 5 18343582906862435316
22854114 59 18040714770631979853
23402539 116 18271802436497908102
23402655 69 18272653458903955908
23557571 272 18201445796018086509
23559900 14 18200027322612609690
245318 6 16954520595491708468
2916195 48 18199741600371932816
29717793 49 17131840837114860420
34797466 226 17704080632724571517
351380 180 18412824698565465212
351380 3 11384118535422926908
3545911 37 18335704931818866599
4028521 119 18408037395015801781
4214541 1 18413108355480410349
474 4 17967818279197263020
495365 180 17560793390601358856
4990 188 18131075922142808422
5104073 3 18335139769688393355
5281201 14 18202009802306667956
542803 24 17675926495149818221
633830 44 18408600383592345470
7495541 125 16701735067956285570
77779 3 18413108351090478047

> <PUBCHEM_SHAPE_MULTIPOLES>
323.4
12.2
1.78
0.69
2.48
0.12
0.01
3.53
1.98
-0.29
-0.16
-0.13
-0.02
0.05

> <PUBCHEM_SHAPE_SELFOVERLAP>
695.515

> <PUBCHEM_SHAPE_VOLUME>
177.8

> <PUBCHEM_COORDINATE_TYPE>
2
5
10

$$$$
