23262928
  -OEChem-11012401223D

 27 26  0     0  0  0  0  0  0999 V2000
   -3.5414    0.8653    0.2692 S   0  0  0  0  0  0  0  0  0  0  0  0
    0.8699   -0.0029   -0.0793 Si  0  0  0  0  0  0  0  0  0  0  0  0
    1.9023   -0.3203    1.2049 O   0  0  0  0  0  0  0  0  0  0  0  0
    1.4219    1.3421   -0.9153 O   0  0  0  0  0  0  0  0  0  0  0  0
    0.8746   -1.3253   -1.1116 O   0  0  0  0  0  0  0  0  0  0  0  0
   -0.8652    0.2936    0.5774 C   0  0  0  0  0  0  0  0  0  0  0  0
   -1.9141    0.5964   -0.4929 C   0  0  0  0  0  0  0  0  0  0  0  0
    3.2758   -0.5772    0.9476 C   0  0  0  0  0  0  0  0  0  0  0  0
    1.5298    2.5891   -0.2442 C   0  0  0  0  0  0  0  0  0  0  0  0
    0.4729   -2.5965   -0.6218 C   0  0  0  0  0  0  0  0  0  0  0  0
   -4.0265   -0.8644    0.4661 C   0  0  0  0  0  0  0  0  0  0  0  0
   -1.1509   -0.5952    1.1510 H   0  0  0  0  0  0  0  0  0  0  0  0
   -0.8141    1.1246    1.2916 H   0  0  0  0  0  0  0  0  0  0  0  0
   -1.6498    1.5149   -1.0293 H   0  0  0  0  0  0  0  0  0  0  0  0
   -1.9816   -0.2015   -1.2408 H   0  0  0  0  0  0  0  0  0  0  0  0
    3.7720   -0.7593    1.9058 H   0  0  0  0  0  0  0  0  0  0  0  0
    3.7592    0.2848    0.4751 H   0  0  0  0  0  0  0  0  0  0  0  0
    3.4034   -1.4701    0.3259 H   0  0  0  0  0  0  0  0  0  0  0  0
    1.9494    3.3166   -0.9459 H   0  0  0  0  0  0  0  0  0  0  0  0
    2.2037    2.5232    0.6171 H   0  0  0  0  0  0  0  0  0  0  0  0
    0.5463    2.9540    0.0714 H   0  0  0  0  0  0  0  0  0  0  0  0
    0.5985   -3.3254   -1.4284 H   0  0  0  0  0  0  0  0  0  0  0  0
   -0.5840   -2.5924   -0.3338 H   0  0  0  0  0  0  0  0  0  0  0  0
    1.0944   -2.9163    0.2217 H   0  0  0  0  0  0  0  0  0  0  0  0
   -5.0381   -0.9051    0.8792 H   0  0  0  0  0  0  0  0  0  0  0  0
   -3.3561   -1.3833    1.1552 H   0  0  0  0  0  0  0  0  0  0  0  0
   -4.0304   -1.3751   -0.5004 H   0  0  0  0  0  0  0  0  0  0  0  0
  1  7  1  0  0  0  0
  1 11  1  0  0  0  0
  2  3  1  0  0  0  0
  2  4  1  0  0  0  0
  2  5  1  0  0  0  0
  2  6  1  0  0  0  0
  3  8  1  0  0  0  0
  4  9  1  0  0  0  0
  5 10  1  0  0  0  0
  6  7  1  0  0  0  0
  6 12  1  0  0  0  0
  6 13  1  0  0  0  0
  7 14  1  0  0  0  0
  7 15  1  0  0  0  0
  8 16  1  0  0  0  0
  8 17  1  0  0  0  0
  8 18  1  0  0  0  0
  9 19  1  0  0  0  0
  9 20  1  0  0  0  0
  9 21  1  0  0  0  0
 10 22  1  0  0  0  0
 10 23  1  0  0  0  0
 10 24  1  0  0  0  0
 11 25  1  0  0  0  0
 11 26  1  0  0  0  0
 11 27  1  0  0  0  0
M  END
> <PUBCHEM_COMPOUND_CID>
23262928

> <PUBCHEM_CONFORMER_RMSD>
0.8

> <PUBCHEM_CONFORMER_DIVERSEORDER>
1
24
16
23
3
8
11
22
9
13
15
17
14
7
5
19
20
2
12
21
25
6
10
4
18

> <PUBCHEM_MMFF94_PARTIAL_CHARGES>
11
1 -0.46
10 0.28
11 0.23
2 0.97
3 -0.58
4 -0.58
5 -0.58
6 -0.08
7 0.23
8 0.28
9 0.28

> <PUBCHEM_EFFECTIVE_ROTOR_COUNT>
6

> <PUBCHEM_PHARMACOPHORE_FEATURES>
1
1 11 hydrophobe

> <PUBCHEM_HEAVY_ATOM_COUNT>
11

> <PUBCHEM_ATOM_DEF_STEREO_COUNT>
0

> <PUBCHEM_ATOM_UDEF_STEREO_COUNT>
0

> <PUBCHEM_BOND_DEF_STEREO_COUNT>
0

> <PUBCHEM_BOND_UDEF_STEREO_COUNT>
0

> <PUBCHEM_ISOTOPIC_ATOM_COUNT>
0

> <PUBCHEM_COMPONENT_COUNT>
1

> <PUBCHEM_CACTVS_TAUTO_COUNT>
1

> <PUBCHEM_CONFORMER_ID>
0162F6D000000001

> <PUBCHEM_MMFF94_ENERGY>
16.5411

> <PUBCHEM_FEATURE_SELFOVERLAP>
5.074

> <PUBCHEM_SHAPE_FINGERPRINT>
10219947 1 18339634547442290056
12932764 1 17603877671952261645
13380536 305 18341061790849907556
14993402 34 18411417311144961972
15775835 57 18191593157788843748
17041 49 18188209784712001521
17990270 104 18337681823539627919
20201158 50 18410293567311896747
20645477 70 18335137614179221367
20671657 1 18190748732980316996
21524375 3 17974020740296505788
21730867 7 17632009750247603603
23235687 12 18333732395063334485
23552423 10 18270411490465570469
3248919 1 18341897360042882049
5084963 1 15285642053996257265
68250623 7 18045219594441321162

> <PUBCHEM_SHAPE_MULTIPOLES>
230.83
5.53
2.3
1.08
5.59
0.04
0.04
0.14
1.73
-1.11
-0.7
-0.49
0.16
-0.12

> <PUBCHEM_SHAPE_SELFOVERLAP>
394.37

> <PUBCHEM_SHAPE_VOLUME>
156.7

> <PUBCHEM_COORDINATE_TYPE>
2
5
10

$$$$
