84352
  -OEChem-11012401223D

 23 23  0     0  0  0  0  0  0999 V2000
    1.9403    0.0047    0.2048 N   0  0  0  0  0  0  0  0  0  0  0  0
    0.9777    0.0048   -0.8981 C   0  0  0  0  0  0  0  0  0  0  0  0
   -0.4349    0.0021   -0.4191 C   0  0  0  0  0  0  0  0  0  0  0  0
    3.3028   -0.0028   -0.3027 C   0  0  0  0  0  0  0  0  0  0  0  0
   -1.0936   -1.2072   -0.1971 C   0  0  0  0  0  0  0  0  0  0  0  0
   -1.0973    1.2087   -0.1935 C   0  0  0  0  0  0  0  0  0  0  0  0
    4.3148   -0.0030    0.8243 C   0  0  0  0  0  0  0  0  0  0  0  0
   -2.4145   -1.2099    0.2507 C   0  0  0  0  0  0  0  0  0  0  0  0
   -2.4183    1.2059    0.2544 C   0  0  0  0  0  0  0  0  0  0  0  0
   -3.0770   -0.0034    0.4765 C   0  0  0  0  0  0  0  0  0  0  0  0
    1.1389   -0.8737   -1.5368 H   0  0  0  0  0  0  0  0  0  0  0  0
    1.1383    0.8797   -1.5422 H   0  0  0  0  0  0  0  0  0  0  0  0
    1.7986    0.8338    0.7819 H   0  0  0  0  0  0  0  0  0  0  0  0
    3.4703   -0.8943   -0.9187 H   0  0  0  0  0  0  0  0  0  0  0  0
    3.4806    0.8760   -0.9342 H   0  0  0  0  0  0  0  0  0  0  0  0
   -0.5886   -2.1545   -0.3675 H   0  0  0  0  0  0  0  0  0  0  0  0
   -0.5949    2.1579   -0.3610 H   0  0  0  0  0  0  0  0  0  0  0  0
    4.2132    0.8907    1.4492 H   0  0  0  0  0  0  0  0  0  0  0  0
    4.1939   -0.8833    1.4648 H   0  0  0  0  0  0  0  0  0  0  0  0
    5.3325   -0.0175    0.4209 H   0  0  0  0  0  0  0  0  0  0  0  0
   -2.9274   -2.1515    0.4241 H   0  0  0  0  0  0  0  0  0  0  0  0
   -2.9339    2.1454    0.4306 H   0  0  0  0  0  0  0  0  0  0  0  0
   -4.1055   -0.0055    0.8254 H   0  0  0  0  0  0  0  0  0  0  0  0
  1  2  1  0  0  0  0
  1  4  1  0  0  0  0
  1 13  1  0  0  0  0
  2  3  1  0  0  0  0
  2 11  1  0  0  0  0
  2 12  1  0  0  0  0
  3  5  2  0  0  0  0
  3  6  1  0  0  0  0
  4  7  1  0  0  0  0
  4 14  1  0  0  0  0
  4 15  1  0  0  0  0
  5  8  1  0  0  0  0
  5 16  1  0  0  0  0
  6  9  2  0  0  0  0
  6 17  1  0  0  0  0
  7 18  1  0  0  0  0
  7 19  1  0  0  0  0
  7 20  1  0  0  0  0
  8 10  2  0  0  0  0
  8 21  1  0  0  0  0
  9 10  1  0  0  0  0
  9 22  1  0  0  0  0
 10 23  1  0  0  0  0
M  END
> <PUBCHEM_COMPOUND_CID>
84352

> <PUBCHEM_CONFORMER_RMSD>
0.6

> <PUBCHEM_CONFORMER_DIVERSEORDER>
1
4
5
2
3

> <PUBCHEM_MMFF94_PARTIAL_CHARGES>
15
1 -0.9
10 -0.15
13 0.36
16 0.15
17 0.15
2 0.41
21 0.15
22 0.15
23 0.15
3 -0.14
4 0.27
5 -0.15
6 -0.15
8 -0.15
9 -0.15

> <PUBCHEM_EFFECTIVE_ROTOR_COUNT>
3

> <PUBCHEM_PHARMACOPHORE_FEATURES>
3
1 1 cation
1 1 donor
6 3 5 6 8 9 10 rings

> <PUBCHEM_HEAVY_ATOM_COUNT>
10

> <PUBCHEM_ATOM_DEF_STEREO_COUNT>
0

> <PUBCHEM_ATOM_UDEF_STEREO_COUNT>
0

> <PUBCHEM_BOND_DEF_STEREO_COUNT>
0

> <PUBCHEM_BOND_UDEF_STEREO_COUNT>
0

> <PUBCHEM_ISOTOPIC_ATOM_COUNT>
0

> <PUBCHEM_COMPONENT_COUNT>
1

> <PUBCHEM_CACTVS_TAUTO_COUNT>
1

> <PUBCHEM_CONFORMER_ID>
0001498000000001

> <PUBCHEM_MMFF94_ENERGY>
13.6322

> <PUBCHEM_FEATURE_SELFOVERLAP>
15.223

> <PUBCHEM_SHAPE_FINGERPRINT>
10857977 72 18342461469130928105
12251169 10 18410012147926979340
12932764 1 17530961380612601164
13024252 1 14490471976450293749
14325111 11 18341052934643082814
15219456 202 17917158190916766150
20645464 45 17917716794247070223
20871998 184 18201164359527783399
21119208 17 10592045760741746912
23402539 116 18271798030610496757
23552423 10 17683540793787867933
369184 2 18342177760823919143
75552 356 18409169930356771455

> <PUBCHEM_SHAPE_MULTIPOLES>
200.81
6.45
1.21
0.84
7.22
0
0.01
0.01
-1.95
-1.04
-0.02
0.3
0
0

> <PUBCHEM_SHAPE_SELFOVERLAP>
399.565

> <PUBCHEM_SHAPE_VOLUME>
120

> <PUBCHEM_COORDINATE_TYPE>
2
5
10

$$$$
