18118
  -OEChem-11012400593D

 31 32  0     0  0  0  0  0  0999 V2000
    0.6959    0.1601    0.3491 N   0  0  0  0  0  0  0  0  0  0  0  0
    1.4649    1.3656    0.0637 C   0  0  0  0  0  0  0  0  0  0  0  0
    1.4281   -0.9684    0.9119 C   0  0  0  0  0  0  0  0  0  0  0  0
   -0.6470    0.1147    0.1659 C   0  0  0  0  0  0  0  0  0  0  0  0
    2.6726    1.0474   -0.8130 C   0  0  0  0  0  0  0  0  0  0  0  0
    2.6346   -1.3211    0.0470 C   0  0  0  0  0  0  0  0  0  0  0  0
    3.5034   -0.0914   -0.2202 C   0  0  0  0  0  0  0  0  0  0  0  0
   -1.2163   -1.2356   -0.2075 C   0  0  0  0  0  0  0  0  0  0  0  0
   -2.6395   -1.1739   -0.7676 C   0  0  0  0  0  0  0  0  0  0  0  0
   -3.5152   -0.2503    0.0694 C   0  0  0  0  0  0  0  0  0  0  0  0
   -2.9353    1.1627    0.1108 C   0  0  0  0  0  0  0  0  0  0  0  0
   -1.4461    1.1904    0.2904 C   0  0  0  0  0  0  0  0  0  0  0  0
    1.7968    1.8117    1.0094 H   0  0  0  0  0  0  0  0  0  0  0  0
    0.8811    2.1292   -0.4633 H   0  0  0  0  0  0  0  0  0  0  0  0
    0.8285   -1.8709    1.0578 H   0  0  0  0  0  0  0  0  0  0  0  0
    1.7767   -0.6840    1.9135 H   0  0  0  0  0  0  0  0  0  0  0  0
    3.2953    1.9409   -0.9312 H   0  0  0  0  0  0  0  0  0  0  0  0
    2.3298    0.7563   -1.8140 H   0  0  0  0  0  0  0  0  0  0  0  0
    2.2897   -1.7327   -0.9097 H   0  0  0  0  0  0  0  0  0  0  0  0
    3.2319   -2.0978    0.5374 H   0  0  0  0  0  0  0  0  0  0  0  0
    4.3166   -0.3535   -0.9061 H   0  0  0  0  0  0  0  0  0  0  0  0
    3.9657    0.2417    0.7169 H   0  0  0  0  0  0  0  0  0  0  0  0
   -0.5803   -1.7302   -0.9521 H   0  0  0  0  0  0  0  0  0  0  0  0
   -1.2448   -1.8725    0.6855 H   0  0  0  0  0  0  0  0  0  0  0  0
   -2.6125   -0.8127   -1.8036 H   0  0  0  0  0  0  0  0  0  0  0  0
   -3.0708   -2.1812   -0.7926 H   0  0  0  0  0  0  0  0  0  0  0  0
   -3.5915   -0.6470    1.0899 H   0  0  0  0  0  0  0  0  0  0  0  0
   -4.5324   -0.2212   -0.3372 H   0  0  0  0  0  0  0  0  0  0  0  0
   -3.4111    1.7190    0.9265 H   0  0  0  0  0  0  0  0  0  0  0  0
   -3.1785    1.6890   -0.8199 H   0  0  0  0  0  0  0  0  0  0  0  0
   -1.0396    2.1599    0.5654 H   0  0  0  0  0  0  0  0  0  0  0  0
  1  2  1  0  0  0  0
  1  3  1  0  0  0  0
  1  4  1  0  0  0  0
  2  5  1  0  0  0  0
  2 13  1  0  0  0  0
  2 14  1  0  0  0  0
  3  6  1  0  0  0  0
  3 15  1  0  0  0  0
  3 16  1  0  0  0  0
  4  8  1  0  0  0  0
  4 12  2  0  0  0  0
  5  7  1  0  0  0  0
  5 17  1  0  0  0  0
  5 18  1  0  0  0  0
  6  7  1  0  0  0  0
  6 19  1  0  0  0  0
  6 20  1  0  0  0  0
  7 21  1  0  0  0  0
  7 22  1  0  0  0  0
  8  9  1  0  0  0  0
  8 23  1  0  0  0  0
  8 24  1  0  0  0  0
  9 10  1  0  0  0  0
  9 25  1  0  0  0  0
  9 26  1  0  0  0  0
 10 11  1  0  0  0  0
 10 27  1  0  0  0  0
 10 28  1  0  0  0  0
 11 12  1  0  0  0  0
 11 29  1  0  0  0  0
 11 30  1  0  0  0  0
 12 31  1  0  0  0  0
M  END
> <PUBCHEM_COMPOUND_CID>
18118

> <PUBCHEM_CONFORMER_RMSD>
0.6

> <PUBCHEM_CONFORMER_DIVERSEORDER>
1
2

> <PUBCHEM_MMFF94_PARTIAL_CHARGES>
8
1 -0.84
11 0.14
12 -0.29
2 0.37
3 0.37
31 0.15
4 -0.04
8 0.14

> <PUBCHEM_EFFECTIVE_ROTOR_COUNT>
3

> <PUBCHEM_PHARMACOPHORE_FEATURES>
3
1 1 cation
6 1 2 3 5 6 7 rings
6 4 8 9 10 11 12 rings

> <PUBCHEM_HEAVY_ATOM_COUNT>
12

> <PUBCHEM_ATOM_DEF_STEREO_COUNT>
0

> <PUBCHEM_ATOM_UDEF_STEREO_COUNT>
0

> <PUBCHEM_BOND_DEF_STEREO_COUNT>
0

> <PUBCHEM_BOND_UDEF_STEREO_COUNT>
0

> <PUBCHEM_ISOTOPIC_ATOM_COUNT>
0

> <PUBCHEM_COMPONENT_COUNT>
1

> <PUBCHEM_CACTVS_TAUTO_COUNT>
1

> <PUBCHEM_CONFORMER_ID>
000046C600000001

> <PUBCHEM_MMFF94_ENERGY>
13.6925

> <PUBCHEM_FEATURE_SELFOVERLAP>
15.223

> <PUBCHEM_SHAPE_FINGERPRINT>
10465860 71 18271825492383467636
10922523 26 18341050701033294246
12897270 3 18337390568595213244
12932764 1 18130786797660473425
13221675 6 18410294709377467619
14144814 61 18412544297177396505
14325111 11 18410294696466269865
14993402 34 18411136905198422085
15442244 35 18194119616697794706
15775835 57 18335708225568451669
16945 1 18266175213301603905
17844478 74 17530689788213311053
18186145 218 17676486133557042034
19422 9 18409452479180963571
20279233 1 16056876922846007006
20645477 70 18334571305071199423
21501502 16 18411419513919852791
23402539 116 18201994404722558020
23402655 69 18335420136342222285
23463225 33 18339360751693291118
23552423 10 18335133202577960307
23559900 14 17917426485393050258
2748010 2 17184748537594784617
3248919 1 18040430027116565728
57096353 35 18337673143004443933
7364860 26 18201152273505545600
74978 22 18272646870229081369
8030462 33 18409724101486717031
93112 12 18411981372978000237
9939556 21 18411138026089927748

> <PUBCHEM_SHAPE_MULTIPOLES>
241.97
5.95
1.58
0.81
0.25
0.03
0.02
-0.18
0.75
0
0.05
-0.11
-0.06
-0.6

> <PUBCHEM_SHAPE_SELFOVERLAP>
487.181

> <PUBCHEM_SHAPE_VOLUME>
139.7

> <PUBCHEM_COORDINATE_TYPE>
2
5
10

$$$$
