15529
  -OEChem-11012400553D

 25 26  0     0  0  0  0  0  0999 V2000
    5.3963    0.0007    0.3317 O   0  0  0  0  0  0  0  0  0  0  0  0
   -0.0791   -0.0005   -0.5713 N   0  0  0  0  0  0  0  0  0  0  0  0
   -0.6924   -0.0001    0.5219 N   0  0  0  0  0  0  0  0  0  0  0  0
    1.3078   -0.0007   -0.3440 C   0  0  0  0  0  0  0  0  0  0  0  0
   -2.0725    0.0002    0.2961 C   0  0  0  0  0  0  0  0  0  0  0  0
    1.9894   -1.2083   -0.2318 C   0  0  0  0  0  0  0  0  0  0  0  0
    1.9886    1.2076   -0.2310 C   0  0  0  0  0  0  0  0  0  0  0  0
    4.0534    0.0003    0.1099 C   0  0  0  0  0  0  0  0  0  0  0  0
    3.3655   -1.2079   -0.0042 C   0  0  0  0  0  0  0  0  0  0  0  0
    3.3648    1.2081   -0.0034 C   0  0  0  0  0  0  0  0  0  0  0  0
   -2.7609   -1.2078    0.1840 C   0  0  0  0  0  0  0  0  0  0  0  0
   -2.7608    1.2082    0.1827 C   0  0  0  0  0  0  0  0  0  0  0  0
   -4.1373   -1.2079   -0.0420 C   0  0  0  0  0  0  0  0  0  0  0  0
   -4.1372    1.2080   -0.0432 C   0  0  0  0  0  0  0  0  0  0  0  0
   -4.8255   -0.0001   -0.1555 C   0  0  0  0  0  0  0  0  0  0  0  0
    1.4614   -2.1540   -0.3199 H   0  0  0  0  0  0  0  0  0  0  0  0
    1.4599    2.1531   -0.3184 H   0  0  0  0  0  0  0  0  0  0  0  0
    3.8902   -2.1556    0.0821 H   0  0  0  0  0  0  0  0  0  0  0  0
    3.8949    2.1525    0.0846 H   0  0  0  0  0  0  0  0  0  0  0  0
   -2.2337   -2.1543    0.2717 H   0  0  0  0  0  0  0  0  0  0  0  0
   -2.2335    2.1548    0.2693 H   0  0  0  0  0  0  0  0  0  0  0  0
   -4.6733   -2.1485   -0.1293 H   0  0  0  0  0  0  0  0  0  0  0  0
   -4.6732    2.1485   -0.1314 H   0  0  0  0  0  0  0  0  0  0  0  0
   -5.8972   -0.0001   -0.3313 H   0  0  0  0  0  0  0  0  0  0  0  0
    5.7074   -0.9194    0.3828 H   0  0  0  0  0  0  0  0  0  0  0  0
  1  8  1  0  0  0  0
  1 25  1  0  0  0  0
  2  3  2  0  0  0  0
  2  4  1  0  0  0  0
  3  5  1  0  0  0  0
  4  6  2  0  0  0  0
  4  7  1  0  0  0  0
  5 11  2  0  0  0  0
  5 12  1  0  0  0  0
  6  9  1  0  0  0  0
  6 16  1  0  0  0  0
  7 10  2  0  0  0  0
  7 17  1  0  0  0  0
  8  9  2  0  0  0  0
  8 10  1  0  0  0  0
  9 18  1  0  0  0  0
 10 19  1  0  0  0  0
 11 13  1  0  0  0  0
 11 20  1  0  0  0  0
 12 14  2  0  0  0  0
 12 21  1  0  0  0  0
 13 15  2  0  0  0  0
 13 22  1  0  0  0  0
 14 15  1  0  0  0  0
 14 23  1  0  0  0  0
 15 24  1  0  0  0  0
M  END
> <PUBCHEM_COMPOUND_CID>
15529

> <PUBCHEM_CONFORMER_RMSD>
0.6

> <PUBCHEM_CONFORMER_DIVERSEORDER>
1
2

> <PUBCHEM_MMFF94_PARTIAL_CHARGES>
25
1 -0.53
10 -0.15
11 -0.15
12 -0.15
13 -0.15
14 -0.15
15 -0.15
16 0.15
17 0.15
18 0.15
19 0.15
2 -0.18
20 0.15
21 0.15
22 0.15
23 0.15
24 0.15
25 0.45
3 -0.18
4 0.18
5 0.18
6 -0.15
7 -0.15
8 0.08
9 -0.15

> <PUBCHEM_EFFECTIVE_ROTOR_COUNT>
2

> <PUBCHEM_PHARMACOPHORE_FEATURES>
3
1 1 donor
6 4 6 7 8 9 10 rings
6 5 11 12 13 14 15 rings

> <PUBCHEM_HEAVY_ATOM_COUNT>
15

> <PUBCHEM_ATOM_DEF_STEREO_COUNT>
0

> <PUBCHEM_ATOM_UDEF_STEREO_COUNT>
0

> <PUBCHEM_BOND_DEF_STEREO_COUNT>
0

> <PUBCHEM_BOND_UDEF_STEREO_COUNT>
0

> <PUBCHEM_ISOTOPIC_ATOM_COUNT>
0

> <PUBCHEM_COMPONENT_COUNT>
1

> <PUBCHEM_CACTVS_TAUTO_COUNT>
3

> <PUBCHEM_CONFORMER_ID>
00003CA900000001

> <PUBCHEM_MMFF94_ENERGY>
39.914

> <PUBCHEM_FEATURE_SELFOVERLAP>
15.223

> <PUBCHEM_SHAPE_FINGERPRINT>
10014705 185 18260546702274832013
11401426 45 18260546723248287511
11615757 297 17275108357364934689
12107183 9 17689433789148751688
12251169 10 18411418427493665014
12500047 106 18412258450093036803
12507557 5 18272931639213885657
13167823 11 18410291415122000075
14123238 8 18410573985156725901
15375358 24 18410295804473120547
17802600 8 18411697694741459105
17834072 33 18408887373327994188
18186145 218 17748823021007687219
18522853 276 18343865510946007417
19050596 39 18411704304801258905
200 152 18130785663968409711
20279233 1 18335428962542115899
20645477 56 18334576798809027261
20645477 70 18270683065110712654
21267235 1 18410865368654883799
22485316 2 18335419049699528931
23402539 116 18411693292890227645
23402655 69 18412545396678565732
23557571 272 18202007594609529669
23559900 14 18270962332558388466
26918003 58 18409728473679106451
300161 21 18410567366891736593
351380 180 18410572890008760689
3545911 37 18411702075739625517
42 15 18334577940473385620
4214541 1 18410293592891770349
42788 4 18410855464702723440
5104073 3 18410576188511898937
542803 24 17385446522339152828
573450 72 18335130973669178147
67856867 119 18264205979550456996
69090 78 18409728469674484171
77779 3 18410857663641556981
9709674 26 18411427215044848919
9971528 1 17822010917510415868
9981440 41 17178006306487509377

> <PUBCHEM_SHAPE_MULTIPOLES>
292.86
10.92
1.42
0.67
0.59
0
-0.01
0
0.43
-0.27
-0.02
-0.01
0
0

> <PUBCHEM_SHAPE_SELFOVERLAP>
631.501

> <PUBCHEM_SHAPE_VOLUME>
161.5

> <PUBCHEM_COORDINATE_TYPE>
2
5
10

$$$$
