15596
  -OEChem-11012401083D

 39 39  0     0  0  0  0  0  0999 V2000
    2.1579    0.0843   -0.3651 O   0  0  0  0  0  0  0  0  0  0  0  0
    2.4436   -1.3803    1.3978 O   0  0  0  0  0  0  0  0  0  0  0  0
   -2.7317    0.0744    0.8459 C   0  0  0  0  0  0  0  0  0  0  0  0
   -2.9226    1.5577    0.5007 C   0  0  0  0  0  0  0  0  0  0  0  0
   -2.7537   -0.8487   -0.3773 C   0  0  0  0  0  0  0  0  0  0  0  0
   -1.8289    2.1754   -0.3818 C   0  0  0  0  0  0  0  0  0  0  0  0
   -2.2551   -2.2666   -0.0732 C   0  0  0  0  0  0  0  0  0  0  0  0
   -0.4276    2.0956    0.2313 C   0  0  0  0  0  0  0  0  0  0  0  0
   -0.7483   -2.3802    0.2031 C   0  0  0  0  0  0  0  0  0  0  0  0
    0.6464    2.5230   -0.7712 C   0  0  0  0  0  0  0  0  0  0  0  0
    0.1235   -2.0175   -1.0063 C   0  0  0  0  0  0  0  0  0  0  0  0
    2.0711    2.5029   -0.2018 C   0  0  0  0  0  0  0  0  0  0  0  0
    1.6165   -2.1806   -0.7237 C   0  0  0  0  0  0  0  0  0  0  0  0
    2.4808    1.1984    0.4813 C   0  0  0  0  0  0  0  0  0  0  0  0
    2.1278   -1.1380    0.2402 C   0  0  0  0  0  0  0  0  0  0  0  0
   -3.5420   -0.2290    1.5213 H   0  0  0  0  0  0  0  0  0  0  0  0
   -1.8109   -0.0500    1.4215 H   0  0  0  0  0  0  0  0  0  0  0  0
   -3.8899    1.6859   -0.0005 H   0  0  0  0  0  0  0  0  0  0  0  0
   -2.9805    2.1258    1.4374 H   0  0  0  0  0  0  0  0  0  0  0  0
   -2.1760   -0.4323   -1.2051 H   0  0  0  0  0  0  0  0  0  0  0  0
   -3.7885   -0.9141   -0.7366 H   0  0  0  0  0  0  0  0  0  0  0  0
   -1.8345    1.6986   -1.3680 H   0  0  0  0  0  0  0  0  0  0  0  0
   -2.0787    3.2296   -0.5562 H   0  0  0  0  0  0  0  0  0  0  0  0
   -2.5046   -2.9134   -0.9235 H   0  0  0  0  0  0  0  0  0  0  0  0
   -2.8038   -2.6630    0.7899 H   0  0  0  0  0  0  0  0  0  0  0  0
   -0.3805    2.7276    1.1257 H   0  0  0  0  0  0  0  0  0  0  0  0
   -0.2218    1.0702    0.5463 H   0  0  0  0  0  0  0  0  0  0  0  0
   -0.5344   -3.4174    0.4908 H   0  0  0  0  0  0  0  0  0  0  0  0
   -0.4769   -1.7615    1.0644 H   0  0  0  0  0  0  0  0  0  0  0  0
    0.6028    1.8644   -1.6478 H   0  0  0  0  0  0  0  0  0  0  0  0
    0.4303    3.5356   -1.1332 H   0  0  0  0  0  0  0  0  0  0  0  0
   -0.0735   -0.9879   -1.3219 H   0  0  0  0  0  0  0  0  0  0  0  0
   -0.1464   -2.6682   -1.8466 H   0  0  0  0  0  0  0  0  0  0  0  0
    2.7590    2.6931   -1.0352 H   0  0  0  0  0  0  0  0  0  0  0  0
    2.1976    3.3295    0.5072 H   0  0  0  0  0  0  0  0  0  0  0  0
    2.1935   -2.0958   -1.6519 H   0  0  0  0  0  0  0  0  0  0  0  0
    1.8308   -3.1736   -0.3127 H   0  0  0  0  0  0  0  0  0  0  0  0
    3.5611    1.2000    0.6637 H   0  0  0  0  0  0  0  0  0  0  0  0
    1.9657    1.1057    1.4447 H   0  0  0  0  0  0  0  0  0  0  0  0
  1 14  1  0  0  0  0
  1 15  1  0  0  0  0
  2 15  2  0  0  0  0
  3  4  1  0  0  0  0
  3  5  1  0  0  0  0
  3 16  1  0  0  0  0
  3 17  1  0  0  0  0
  4  6  1  0  0  0  0
  4 18  1  0  0  0  0
  4 19  1  0  0  0  0
  5  7  1  0  0  0  0
  5 20  1  0  0  0  0
  5 21  1  0  0  0  0
  6  8  1  0  0  0  0
  6 22  1  0  0  0  0
  6 23  1  0  0  0  0
  7  9  1  0  0  0  0
  7 24  1  0  0  0  0
  7 25  1  0  0  0  0
  8 10  1  0  0  0  0
  8 26  1  0  0  0  0
  8 27  1  0  0  0  0
  9 11  1  0  0  0  0
  9 28  1  0  0  0  0
  9 29  1  0  0  0  0
 10 12  1  0  0  0  0
 10 30  1  0  0  0  0
 10 31  1  0  0  0  0
 11 13  1  0  0  0  0
 11 32  1  0  0  0  0
 11 33  1  0  0  0  0
 12 14  1  0  0  0  0
 12 34  1  0  0  0  0
 12 35  1  0  0  0  0
 13 15  1  0  0  0  0
 13 36  1  0  0  0  0
 13 37  1  0  0  0  0
 14 38  1  0  0  0  0
 14 39  1  0  0  0  0
M  END
> <PUBCHEM_COMPOUND_CID>
15596

> <PUBCHEM_CONFORMER_RMSD>
0.6

> <PUBCHEM_CONFORMER_DIVERSEORDER>
1
48
9
22
37
30
31
39
24
35
26
34
41
47
27
8
29
45
3
42
13
28
25
36
43
32
16
44
21
17
23
6
20
49
11
18
33
10
14
4
7
38
15
12
5
19
40
46
2

> <PUBCHEM_MMFF94_PARTIAL_CHARGES>
5
1 -0.43
13 0.06
14 0.28
15 0.66
2 -0.57

> <PUBCHEM_EFFECTIVE_ROTOR_COUNT>
2.6

> <PUBCHEM_PHARMACOPHORE_FEATURES>
1
1 2 acceptor

> <PUBCHEM_HEAVY_ATOM_COUNT>
15

> <PUBCHEM_ATOM_DEF_STEREO_COUNT>
0

> <PUBCHEM_ATOM_UDEF_STEREO_COUNT>
0

> <PUBCHEM_BOND_DEF_STEREO_COUNT>
0

> <PUBCHEM_BOND_UDEF_STEREO_COUNT>
0

> <PUBCHEM_ISOTOPIC_ATOM_COUNT>
0

> <PUBCHEM_COMPONENT_COUNT>
1

> <PUBCHEM_CACTVS_TAUTO_COUNT>
1

> <PUBCHEM_CONFORMER_ID>
00003CEC00000001

> <PUBCHEM_MMFF94_ENERGY>
10.0409

> <PUBCHEM_FEATURE_SELFOVERLAP>
5.074

> <PUBCHEM_SHAPE_FINGERPRINT>
11321824 6 18056752354840979279
13618510 140 17977948217299755692
1420 336 18409731716490223691
14251711 518 17548411961163391678
14251745 187 17333372298981286150
192875 21 18195781081862715551
19930374 2 17613697242342400664
20905425 154 18196943372890034327
21249577 28 17905887333311630037
2334 1 18410573985320438149
23590187 152 17905032664931950402
2748010 2 17474954225082712541
2803657 2 17334191916026907340
2897 32 17257372371562841517
44154327 71 18194692685715588515
59345606 82 18195247711322330503
5939293 188 18338799987809573777
66348 1 18123753320545948837

> <PUBCHEM_SHAPE_MULTIPOLES>
296.95
4.65
3.97
0.97
0.9
0.3
-0.07
0.41
-0.8
-0.21
0.56
-0.18
-0.19
-0.41

> <PUBCHEM_SHAPE_SELFOVERLAP>
561.33

> <PUBCHEM_SHAPE_VOLUME>
181.4

> <PUBCHEM_COORDINATE_TYPE>
2
5
10

$$$$
