142322
  -OEChem-11012401073D

 34 35  0     1  0  0  0  0  0999 V2000
   -0.3051    0.9641    1.0349 C   0  0  1  0  0  0  0  0  0  0  0  0
   -0.3250    2.2473    0.1842 C   0  0  0  0  0  0  0  0  0  0  0  0
   -1.7440    0.4447    1.1589 C   0  0  0  0  0  0  0  0  0  0  0  0
    0.6768   -0.0757    0.5094 C   0  0  0  0  0  0  0  0  0  0  0  0
    1.0868    2.7078   -0.1430 C   0  0  0  0  0  0  0  0  0  0  0  0
    1.7864    1.6594   -0.9987 C   0  0  0  0  0  0  0  0  0  0  0  0
    1.6747    0.2683   -0.4267 C   0  0  0  0  0  0  0  0  0  0  0  0
   -2.2654   -0.0463   -0.1859 C   0  0  0  0  0  0  0  0  0  0  0  0
    0.6566   -1.3894    1.0113 C   0  0  0  0  0  0  0  0  0  0  0  0
   -3.6875   -0.5906   -0.0520 C   0  0  0  0  0  0  0  0  0  0  0  0
    2.5738   -0.7110   -0.8821 C   0  0  0  0  0  0  0  0  0  0  0  0
    1.5640   -2.3499    0.5608 C   0  0  0  0  0  0  0  0  0  0  0  0
    2.5180   -2.0128   -0.3913 C   0  0  0  0  0  0  0  0  0  0  0  0
   -4.2101   -1.1159   -1.3795 C   0  0  0  0  0  0  0  0  0  0  0  0
    0.0454    1.2384    2.0398 H   0  0  0  0  0  0  0  0  0  0  0  0
   -0.8506    3.0398    0.7309 H   0  0  0  0  0  0  0  0  0  0  0  0
   -0.8503    2.1226   -0.7667 H   0  0  0  0  0  0  0  0  0  0  0  0
   -2.3921    1.2471    1.5349 H   0  0  0  0  0  0  0  0  0  0  0  0
   -1.8054   -0.3596    1.9007 H   0  0  0  0  0  0  0  0  0  0  0  0
    1.6473    2.8750    0.7854 H   0  0  0  0  0  0  0  0  0  0  0  0
    1.0594    3.6632   -0.6789 H   0  0  0  0  0  0  0  0  0  0  0  0
    2.8420    1.9386   -1.1003 H   0  0  0  0  0  0  0  0  0  0  0  0
    1.3473    1.6524   -2.0043 H   0  0  0  0  0  0  0  0  0  0  0  0
   -2.2951    0.7555   -0.9282 H   0  0  0  0  0  0  0  0  0  0  0  0
   -1.6302   -0.8390   -0.5948 H   0  0  0  0  0  0  0  0  0  0  0  0
   -0.0621   -1.6858    1.7701 H   0  0  0  0  0  0  0  0  0  0  0  0
   -4.3565    0.1978    0.3122 H   0  0  0  0  0  0  0  0  0  0  0  0
   -3.7089   -1.4014    0.6855 H   0  0  0  0  0  0  0  0  0  0  0  0
    3.3298   -0.4575   -1.6217 H   0  0  0  0  0  0  0  0  0  0  0  0
    1.5251   -3.3602    0.9576 H   0  0  0  0  0  0  0  0  0  0  0  0
    3.2223   -2.7592   -0.7459 H   0  0  0  0  0  0  0  0  0  0  0  0
   -3.5818   -1.9302   -1.7545 H   0  0  0  0  0  0  0  0  0  0  0  0
   -4.2327   -0.3233   -2.1342 H   0  0  0  0  0  0  0  0  0  0  0  0
   -5.2280   -1.5001   -1.2605 H   0  0  0  0  0  0  0  0  0  0  0  0
  1  2  1  0  0  0  0
  1  3  1  0  0  0  0
  1  4  1  0  0  0  0
  1 15  1  0  0  0  0
  2  5  1  0  0  0  0
  2 16  1  0  0  0  0
  2 17  1  0  0  0  0
  3  8  1  0  0  0  0
  3 18  1  0  0  0  0
  3 19  1  0  0  0  0
  4  7  1  0  0  0  0
  4  9  2  0  0  0  0
  5  6  1  0  0  0  0
  5 20  1  0  0  0  0
  5 21  1  0  0  0  0
  6  7  1  0  0  0  0
  6 22  1  0  0  0  0
  6 23  1  0  0  0  0
  7 11  2  0  0  0  0
  8 10  1  0  0  0  0
  8 24  1  0  0  0  0
  8 25  1  0  0  0  0
  9 12  1  0  0  0  0
  9 26  1  0  0  0  0
 10 14  1  0  0  0  0
 10 27  1  0  0  0  0
 10 28  1  0  0  0  0
 11 13  1  0  0  0  0
 11 29  1  0  0  0  0
 12 13  2  0  0  0  0
 12 30  1  0  0  0  0
 13 31  1  0  0  0  0
 14 32  1  0  0  0  0
 14 33  1  0  0  0  0
 14 34  1  0  0  0  0
M  END
> <PUBCHEM_COMPOUND_CID>
142322

> <PUBCHEM_CONFORMER_RMSD>
0.6

> <PUBCHEM_CONFORMER_DIVERSEORDER>
1
4
14
3
11
6
5
2
7
8
10
9
13
12

> <PUBCHEM_MMFF94_PARTIAL_CHARGES>
12
1 0.14
11 -0.15
12 -0.15
13 -0.15
26 0.15
29 0.15
30 0.15
31 0.15
4 -0.14
6 0.14
7 -0.14
9 -0.15

> <PUBCHEM_EFFECTIVE_ROTOR_COUNT>
3.8

> <PUBCHEM_PHARMACOPHORE_FEATURES>
3
1 14 hydrophobe
6 1 2 4 5 6 7 rings
6 4 7 9 11 12 13 rings

> <PUBCHEM_HEAVY_ATOM_COUNT>
14

> <PUBCHEM_ATOM_DEF_STEREO_COUNT>
0

> <PUBCHEM_ATOM_UDEF_STEREO_COUNT>
1

> <PUBCHEM_BOND_DEF_STEREO_COUNT>
0

> <PUBCHEM_BOND_UDEF_STEREO_COUNT>
0

> <PUBCHEM_ISOTOPIC_ATOM_COUNT>
0

> <PUBCHEM_COMPONENT_COUNT>
1

> <PUBCHEM_CACTVS_TAUTO_COUNT>
1

> <PUBCHEM_CONFORMER_ID>
00022BF200000001

> <PUBCHEM_MMFF94_ENERGY>
25.6307

> <PUBCHEM_FEATURE_SELFOVERLAP>
15.244

> <PUBCHEM_SHAPE_FINGERPRINT>
11221954 11 13409372843007172615
11321824 6 17398672298590965633
11578080 2 17988063509860058753
11806522 49 18343862225575412362
12138202 97 17541953421404022948
12202030 40 16627434238506753486
12400797 292 18269839868540902399
12553582 1 18265621983118208107
13083527 12 18263902398724701074
14128692 85 18270968933706507026
14817 1 15753123967961736377
15757776 16 18412544327252704118
15852999 172 17977947117899320032
16945 1 18190202159905292240
18186145 218 17531243959606753793
20361792 2 18342172220437569443
20645477 70 18340197609666566375
20671657 53 18337668624983964047
20871998 184 17329162273131978664
21452121 199 18264470828660850538
21634736 98 18342460395241859623
22112679 90 17986974984631466137
23388829 49 18264781969266746760
23402539 116 18264212405164338554
23419403 2 17174283089859246872
23598291 2 18271821103001029449
238 59 18120647187650612247
25 1 18190189068665807661
251288 83 12966833702699886413
257057 1 18120082897271365850
2748010 2 17900564284495459984
3060560 45 18047458217506410525
3323516 105 18189908697917854379
4175511 335 18263639722614097213
6338986 31 18192424173767533715
7364860 26 18270676579678037705
81228 2 17831859049375122385

> <PUBCHEM_SHAPE_MULTIPOLES>
288.11
5.13
2.76
1.2
6.62
0.79
0.03
-2.93
2.38
-1.83
0.03
0.35
-0.12
-0.78

> <PUBCHEM_SHAPE_SELFOVERLAP>
592.411

> <PUBCHEM_SHAPE_VOLUME>
161.2

> <PUBCHEM_COORDINATE_TYPE>
2
5
10

$$$$
