73720
  -OEChem-11012401093D

 25 25  0     0  0  0  0  0  0999 V2000
   -2.2082   -0.0096   -0.0001 Si  0  0  0  0  0  0  0  0  0  0  0  0
   -0.7421   -0.8066    0.0004 O   0  0  0  0  0  0  0  0  0  0  0  0
   -3.6125   -1.2707   -0.0003 C   0  0  0  0  0  0  0  0  0  0  0  0
   -2.4086    1.0642    1.5300 C   0  0  0  0  0  0  0  0  0  0  0  0
   -2.4085    1.0640   -1.5304 C   0  0  0  0  0  0  0  0  0  0  0  0
    0.5681   -0.4095    0.0008 C   0  0  0  0  0  0  0  0  0  0  0  0
    0.8777    0.9465    0.0006 C   0  0  0  0  0  0  0  0  0  0  0  0
    1.5782   -1.3656    0.0002 C   0  0  0  0  0  0  0  0  0  0  0  0
    2.2125    1.3511   -0.0001 C   0  0  0  0  0  0  0  0  0  0  0  0
    2.9131   -0.9611   -0.0004 C   0  0  0  0  0  0  0  0  0  0  0  0
    3.2303    0.3973   -0.0006 C   0  0  0  0  0  0  0  0  0  0  0  0
   -3.5536   -1.9073    0.8872 H   0  0  0  0  0  0  0  0  0  0  0  0
   -4.5824   -0.7649   -0.0006 H   0  0  0  0  0  0  0  0  0  0  0  0
   -3.5531   -1.9074   -0.8878 H   0  0  0  0  0  0  0  0  0  0  0  0
   -2.2766    0.4657    2.4362 H   0  0  0  0  0  0  0  0  0  0  0  0
   -1.6781    1.8771    1.5469 H   0  0  0  0  0  0  0  0  0  0  0  0
   -3.4085    1.5076    1.5560 H   0  0  0  0  0  0  0  0  0  0  0  0
   -3.4083    1.5076   -1.5565 H   0  0  0  0  0  0  0  0  0  0  0  0
   -1.6777    1.8768   -1.5474 H   0  0  0  0  0  0  0  0  0  0  0  0
   -2.2766    0.4653   -2.4365 H   0  0  0  0  0  0  0  0  0  0  0  0
    0.1249    1.7258    0.0007 H   0  0  0  0  0  0  0  0  0  0  0  0
    1.3358   -2.4246    0.0001 H   0  0  0  0  0  0  0  0  0  0  0  0
    2.4602    2.4086   -0.0003 H   0  0  0  0  0  0  0  0  0  0  0  0
    3.7056   -1.7038   -0.0009 H   0  0  0  0  0  0  0  0  0  0  0  0
    4.2697    0.7122   -0.0010 H   0  0  0  0  0  0  0  0  0  0  0  0
  1  2  1  0  0  0  0
  1  3  1  0  0  0  0
  1  4  1  0  0  0  0
  1  5  1  0  0  0  0
  2  6  1  0  0  0  0
  3 12  1  0  0  0  0
  3 13  1  0  0  0  0
  3 14  1  0  0  0  0
  4 15  1  0  0  0  0
  4 16  1  0  0  0  0
  4 17  1  0  0  0  0
  5 18  1  0  0  0  0
  5 19  1  0  0  0  0
  5 20  1  0  0  0  0
  6  7  2  0  0  0  0
  6  8  1  0  0  0  0
  7  9  1  0  0  0  0
  7 21  1  0  0  0  0
  8 10  2  0  0  0  0
  8 22  1  0  0  0  0
  9 11  2  0  0  0  0
  9 23  1  0  0  0  0
 10 11  1  0  0  0  0
 10 24  1  0  0  0  0
 11 25  1  0  0  0  0
M  END
> <PUBCHEM_COMPOUND_CID>
73720

> <PUBCHEM_CONFORMER_RMSD>
0.4

> <PUBCHEM_CONFORMER_DIVERSEORDER>
1
2
3

> <PUBCHEM_MMFF94_PARTIAL_CHARGES>
16
1 0.54
10 -0.15
11 -0.15
2 -0.38
21 0.15
22 0.15
23 0.15
24 0.15
25 0.15
3 -0.08
4 -0.08
5 -0.08
6 0.08
7 -0.15
8 -0.15
9 -0.15

> <PUBCHEM_EFFECTIVE_ROTOR_COUNT>
2

> <PUBCHEM_PHARMACOPHORE_FEATURES>
1
6 6 7 8 9 10 11 rings

> <PUBCHEM_HEAVY_ATOM_COUNT>
11

> <PUBCHEM_ATOM_DEF_STEREO_COUNT>
0

> <PUBCHEM_ATOM_UDEF_STEREO_COUNT>
0

> <PUBCHEM_BOND_DEF_STEREO_COUNT>
0

> <PUBCHEM_BOND_UDEF_STEREO_COUNT>
0

> <PUBCHEM_ISOTOPIC_ATOM_COUNT>
0

> <PUBCHEM_COMPONENT_COUNT>
1

> <PUBCHEM_CACTVS_TAUTO_COUNT>
1

> <PUBCHEM_CONFORMER_ID>
00011FF800000001

> <PUBCHEM_MMFF94_ENERGY>
21.4434

> <PUBCHEM_FEATURE_SELFOVERLAP>
5.074

> <PUBCHEM_SHAPE_FINGERPRINT>
10608611 8 18261101985120857845
124424 183 17604136022434459210
12932764 1 18041003890624272475
14144814 61 18342458123224804138
14325111 11 18410856572535247457
15775835 57 18334860498093117221
16945 1 18266459815309931014
17844478 74 17894642439158598353
18186145 218 18411141299060813502
200 152 18201709678903847807
20201158 50 18334293179989339243
20279233 1 17312822692708443195
20645477 70 18410848829047472879
20711983 171 17704083867135443649
21028194 46 18335419109823581964
21524375 3 18047755085867507700
23402539 116 17561357400820988365
23402655 69 18412257333496336349
25610 137 18199752608246141371
3248919 1 18060133189624077231
5084963 1 18334857246707883105
57812782 119 18187357761847085391
63268167 104 18410853239730452616
8030462 33 17703501121498270401

> <PUBCHEM_SHAPE_MULTIPOLES>
238.72
5.95
1.54
1.07
0.22
0.05
0
0.52
0
-0.02
0
-1.02
-0.42
0

> <PUBCHEM_SHAPE_SELFOVERLAP>
459.681

> <PUBCHEM_SHAPE_VOLUME>
146.6

> <PUBCHEM_COORDINATE_TYPE>
2
5
10

$$$$
