520904
  -OEChem-10312420102D

 18 16  0     0  0  0  0  0  0999 V2000
    0.5369    1.5000    0.0000 O   0  0  0  0  0  0  0  0  0  0  0  0
    1.4030    0.0000    0.0000 O   0  0  0  0  0  0  0  0  0  0  0  0
    4.8671    1.0000    0.0000 O   0  5  0  0  0  0  0  0  0  0  0  0
    4.0010    2.5000    0.0000 O   0  0  0  0  0  0  0  0  0  0  0  0
    2.4335    5.0369    0.0000 N   0  3  0  0  0  0  0  0  0  0  0  0
    2.2690    1.5000    0.0000 C   0  0  0  0  0  0  0  0  0  0  0  0
    3.1350    1.0000    0.0000 C   0  0  0  0  0  0  0  0  0  0  0  0
    1.4030    1.0000    0.0000 C   0  0  0  0  0  0  0  0  0  0  0  0
    4.0010    1.5000    0.0000 C   0  0  0  0  0  0  0  0  0  0  0  0
    2.6675    1.9750    0.0000 H   0  0  0  0  0  0  0  0  0  0  0  0
    1.8705    1.9750    0.0000 H   0  0  0  0  0  0  0  0  0  0  0  0
    2.7365    0.5251    0.0000 H   0  0  0  0  0  0  0  0  0  0  0  0
    3.5335    0.5251    0.0000 H   0  0  0  0  0  0  0  0  0  0  0  0
    0.0000    1.1900    0.0000 H   0  0  0  0  0  0  0  0  0  0  0  0
    2.9705    5.3469    0.0000 H   0  0  0  0  0  0  0  0  0  0  0  0
    1.8966    4.7269    0.0000 H   0  0  0  0  0  0  0  0  0  0  0  0
    2.1235    5.5739    0.0000 H   0  0  0  0  0  0  0  0  0  0  0  0
    2.7435    4.5000    0.0000 H   0  0  0  0  0  0  0  0  0  0  0  0
  1  8  1  0  0  0  0
  1 14  1  0  0  0  0
  2  8  2  0  0  0  0
  3  9  1  0  0  0  0
  4  9  2  0  0  0  0
  5 15  1  0  0  0  0
  5 16  1  0  0  0  0
  5 17  1  0  0  0  0
  5 18  1  0  0  0  0
  6  7  1  0  0  0  0
  6  8  1  0  0  0  0
  6 10  1  0  0  0  0
  6 11  1  0  0  0  0
  7  9  1  0  0  0  0
  7 12  1  0  0  0  0
  7 13  1  0  0  0  0
M  CHG  2   3  -1   5   1
M  END
> <PUBCHEM_COMPOUND_CID>
520904

> <PUBCHEM_COMPOUND_CANONICALIZED>
1

> <PUBCHEM_CACTVS_COMPLEXITY>
101

> <PUBCHEM_CACTVS_HBOND_ACCEPTOR>
4

> <PUBCHEM_CACTVS_HBOND_DONOR>
2

> <PUBCHEM_CACTVS_ROTATABLE_BOND>
2

> <PUBCHEM_CACTVS_SUBSKEYS>
AAADccBiOAAAAAAAAAAAAAAAAAAAAAAAAAAAAAAAAAAAAAAAAAAAGgAQCAAACACAgAAACAAAAgAIAACQCAAAAAAAAAAAAAEAAAAAABAAAAAAQAAEAAAAAABDAAAAAAAAAAAAAAAAAAAAAAAAAAAAAAAAAA==

> <PUBCHEM_IUPAC_OPENEYE_NAME>
ammonium;4-hydroxy-4-oxo-butanoate

> <PUBCHEM_IUPAC_CAS_NAME>
ammonium;4-hydroxy-4-oxobutanoate

> <PUBCHEM_IUPAC_NAME_MARKUP>
azanium;4-hydroxy-4-oxobutanoate

> <PUBCHEM_IUPAC_NAME>
azanium;4-hydroxy-4-oxobutanoate

> <PUBCHEM_IUPAC_SYSTEMATIC_NAME>
azanium;4-oxidanyl-4-oxidanylidene-butanoate

> <PUBCHEM_IUPAC_TRADITIONAL_NAME>
ammonium;4-hydroxy-4-keto-butyrate

> <PUBCHEM_IUPAC_INCHI>
InChI=1S/C4H6O4.H3N/c5-3(6)1-2-4(7)8;/h1-2H2,(H,5,6)(H,7,8);1H3

> <PUBCHEM_IUPAC_INCHIKEY>
ZBALFGIGLVIXBV-UHFFFAOYSA-N

> <PUBCHEM_EXACT_MASS>
135.05315777

> <PUBCHEM_MOLECULAR_FORMULA>
C4H9NO4

> <PUBCHEM_MOLECULAR_WEIGHT>
135.12

> <PUBCHEM_OPENEYE_CAN_SMILES>
C(CC(=O)[O-])C(=O)O.[NH4+]

> <PUBCHEM_OPENEYE_ISO_SMILES>
C(CC(=O)[O-])C(=O)O.[NH4+]

> <PUBCHEM_CACTVS_TPSA>
78.4

> <PUBCHEM_MONOISOTOPIC_WEIGHT>
135.05315777

> <PUBCHEM_TOTAL_CHARGE>
0

> <PUBCHEM_HEAVY_ATOM_COUNT>
9

> <PUBCHEM_ATOM_DEF_STEREO_COUNT>
0

> <PUBCHEM_ATOM_UDEF_STEREO_COUNT>
0

> <PUBCHEM_BOND_DEF_STEREO_COUNT>
0

> <PUBCHEM_BOND_UDEF_STEREO_COUNT>
0

> <PUBCHEM_ISOTOPIC_ATOM_COUNT>
0

> <PUBCHEM_COMPONENT_COUNT>
2

> <PUBCHEM_CACTVS_TAUTO_COUNT>
-1

> <PUBCHEM_COORDINATE_TYPE>
1
5
255

$$$$
