70962
  -OEChem-11012401063D

 29 29  0     1  0  0  0  0  0999 V2000
    0.3837    2.3275   -0.6581 O   0  0  0  0  0  0  0  0  0  0  0  0
    0.8270   -0.0329   -0.6710 C   0  0  2  0  0  0  0  0  0  0  0  0
   -0.0872   -1.1617   -1.1537 C   0  0  0  0  0  0  0  0  0  0  0  0
   -2.0998   -0.1276   -0.0366 C   0  0  2  0  0  0  0  0  0  0  0  0
   -1.2797   -1.4098   -0.2302 C   0  0  0  0  0  0  0  0  0  0  0  0
    1.6793   -0.4325    0.5290 C   0  0  0  0  0  0  0  0  0  0  0  0
   -1.2301    1.0020    0.5167 C   0  0  0  0  0  0  0  0  0  0  0  0
    0.0064    1.2012   -0.3340 C   0  0  0  0  0  0  0  0  0  0  0  0
   -3.2928   -0.3845    0.8817 C   0  0  0  0  0  0  0  0  0  0  0  0
    2.4858   -1.6928    0.2209 C   0  0  0  0  0  0  0  0  0  0  0  0
    2.6072    0.7111    0.9354 C   0  0  0  0  0  0  0  0  0  0  0  0
    1.4836    0.2364   -1.5100 H   0  0  0  0  0  0  0  0  0  0  0  0
    0.4523   -2.0953   -1.3349 H   0  0  0  0  0  0  0  0  0  0  0  0
   -0.4876   -0.8715   -2.1357 H   0  0  0  0  0  0  0  0  0  0  0  0
   -2.4867    0.1812   -1.0173 H   0  0  0  0  0  0  0  0  0  0  0  0
   -1.9137   -2.1893   -0.6700 H   0  0  0  0  0  0  0  0  0  0  0  0
   -0.9336   -1.7940    0.7367 H   0  0  0  0  0  0  0  0  0  0  0  0
    1.0440   -0.6500    1.3967 H   0  0  0  0  0  0  0  0  0  0  0  0
   -0.9095    0.7957    1.5438 H   0  0  0  0  0  0  0  0  0  0  0  0
   -1.7989    1.9389    0.5276 H   0  0  0  0  0  0  0  0  0  0  0  0
   -3.9381   -1.1677    0.4702 H   0  0  0  0  0  0  0  0  0  0  0  0
   -2.9674   -0.7024    1.8781 H   0  0  0  0  0  0  0  0  0  0  0  0
   -3.8971    0.5216    0.9957 H   0  0  0  0  0  0  0  0  0  0  0  0
    3.0257   -1.6047   -0.7280 H   0  0  0  0  0  0  0  0  0  0  0  0
    3.2272   -1.8776    1.0067 H   0  0  0  0  0  0  0  0  0  0  0  0
    1.8529   -2.5842    0.1839 H   0  0  0  0  0  0  0  0  0  0  0  0
    3.2314    1.0372    0.0962 H   0  0  0  0  0  0  0  0  0  0  0  0
    3.2764    0.3964    1.7440 H   0  0  0  0  0  0  0  0  0  0  0  0
    2.0507    1.5766    1.3080 H   0  0  0  0  0  0  0  0  0  0  0  0
  1  8  2  0  0  0  0
  2  3  1  0  0  0  0
  2  6  1  0  0  0  0
  2  8  1  0  0  0  0
  2 12  1  0  0  0  0
  3  5  1  0  0  0  0
  3 13  1  0  0  0  0
  3 14  1  0  0  0  0
  4  5  1  0  0  0  0
  4  7  1  0  0  0  0
  4  9  1  0  0  0  0
  4 15  1  0  0  0  0
  5 16  1  0  0  0  0
  5 17  1  0  0  0  0
  6 10  1  0  0  0  0
  6 11  1  0  0  0  0
  6 18  1  0  0  0  0
  7  8  1  0  0  0  0
  7 19  1  0  0  0  0
  7 20  1  0  0  0  0
  9 21  1  0  0  0  0
  9 22  1  0  0  0  0
  9 23  1  0  0  0  0
 10 24  1  0  0  0  0
 10 25  1  0  0  0  0
 10 26  1  0  0  0  0
 11 27  1  0  0  0  0
 11 28  1  0  0  0  0
 11 29  1  0  0  0  0
M  END
> <PUBCHEM_COMPOUND_CID>
70962

> <PUBCHEM_CONFORMER_RMSD>
0.4

> <PUBCHEM_CONFORMER_DIVERSEORDER>
2
6
4
7
8
3
5
1

> <PUBCHEM_MMFF94_PARTIAL_CHARGES>
4
1 -0.57
2 0.06
7 0.06
8 0.45

> <PUBCHEM_EFFECTIVE_ROTOR_COUNT>
2

> <PUBCHEM_PHARMACOPHORE_FEATURES>
3
1 1 acceptor
3 6 10 11 hydrophobe
6 2 3 4 5 7 8 rings

> <PUBCHEM_HEAVY_ATOM_COUNT>
11

> <PUBCHEM_ATOM_DEF_STEREO_COUNT>
2

> <PUBCHEM_ATOM_UDEF_STEREO_COUNT>
0

> <PUBCHEM_BOND_DEF_STEREO_COUNT>
0

> <PUBCHEM_BOND_UDEF_STEREO_COUNT>
0

> <PUBCHEM_ISOTOPIC_ATOM_COUNT>
0

> <PUBCHEM_COMPONENT_COUNT>
1

> <PUBCHEM_CACTVS_TAUTO_COUNT>
3

> <PUBCHEM_CONFORMER_ID>
0001153200000002

> <PUBCHEM_MMFF94_ENERGY>
16.7535

> <PUBCHEM_FEATURE_SELFOVERLAP>
15.223

> <PUBCHEM_SHAPE_FINGERPRINT>
10219947 1 18341895182093451835
10857977 72 18335415759770190267
12138202 97 17320698262575289149
12251169 10 18202278083059670090
12423570 1 12730137848363101708
12524768 44 18343579633712214446
13839132 238 16486709025057011897
15076042 46 18130221545572887600
15775835 57 17774723159534327850
16945 1 18337106886015959469
18185500 45 18124868212309310526
20653085 51 12894774995880534106
20653091 64 18046905162888457563
20711983 138 17749948830504309594
20871998 184 18196649601348212574
21028194 46 12247679391593979825
21040471 1 17844544394540363919
21293036 1 8574417713126717243
23388829 49 17697296766229819279
23419403 2 14752155850902939399
23552423 10 18121221145335869575
241688 4 17835829420438985203
2748010 2 18266736891939508997
29004967 10 18040709294559226920
369184 2 18271795809463733283
5084963 1 17629456645540421942
528862 383 17971193874447229693

> <PUBCHEM_SHAPE_MULTIPOLES>
220.51
3.87
1.85
1.03
0.84
0.4
0.03
-0.89
-1.72
-0.52
0.33
-0.02
0
0

> <PUBCHEM_SHAPE_SELFOVERLAP>
431.798

> <PUBCHEM_SHAPE_VOLUME>
133.2

> <PUBCHEM_COORDINATE_TYPE>
2
5
10

$$$$
