5372954
  -OEChem-11012400523D

 19 19  0     0  0  0  0  0  0999 V2000
    3.4119    0.8064   -0.0751 O   0  0  0  0  0  0  0  0  0  0  0  0
    1.4479    0.9204    1.0798 O   0  0  0  0  0  0  0  0  0  0  0  0
   -0.4687   -0.6661   -0.3137 C   0  0  0  0  0  0  0  0  0  0  0  0
   -1.4556   -1.1761    0.5299 C   0  0  0  0  0  0  0  0  0  0  0  0
   -0.6503    0.5715   -0.9313 C   0  0  0  0  0  0  0  0  0  0  0  0
    0.7497   -1.4248   -0.5494 C   0  0  0  0  0  0  0  0  0  0  0  0
   -2.6242   -0.4488    0.7559 C   0  0  0  0  0  0  0  0  0  0  0  0
   -1.8190    1.2988   -0.7052 C   0  0  0  0  0  0  0  0  0  0  0  0
   -2.8058    0.7886    0.1384 C   0  0  0  0  0  0  0  0  0  0  0  0
    2.0012   -1.0012   -0.2648 C   0  0  0  0  0  0  0  0  0  0  0  0
    2.2130    0.3311    0.3355 C   0  0  0  0  0  0  0  0  0  0  0  0
   -1.3285   -2.1389    1.0189 H   0  0  0  0  0  0  0  0  0  0  0  0
    0.0985    0.9826   -1.6042 H   0  0  0  0  0  0  0  0  0  0  0  0
    0.6183   -2.4160   -0.9757 H   0  0  0  0  0  0  0  0  0  0  0  0
   -3.3927   -0.8459    1.4127 H   0  0  0  0  0  0  0  0  0  0  0  0
   -1.9621    2.2609   -1.1883 H   0  0  0  0  0  0  0  0  0  0  0  0
   -3.7160    1.3546    0.3138 H   0  0  0  0  0  0  0  0  0  0  0  0
    2.8638   -1.6154   -0.4970 H   0  0  0  0  0  0  0  0  0  0  0  0
    3.6022    1.6938    0.2973 H   0  0  0  0  0  0  0  0  0  0  0  0
  1 11  1  0  0  0  0
  1 19  1  0  0  0  0
  2 11  2  0  0  0  0
  3  4  2  0  0  0  0
  3  5  1  0  0  0  0
  3  6  1  0  0  0  0
  4  7  1  0  0  0  0
  4 12  1  0  0  0  0
  5  8  2  0  0  0  0
  5 13  1  0  0  0  0
  6 10  2  0  0  0  0
  6 14  1  0  0  0  0
  7  9  2  0  0  0  0
  7 15  1  0  0  0  0
  8  9  1  0  0  0  0
  8 16  1  0  0  0  0
  9 17  1  0  0  0  0
 10 11  1  0  0  0  0
 10 18  1  0  0  0  0
M  END
> <PUBCHEM_COMPOUND_CID>
5372954

> <PUBCHEM_CONFORMER_RMSD>
0.4

> <PUBCHEM_CONFORMER_DIVERSEORDER>
1
7
5
4
8
6
2
3

> <PUBCHEM_MMFF94_PARTIAL_CHARGES>
19
1 -0.65
10 -0.14
11 0.71
12 0.15
13 0.15
14 0.15
15 0.15
16 0.15
17 0.15
18 0.15
19 0.5
2 -0.57
3 0.03
4 -0.15
5 -0.15
6 -0.18
7 -0.15
8 -0.15
9 -0.15

> <PUBCHEM_EFFECTIVE_ROTOR_COUNT>
2

> <PUBCHEM_PHARMACOPHORE_FEATURES>
4
1 1 acceptor
1 2 acceptor
3 1 2 11 anion
6 3 4 5 7 8 9 rings

> <PUBCHEM_HEAVY_ATOM_COUNT>
11

> <PUBCHEM_ATOM_DEF_STEREO_COUNT>
0

> <PUBCHEM_ATOM_UDEF_STEREO_COUNT>
0

> <PUBCHEM_BOND_DEF_STEREO_COUNT>
1

> <PUBCHEM_BOND_UDEF_STEREO_COUNT>
0

> <PUBCHEM_ISOTOPIC_ATOM_COUNT>
0

> <PUBCHEM_COMPONENT_COUNT>
1

> <PUBCHEM_CACTVS_TAUTO_COUNT>
1

> <PUBCHEM_CONFORMER_ID>
0051FC1A00000001

> <PUBCHEM_MMFF94_ENERGY>
32.633

> <PUBCHEM_FEATURE_SELFOVERLAP>
20.353

> <PUBCHEM_SHAPE_FINGERPRINT>
10857977 72 17968105222062869799
11031198 65 18060142024524578228
12696612 119 18114186375410068740
12932764 1 18337962190198842775
13839132 238 18189897517664087861
15219456 202 18338520746268578566
15775835 57 17988922283937594604
16945 1 18260275173951657983
17844478 74 18336275590774451681
19973954 147 18339364037311494141
20201158 50 18340767039902483355
20645464 45 18408886200496019071
20653085 51 15841554106201848057
20871998 184 18337118980955549471
21501502 16 18411131407608952823
23235685 24 18412820287533870912
2748010 2 17970638385337279047
369184 2 16732693952603558167
5084963 1 18188781530578661583
63268167 104 17703789189218138642

> <PUBCHEM_SHAPE_MULTIPOLES>
214.64
4.43
1.45
0.95
1.26
0.11
-0.02
-1.09
-0.69
-0.06
0.09
-0.08
-0.07
0.58

> <PUBCHEM_SHAPE_SELFOVERLAP>
448.307

> <PUBCHEM_SHAPE_VOLUME>
121.3

> <PUBCHEM_COORDINATE_TYPE>
2
5
10

$$$$
