141885
  -OEChem-11012400553D

 38 40  0     0  0  0  0  0  0999 V2000
   -2.9423   -2.0249    0.2369 O   0  0  0  0  0  0  0  0  0  0  0  0
    1.6221    0.1979   -0.4713 N   0  0  0  0  0  0  0  0  0  0  0  0
   -1.0601   -0.6631   -0.0921 N   0  0  0  0  0  0  0  0  0  0  0  0
    1.3063   -1.1711   -0.3206 C   0  0  0  0  0  0  0  0  0  0  0  0
    0.0019   -1.5995   -0.1353 C   0  0  0  0  0  0  0  0  0  0  0  0
    2.7626    0.9528   -0.1428 C   0  0  0  0  0  0  0  0  0  0  0  0
    2.3354   -2.1119   -0.3601 C   0  0  0  0  0  0  0  0  0  0  0  0
   -0.3012   -2.9439    0.0117 C   0  0  0  0  0  0  0  0  0  0  0  0
    2.0462   -3.4686   -0.2136 C   0  0  0  0  0  0  0  0  0  0  0  0
   -2.4298   -0.9042    0.0846 C   0  0  0  0  0  0  0  0  0  0  0  0
    0.7280   -3.8846   -0.0277 C   0  0  0  0  0  0  0  0  0  0  0  0
   -3.2896    0.2682    0.0570 C   0  0  0  0  0  0  0  0  0  0  0  0
    3.1031    2.0754   -0.9010 C   0  0  0  0  0  0  0  0  0  0  0  0
    3.5596    0.5825    0.9430 C   0  0  0  0  0  0  0  0  0  0  0  0
   -4.5018    0.2606    0.7472 C   0  0  0  0  0  0  0  0  0  0  0  0
   -2.9020    1.4008   -0.6591 C   0  0  0  0  0  0  0  0  0  0  0  0
    4.2345    2.8235   -0.5755 C   0  0  0  0  0  0  0  0  0  0  0  0
    4.6909    1.3307    1.2685 C   0  0  0  0  0  0  0  0  0  0  0  0
    5.0283    2.4513    0.5092 C   0  0  0  0  0  0  0  0  0  0  0  0
   -5.3266    1.3852    0.7210 C   0  0  0  0  0  0  0  0  0  0  0  0
   -3.7268    2.5255   -0.6852 C   0  0  0  0  0  0  0  0  0  0  0  0
   -4.9390    2.5176    0.0049 C   0  0  0  0  0  0  0  0  0  0  0  0
    0.9237    0.7215   -0.9903 H   0  0  0  0  0  0  0  0  0  0  0  0
    3.3689   -1.8220   -0.5282 H   0  0  0  0  0  0  0  0  0  0  0  0
   -0.7543    0.3030   -0.1492 H   0  0  0  0  0  0  0  0  0  0  0  0
   -1.2885   -3.3532    0.1588 H   0  0  0  0  0  0  0  0  0  0  0  0
    2.8467   -4.2018   -0.2500 H   0  0  0  0  0  0  0  0  0  0  0  0
    0.5044   -4.9417    0.0848 H   0  0  0  0  0  0  0  0  0  0  0  0
    2.4935    2.3761   -1.7494 H   0  0  0  0  0  0  0  0  0  0  0  0
    3.3091   -0.2711    1.5668 H   0  0  0  0  0  0  0  0  0  0  0  0
   -4.8203   -0.6095    1.3157 H   0  0  0  0  0  0  0  0  0  0  0  0
   -1.9867    1.4410   -1.2423 H   0  0  0  0  0  0  0  0  0  0  0  0
    4.4973    3.6959   -1.1665 H   0  0  0  0  0  0  0  0  0  0  0  0
    5.3063    1.0444    2.1163 H   0  0  0  0  0  0  0  0  0  0  0  0
    5.9086    3.0345    0.7635 H   0  0  0  0  0  0  0  0  0  0  0  0
   -6.2700    1.3796    1.2589 H   0  0  0  0  0  0  0  0  0  0  0  0
   -3.4298    3.4045   -1.2497 H   0  0  0  0  0  0  0  0  0  0  0  0
   -5.5820    3.3927   -0.0168 H   0  0  0  0  0  0  0  0  0  0  0  0
  1 10  2  0  0  0  0
  2  4  1  0  0  0  0
  2  6  1  0  0  0  0
  2 23  1  0  0  0  0
  3  5  1  0  0  0  0
  3 10  1  0  0  0  0
  3 25  1  0  0  0  0
  4  5  1  0  0  0  0
  4  7  2  0  0  0  0
  5  8  2  0  0  0  0
  6 13  2  0  0  0  0
  6 14  1  0  0  0  0
  7  9  1  0  0  0  0
  7 24  1  0  0  0  0
  8 11  1  0  0  0  0
  8 26  1  0  0  0  0
  9 11  2  0  0  0  0
  9 27  1  0  0  0  0
 10 12  1  0  0  0  0
 11 28  1  0  0  0  0
 12 15  2  0  0  0  0
 12 16  1  0  0  0  0
 13 17  1  0  0  0  0
 13 29  1  0  0  0  0
 14 18  2  0  0  0  0
 14 30  1  0  0  0  0
 15 20  1  0  0  0  0
 15 31  1  0  0  0  0
 16 21  2  0  0  0  0
 16 32  1  0  0  0  0
 17 19  2  0  0  0  0
 17 33  1  0  0  0  0
 18 19  1  0  0  0  0
 18 34  1  0  0  0  0
 19 35  1  0  0  0  0
 20 22  2  0  0  0  0
 20 36  1  0  0  0  0
 21 22  1  0  0  0  0
 21 37  1  0  0  0  0
 22 38  1  0  0  0  0
M  END
> <PUBCHEM_COMPOUND_CID>
141885

> <PUBCHEM_CONFORMER_RMSD>
0.8

> <PUBCHEM_CONFORMER_DIVERSEORDER>
1
17
5
14
6
12
13
11
2
18
10
8
19
3
4
16
9
7
15

> <PUBCHEM_MMFF94_PARTIAL_CHARGES>
38
1 -0.57
10 0.54
11 -0.15
12 0.09
13 -0.15
14 -0.15
15 -0.15
16 -0.15
17 -0.15
18 -0.15
19 -0.15
2 -0.6
20 -0.15
21 -0.15
22 -0.15
23 0.4
24 0.15
25 0.37
26 0.15
27 0.15
28 0.15
29 0.15
3 -0.55
30 0.15
31 0.15
32 0.15
33 0.15
34 0.15
35 0.15
36 0.15
37 0.15
38 0.15
4 0.1
5 0.12
6 0.1
7 -0.15
8 -0.15
9 -0.15

> <PUBCHEM_EFFECTIVE_ROTOR_COUNT>
5

> <PUBCHEM_PHARMACOPHORE_FEATURES>
7
1 1 acceptor
1 2 cation
1 2 donor
1 3 donor
6 12 15 16 20 21 22 rings
6 4 5 7 8 9 11 rings
6 6 13 14 17 18 19 rings

> <PUBCHEM_HEAVY_ATOM_COUNT>
22

> <PUBCHEM_ATOM_DEF_STEREO_COUNT>
0

> <PUBCHEM_ATOM_UDEF_STEREO_COUNT>
0

> <PUBCHEM_BOND_DEF_STEREO_COUNT>
0

> <PUBCHEM_BOND_UDEF_STEREO_COUNT>
0

> <PUBCHEM_ISOTOPIC_ATOM_COUNT>
0

> <PUBCHEM_COMPONENT_COUNT>
1

> <PUBCHEM_CACTVS_TAUTO_COUNT>
2

> <PUBCHEM_CONFORMER_ID>
00022A3D00000001

> <PUBCHEM_MMFF94_ENERGY>
87.6335

> <PUBCHEM_FEATURE_SELFOVERLAP>
35.523

> <PUBCHEM_SHAPE_FINGERPRINT>
10411042 1 17474671650463512190
10670039 82 18191317163665079132
11725454 13 17560233773263029590
12107183 9 18335688465420624122
12173636 292 18123182678585896422
12390115 104 18269851954425853368
12422481 6 18042105606055808424
12549972 3 17678765365432693739
12633257 1 16370725980165464656
12769317 202 18272926111670142520
12788726 201 17541387177495658578
12925494 130 17976261228010728681
12930653 34 18337397135927893063
12978246 48 18335422412701795329
13140716 1 18336263453181601059
13590594 115 17619363004237969514
138480 1 17977948981877806814
13878862 14 18045487622408509941
13955234 65 18265903445363075891
13965767 371 18113892763024545700
14020679 6 17821726109871790386
14178342 30 18187933923283965743
14251764 75 18272663320260300401
14466204 15 18340197587791076184
14468879 13 18261120685714049891
14790565 3 18337396070765616708
14848178 96 18342176643874284280
15081414 286 17909553856756597014
15420108 30 18341032069956410942
17810953 82 18410857620729262088
18785283 64 18263642875009595074
19246450 95 17682641135942514784
1979834 28 18188220827141634349
20715895 44 18265605486148973545
21033648 29 18200302364218902656
21304253 13 18051970312769392554
21452121 103 18337951190650116442
21756936 100 18198335355133285004
21859007 373 17025421194417844309
22122407 14 17769111051309835657
22149856 69 18191896508278510417
22950370 63 8934732118655401848
23558518 356 18334293214318234579
23559900 14 18194964037370304827
283562 15 18123181566205879311
3459 39 18129079269283222208
350125 39 18337957779710275124
469060 322 18049461515055399163
474 4 18411136913777872099
5104073 3 18263090933674194931
5252454 2 18201998837455796705
5385378 56 18340774745316392864
57124632 79 18339072692673841896
633830 44 18343581854442344038
6371009 1 18194385921602531485
7064713 232 18336543923325901132
7808743 9 18121784087000504156
7970288 3 8718561501179651728
79837 15 18190179173077463154
9981440 41 18336827588719816611

> <PUBCHEM_SHAPE_MULTIPOLES>
436.92
11.35
4.67
0.91
5.27
3.12
0.1
-12.91
2.36
-2.74
-0.55
-0.38
-0.38
0.53

> <PUBCHEM_SHAPE_SELFOVERLAP>
953.01

> <PUBCHEM_SHAPE_VOLUME>
235

> <PUBCHEM_COORDINATE_TYPE>
2
5
10

$$$$
