141571
  -OEChem-11012400413D

 37 41  0     0  0  0  0  0  0999 V2000
   -0.0063    1.0562   -1.0008 C   0  0  0  0  0  0  0  0  0  0  0  0
   -0.0062    0.3388    1.4151 C   0  0  0  0  0  0  0  0  0  0  0  0
   -0.0061   -1.3948   -0.4142 C   0  0  0  0  0  0  0  0  0  0  0  0
    0.5241    1.3958    0.4145 C   0  0  0  0  0  0  0  0  0  0  0  0
    0.5240   -0.3389   -1.4160 C   0  0  0  0  0  0  0  0  0  0  0  0
    0.5241   -1.0568    1.0015 C   0  0  0  0  0  0  0  0  0  0  0  0
   -2.0788    0.0000    0.0000 C   0  0  0  0  0  0  0  0  0  0  0  0
    2.5810    0.0000    0.0000 C   0  0  0  0  0  0  0  0  0  0  0  0
   -1.5430    1.0506   -0.9956 C   0  0  0  0  0  0  0  0  0  0  0  0
   -1.5429    0.3370    1.4076 C   0  0  0  0  0  0  0  0  0  0  0  0
   -1.5428   -1.3875   -0.4120 C   0  0  0  0  0  0  0  0  0  0  0  0
    2.0610    1.3847    0.4113 C   0  0  0  0  0  0  0  0  0  0  0  0
    2.0609   -0.3362   -1.4050 C   0  0  0  0  0  0  0  0  0  0  0  0
    2.0610   -1.0486    0.9936 C   0  0  0  0  0  0  0  0  0  0  0  0
   -3.6100   -0.0002    0.0000 C   0  0  0  0  0  0  0  0  0  0  0  0
    0.3442    1.8109   -1.7160 H   0  0  0  0  0  0  0  0  0  0  0  0
    0.3443    0.5808    2.4263 H   0  0  0  0  0  0  0  0  0  0  0  0
    0.3443   -2.3916   -0.7102 H   0  0  0  0  0  0  0  0  0  0  0  0
    0.1749    2.3929    0.7107 H   0  0  0  0  0  0  0  0  0  0  0  0
    0.1747   -0.5810   -2.4275 H   0  0  0  0  0  0  0  0  0  0  0  0
    0.1748   -1.8118    1.7169 H   0  0  0  0  0  0  0  0  0  0  0  0
    3.6766    0.0000   -0.0001 H   0  0  0  0  0  0  0  0  0  0  0  0
   -1.9126    2.0493   -0.7293 H   0  0  0  0  0  0  0  0  0  0  0  0
   -1.9125    0.8383   -2.0071 H   0  0  0  0  0  0  0  0  0  0  0  0
   -1.9125   -0.3930    2.1394 H   0  0  0  0  0  0  0  0  0  0  0  0
   -1.9125    1.3191    1.7295 H   0  0  0  0  0  0  0  0  0  0  0  0
   -1.9124   -1.6562   -1.4101 H   0  0  0  0  0  0  0  0  0  0  0  0
   -1.9124   -2.1574    0.2776 H   0  0  0  0  0  0  0  0  0  0  0  0
    2.4381    1.6457    1.4078 H   0  0  0  0  0  0  0  0  0  0  0  0
    2.4382    2.1473   -0.2812 H   0  0  0  0  0  0  0  0  0  0  0  0
    2.4380    0.3964   -2.1292 H   0  0  0  0  0  0  0  0  0  0  0  0
    2.4381   -1.3171   -1.7192 H   0  0  0  0  0  0  0  0  0  0  0  0
    2.4381   -2.0421    0.7213 H   0  0  0  0  0  0  0  0  0  0  0  0
    2.4382   -0.8303    2.0002 H   0  0  0  0  0  0  0  0  0  0  0  0
   -4.0052   -0.2379   -0.9938 H   0  0  0  0  0  0  0  0  0  0  0  0
   -4.0052   -0.7419    0.7028 H   0  0  0  0  0  0  0  0  0  0  0  0
   -4.0053    0.9793    0.2910 H   0  0  0  0  0  0  0  0  0  0  0  0
  1  4  1  0  0  0  0
  1  5  1  0  0  0  0
  1  9  1  0  0  0  0
  1 16  1  0  0  0  0
  2  4  1  0  0  0  0
  2  6  1  0  0  0  0
  2 10  1  0  0  0  0
  2 17  1  0  0  0  0
  3  5  1  0  0  0  0
  3  6  1  0  0  0  0
  3 11  1  0  0  0  0
  3 18  1  0  0  0  0
  4 12  1  0  0  0  0
  4 19  1  0  0  0  0
  5 13  1  0  0  0  0
  5 20  1  0  0  0  0
  6 14  1  0  0  0  0
  6 21  1  0  0  0  0
  7  9  1  0  0  0  0
  7 10  1  0  0  0  0
  7 11  1  0  0  0  0
  7 15  1  0  0  0  0
  8 12  1  0  0  0  0
  8 13  1  0  0  0  0
  8 14  1  0  0  0  0
  8 22  1  0  0  0  0
  9 23  1  0  0  0  0
  9 24  1  0  0  0  0
 10 25  1  0  0  0  0
 10 26  1  0  0  0  0
 11 27  1  0  0  0  0
 11 28  1  0  0  0  0
 12 29  1  0  0  0  0
 12 30  1  0  0  0  0
 13 31  1  0  0  0  0
 13 32  1  0  0  0  0
 14 33  1  0  0  0  0
 14 34  1  0  0  0  0
 15 35  1  0  0  0  0
 15 36  1  0  0  0  0
 15 37  1  0  0  0  0
M  END
> <PUBCHEM_COMPOUND_CID>
141571

> <PUBCHEM_CONFORMER_RMSD>
0.6

> <PUBCHEM_CONFORMER_DIVERSEORDER>
1

> <PUBCHEM_MMFF94_PARTIAL_CHARGES>
0

> <PUBCHEM_EFFECTIVE_ROTOR_COUNT>
1.2

> <PUBCHEM_PHARMACOPHORE_FEATURES>
7
6 1 2 3 4 5 6 rings
6 1 2 4 7 9 10 rings
6 1 3 5 7 9 11 rings
6 1 4 5 8 12 13 rings
6 2 3 6 7 10 11 rings
6 2 4 6 8 12 14 rings
6 3 5 6 8 13 14 rings

> <PUBCHEM_HEAVY_ATOM_COUNT>
15

> <PUBCHEM_ATOM_DEF_STEREO_COUNT>
0

> <PUBCHEM_ATOM_UDEF_STEREO_COUNT>
0

> <PUBCHEM_BOND_DEF_STEREO_COUNT>
0

> <PUBCHEM_BOND_UDEF_STEREO_COUNT>
0

> <PUBCHEM_ISOTOPIC_ATOM_COUNT>
0

> <PUBCHEM_COMPONENT_COUNT>
1

> <PUBCHEM_CACTVS_TAUTO_COUNT>
1

> <PUBCHEM_CONFORMER_ID>
0002290300000001

> <PUBCHEM_MMFF94_ENERGY>
45.1978

> <PUBCHEM_FEATURE_SELFOVERLAP>
60.955

> <PUBCHEM_SHAPE_FINGERPRINT>
10863032 1 18057884834400342188
10948715 1 18199464557258126368
12423570 1 14350074301095519370
12491281 212 17773902906732885184
13024252 1 17022620875376263298
144361 1 16270823142405617650
14817 1 11091313125773806722
15557651 10 18190206562014720372
15775835 57 14620790513583949818
16945 1 17489596678937867656
23419403 2 15901146609866787493
23559900 14 18334585672596180180
241688 4 17270626571934515010
2748010 2 17844531221517042310
369184 2 17989202646691744850
5084963 1 16988574450203077392
528886 8 17489872665120492860
54276843 12 17489586727498727308

> <PUBCHEM_SHAPE_MULTIPOLES>
308.69
3.6
1.46
1.46
1.54
0
0
0
0
-0.22
0
-0.22
0
0

> <PUBCHEM_SHAPE_SELFOVERLAP>
704.175

> <PUBCHEM_SHAPE_VOLUME>
147.7

> <PUBCHEM_COORDINATE_TYPE>
2
5
10

$$$$
