144723
  -OEChem-11012400423D

 25 26  0     1  0  0  0  0  0999 V2000
    0.8165   -1.4066   -1.7052 F   0  0  0  0  0  0  0  0  0  0  0  0
    0.0279    1.0722   -1.9639 F   0  0  0  0  0  0  0  0  0  0  0  0
    1.7484   -2.4106    0.3912 F   0  0  0  0  0  0  0  0  0  0  0  0
    0.5484   -1.2417    1.7608 F   0  0  0  0  0  0  0  0  0  0  0  0
    2.5134    0.3980   -1.6524 F   0  0  0  0  0  0  0  0  0  0  0  0
    2.2856    2.1110   -0.3342 F   0  0  0  0  0  0  0  0  0  0  0  0
   -1.7203   -1.1707   -1.7872 F   0  0  0  0  0  0  0  0  0  0  0  0
   -1.2576   -2.6331   -0.2445 F   0  0  0  0  0  0  0  0  0  0  0  0
   -0.4359    2.7678    0.0267 F   0  0  0  0  0  0  0  0  0  0  0  0
   -0.1051    1.2627    1.5533 F   0  0  0  0  0  0  0  0  0  0  0  0
    3.4989   -0.5440    0.5240 F   0  0  0  0  0  0  0  0  0  0  0  0
    2.1506    0.5756    1.7969 F   0  0  0  0  0  0  0  0  0  0  0  0
   -3.3697   -0.9027    0.2622 F   0  0  0  0  0  0  0  0  0  0  0  0
   -1.7500   -0.7895    1.7003 F   0  0  0  0  0  0  0  0  0  0  0  0
   -2.4373    1.2732   -1.0661 F   0  0  0  0  0  0  0  0  0  0  0  0
   -2.7214    1.6517    1.0576 F   0  0  0  0  0  0  0  0  0  0  0  0
    0.2493   -0.8456   -0.5876 C   0  0  2  0  0  0  0  0  0  0  0  0
    0.3856    0.6817   -0.7115 C   0  0  1  0  0  0  0  0  0  0  0  0
    1.1906   -1.1955    0.5733 C   0  0  0  0  0  0  0  0  0  0  0  0
    1.8874    0.8470   -0.5307 C   0  0  0  0  0  0  0  0  0  0  0  0
   -1.1961   -1.3132   -0.5340 C   0  0  0  0  0  0  0  0  0  0  0  0
   -0.5125    1.4367    0.2734 C   0  0  0  0  0  0  0  0  0  0  0  0
    2.2385   -0.0828    0.6158 C   0  0  0  0  0  0  0  0  0  0  0  0
   -2.0785   -0.5181    0.4145 C   0  0  0  0  0  0  0  0  0  0  0  0
   -1.9565    0.9763    0.1672 C   0  0  0  0  0  0  0  0  0  0  0  0
  1 17  1  0  0  0  0
  2 18  1  0  0  0  0
  3 19  1  0  0  0  0
  4 19  1  0  0  0  0
  5 20  1  0  0  0  0
  6 20  1  0  0  0  0
  7 21  1  0  0  0  0
  8 21  1  0  0  0  0
  9 22  1  0  0  0  0
 10 22  1  0  0  0  0
 11 23  1  0  0  0  0
 12 23  1  0  0  0  0
 13 24  1  0  0  0  0
 14 24  1  0  0  0  0
 15 25  1  0  0  0  0
 16 25  1  0  0  0  0
 17 18  1  0  0  0  0
 17 19  1  0  0  0  0
 17 21  1  0  0  0  0
 18 20  1  0  0  0  0
 18 22  1  0  0  0  0
 19 23  1  0  0  0  0
 20 23  1  0  0  0  0
 21 24  1  0  0  0  0
 22 25  1  0  0  0  0
 24 25  1  0  0  0  0
M  END
> <PUBCHEM_COMPOUND_CID>
144723

> <PUBCHEM_CONFORMER_RMSD>
0.6

> <PUBCHEM_CONFORMER_DIVERSEORDER>
1
4
2
3

> <PUBCHEM_MMFF94_PARTIAL_CHARGES>
25
1 -0.34
10 -0.34
11 -0.34
12 -0.34
13 -0.34
14 -0.34
15 -0.34
16 -0.34
17 0.34
18 0.34
19 0.68
2 -0.34
20 0.68
21 0.68
22 0.68
23 0.68
24 0.68
25 0.68
3 -0.34
4 -0.34
5 -0.34
6 -0.34
7 -0.34
8 -0.34
9 -0.34

> <PUBCHEM_EFFECTIVE_ROTOR_COUNT>
1.4

> <PUBCHEM_PHARMACOPHORE_FEATURES>
2
5 17 18 19 20 23 rings
6 17 18 21 22 24 25 rings

> <PUBCHEM_HEAVY_ATOM_COUNT>
25

> <PUBCHEM_ATOM_DEF_STEREO_COUNT>
0

> <PUBCHEM_ATOM_UDEF_STEREO_COUNT>
2

> <PUBCHEM_BOND_DEF_STEREO_COUNT>
0

> <PUBCHEM_BOND_UDEF_STEREO_COUNT>
0

> <PUBCHEM_ISOTOPIC_ATOM_COUNT>
0

> <PUBCHEM_COMPONENT_COUNT>
1

> <PUBCHEM_CACTVS_TAUTO_COUNT>
1

> <PUBCHEM_CONFORMER_ID>
0002355300000001

> <PUBCHEM_MMFF94_ENERGY>
61.0053

> <PUBCHEM_FEATURE_SELFOVERLAP>
10.3

> <PUBCHEM_SHAPE_FINGERPRINT>
10863032 1 17968663829530002937
10948715 1 18130220433055304993
11578080 2 17825919736639013309
12011746 2 18122619453490603110
12423570 1 11415791204742783407
12491281 212 18339659896218120688
12808571 1 18335433369341858046
13140716 1 18411138060682132216
13172582 1 18201720712178913347
13538477 17 18337111288405086055
141345 1 13013487372060877782
14223421 5 18259992590894496979
144361 1 18196681542945983814
14817 1 10473083782035823349
15881359 60 17754707495406942477
16945 1 18410007779655108510
19868273 325 18342741857259483796
20511035 2 18197213637928262099
2334 1 18266176330230815428
23419403 2 15960239784987039190
23559900 14 18202568363758281572
2748010 2 18269850726460663879
296302 2 17531809043483941428

> <PUBCHEM_SHAPE_MULTIPOLES>
398.11
3.74
2.27
1.57
0.08
0.03
-0.1
0.08
0.44
-0.27
-0.03
0.15
-0.06
-0.34

> <PUBCHEM_SHAPE_SELFOVERLAP>
920.973

> <PUBCHEM_SHAPE_VOLUME>
201

> <PUBCHEM_COORDINATE_TYPE>
2
5
10

$$$$
