15142
  -OEChem-11012400513D

 25 27  0     0  0  0  0  0  0999 V2000
   -0.0001    1.4148    0.0004 N   0  0  0  0  0  0  0  0  0  0  0  0
   -0.7154   -0.6972    0.0003 C   0  0  0  0  0  0  0  0  0  0  0  0
    0.7157   -0.6971    0.0004 C   0  0  0  0  0  0  0  0  0  0  0  0
   -1.1319    0.6342    0.0001 C   0  0  0  0  0  0  0  0  0  0  0  0
    1.1320    0.6344    0.0003 C   0  0  0  0  0  0  0  0  0  0  0  0
   -1.6967   -1.7107    0.0002 C   0  0  0  0  0  0  0  0  0  0  0  0
    1.6970   -1.7106    0.0003 C   0  0  0  0  0  0  0  0  0  0  0  0
   -2.4814    1.0053   -0.0002 C   0  0  0  0  0  0  0  0  0  0  0  0
    2.4814    1.0056    0.0000 C   0  0  0  0  0  0  0  0  0  0  0  0
   -0.0008    2.8645    0.0000 C   0  0  0  0  0  0  0  0  0  0  0  0
   -3.0503   -1.3553   -0.0003 C   0  0  0  0  0  0  0  0  0  0  0  0
    3.0505   -1.3550   -0.0003 C   0  0  0  0  0  0  0  0  0  0  0  0
   -3.4346   -0.0166   -0.0005 C   0  0  0  0  0  0  0  0  0  0  0  0
    3.4347   -0.0162   -0.0007 C   0  0  0  0  0  0  0  0  0  0  0  0
   -1.4128   -2.7593    0.0003 H   0  0  0  0  0  0  0  0  0  0  0  0
    1.4132   -2.7593    0.0005 H   0  0  0  0  0  0  0  0  0  0  0  0
   -2.7937    2.0440    0.0046 H   0  0  0  0  0  0  0  0  0  0  0  0
    2.7937    2.0442    0.0048 H   0  0  0  0  0  0  0  0  0  0  0  0
   -0.0074    3.2023    1.0392 H   0  0  0  0  0  0  0  0  0  0  0  0
    0.8865    3.2343   -0.5185 H   0  0  0  0  0  0  0  0  0  0  0  0
   -0.8826    3.2327   -0.5293 H   0  0  0  0  0  0  0  0  0  0  0  0
   -3.8086   -2.1337   -0.0001 H   0  0  0  0  0  0  0  0  0  0  0  0
    3.8090   -2.1333   -0.0003 H   0  0  0  0  0  0  0  0  0  0  0  0
   -4.4913    0.2383    0.0005 H   0  0  0  0  0  0  0  0  0  0  0  0
    4.4913    0.2388    0.0000 H   0  0  0  0  0  0  0  0  0  0  0  0
  1  4  1  0  0  0  0
  1  5  1  0  0  0  0
  1 10  1  0  0  0  0
  2  3  1  0  0  0  0
  2  4  1  0  0  0  0
  2  6  2  0  0  0  0
  3  5  1  0  0  0  0
  3  7  2  0  0  0  0
  4  8  2  0  0  0  0
  5  9  2  0  0  0  0
  6 11  1  0  0  0  0
  6 15  1  0  0  0  0
  7 12  1  0  0  0  0
  7 16  1  0  0  0  0
  8 13  1  0  0  0  0
  8 17  1  0  0  0  0
  9 14  1  0  0  0  0
  9 18  1  0  0  0  0
 10 19  1  0  0  0  0
 10 20  1  0  0  0  0
 10 21  1  0  0  0  0
 11 13  2  0  0  0  0
 11 22  1  0  0  0  0
 12 14  2  0  0  0  0
 12 23  1  0  0  0  0
 13 24  1  0  0  0  0
 14 25  1  0  0  0  0
M  END
> <PUBCHEM_COMPOUND_CID>
15142

> <PUBCHEM_CONFORMER_RMSD>
0.4

> <PUBCHEM_CONFORMER_DIVERSEORDER>
1

> <PUBCHEM_MMFF94_PARTIAL_CHARGES>
20
1 0.05
10 0.26
11 -0.15
12 -0.15
13 -0.15
14 -0.15
15 0.15
16 0.15
17 0.15
18 0.15
22 0.15
23 0.15
24 0.15
25 0.15
4 -0.15
5 -0.15
6 -0.15
7 -0.15
8 -0.15
9 -0.15

> <PUBCHEM_EFFECTIVE_ROTOR_COUNT>
0

> <PUBCHEM_PHARMACOPHORE_FEATURES>
4
1 1 cation
5 1 2 3 4 5 rings
6 2 4 6 8 11 13 rings
6 3 5 7 9 12 14 rings

> <PUBCHEM_HEAVY_ATOM_COUNT>
14

> <PUBCHEM_ATOM_DEF_STEREO_COUNT>
0

> <PUBCHEM_ATOM_UDEF_STEREO_COUNT>
0

> <PUBCHEM_BOND_DEF_STEREO_COUNT>
0

> <PUBCHEM_BOND_UDEF_STEREO_COUNT>
0

> <PUBCHEM_ISOTOPIC_ATOM_COUNT>
0

> <PUBCHEM_COMPONENT_COUNT>
1

> <PUBCHEM_CACTVS_TAUTO_COUNT>
1

> <PUBCHEM_CONFORMER_ID>
00003B2600000001

> <PUBCHEM_MMFF94_ENERGY>
33.2861

> <PUBCHEM_FEATURE_SELFOVERLAP>
20.477

> <PUBCHEM_SHAPE_FINGERPRINT>
10608611 8 18410569591400219136
10967382 1 18266458891575503238
11132069 177 18411974763170972794
11471102 20 18410288151194476319
11769659 78 18410569591400219142
11806522 49 18266735977380811927
12032990 46 18410580586516470915
12382932 28 18412261722673272890
13140716 1 18410573942207306730
14144814 61 18411419514025536259
14325111 11 18410856563934776352
15196674 1 18410575088958215118
15375462 189 18187085018428313139
15442244 35 18122343480441189314
15536298 74 18343584057939732394
16945 1 18410855460128291716
17844478 74 17967258580945450397
200 152 18060127774313888999
20201158 50 18409165515077955459
20510252 161 18199746934188531992
20871998 184 18201717301911642079
21267235 1 18410583880756594823
21501502 16 18410857650572084234
2334 1 18410575119028293410
23402539 116 18271514313186175295
23463225 33 18409730655633262462
23552423 10 18261677063987822942
23559900 14 18268986489273994482
2748010 2 18411697694661993646
3071541 158 18260827150158409581
3312278 4 18409452474822595370
335352 9 18050286968460395351
34934 24 18410562994330192650
5104073 3 18410855460144181930
528886 8 18411695495754867122
53812653 166 18271521013298337728
63268167 104 18410295834748518153
7364860 26 18125158487679603689
81228 2 18265343797938493272
8809292 202 18261116278682523514

> <PUBCHEM_SHAPE_MULTIPOLES>
283.13
5.25
2.29
0.61
0
1.01
0
-1.5
0
0
0
0
-0.01
0

> <PUBCHEM_SHAPE_SELFOVERLAP>
638.216

> <PUBCHEM_SHAPE_VOLUME>
152.6

> <PUBCHEM_COORDINATE_TYPE>
2
5
10

$$$$
