3035370
  -OEChem-11012401243D

 30 30  0     0  0  0  0  0  0999 V2000
   -3.9326    0.9724    0.4164 O   0  5  0  0  0  0  0  0  0  0  0  0
    4.2801   -0.9733    0.7577 O   0  5  0  0  0  0  0  0  0  0  0  0
    4.3035    0.0200   -1.1998 O   0  0  0  0  0  0  0  0  0  0  0  0
   -2.7420    0.5420    0.2559 N   0  3  0  0  0  0  0  0  0  0  0  0
    3.7125   -0.3088   -0.1429 N   0  3  0  0  0  0  0  0  0  0  0  0
   -2.5735   -0.7821   -0.3596 C   0  0  0  0  0  0  0  0  0  0  0  0
   -3.9694   -1.3140   -0.6578 C   0  0  0  0  0  0  0  0  0  0  0  0
   -1.7580   -0.5637   -1.6267 C   0  0  0  0  0  0  0  0  0  0  0  0
   -1.8390   -1.6442    0.6589 C   0  0  0  0  0  0  0  0  0  0  0  0
   -1.6831    1.2521    0.5853 C   0  0  0  0  0  0  0  0  0  0  0  0
   -0.2833    0.8476    0.3966 C   0  0  0  0  0  0  0  0  0  0  0  0
    0.3539    0.1126    1.3858 C   0  0  0  0  0  0  0  0  0  0  0  0
    0.3797    1.2065   -0.7683 C   0  0  0  0  0  0  0  0  0  0  0  0
    1.6826   -0.2717    1.2064 C   0  0  0  0  0  0  0  0  0  0  0  0
    1.7085    0.8220   -0.9477 C   0  0  0  0  0  0  0  0  0  0  0  0
    2.3600    0.0828    0.0396 C   0  0  0  0  0  0  0  0  0  0  0  0
   -4.5180   -0.6729   -1.3587 H   0  0  0  0  0  0  0  0  0  0  0  0
   -3.9091   -2.3060   -1.1219 H   0  0  0  0  0  0  0  0  0  0  0  0
   -4.5742   -1.4285    0.2501 H   0  0  0  0  0  0  0  0  0  0  0  0
   -0.7075   -0.8476   -1.5467 H   0  0  0  0  0  0  0  0  0  0  0  0
   -1.8818    0.4304   -2.0691 H   0  0  0  0  0  0  0  0  0  0  0  0
   -2.1241   -1.2540   -2.4007 H   0  0  0  0  0  0  0  0  0  0  0  0
   -1.9806   -1.3216    1.6958 H   0  0  0  0  0  0  0  0  0  0  0  0
   -2.2543   -2.6618    0.6268 H   0  0  0  0  0  0  0  0  0  0  0  0
   -0.7858   -1.8153    0.4306 H   0  0  0  0  0  0  0  0  0  0  0  0
   -1.8782    2.2437    1.0264 H   0  0  0  0  0  0  0  0  0  0  0  0
   -0.1462   -0.1367    2.3174 H   0  0  0  0  0  0  0  0  0  0  0  0
   -0.1058    1.8074   -1.5323 H   0  0  0  0  0  0  0  0  0  0  0  0
    2.1607   -0.8395    2.0006 H   0  0  0  0  0  0  0  0  0  0  0  0
    2.2063    1.1214   -1.8665 H   0  0  0  0  0  0  0  0  0  0  0  0
  1  4  1  0  0  0  0
  2  5  1  0  0  0  0
  3  5  2  0  0  0  0
  4  6  1  0  0  0  0
  4 10  2  0  0  0  0
  5 16  1  0  0  0  0
  6  7  1  0  0  0  0
  6  8  1  0  0  0  0
  6  9  1  0  0  0  0
  7 17  1  0  0  0  0
  7 18  1  0  0  0  0
  7 19  1  0  0  0  0
  8 20  1  0  0  0  0
  8 21  1  0  0  0  0
  8 22  1  0  0  0  0
  9 23  1  0  0  0  0
  9 24  1  0  0  0  0
  9 25  1  0  0  0  0
 10 11  1  0  0  0  0
 10 26  1  0  0  0  0
 11 12  2  0  0  0  0
 11 13  1  0  0  0  0
 12 14  1  0  0  0  0
 12 27  1  0  0  0  0
 13 15  2  0  0  0  0
 13 28  1  0  0  0  0
 14 16  2  0  0  0  0
 14 29  1  0  0  0  0
 15 16  1  0  0  0  0
 15 30  1  0  0  0  0
M  CHG  4   1  -1   2  -1   4   1   5   1
M  END
> <PUBCHEM_COMPOUND_CID>
3035370

> <PUBCHEM_CONFORMER_RMSD>
0.6

> <PUBCHEM_CONFORMER_DIVERSEORDER>
1

> <PUBCHEM_MMFF94_PARTIAL_CHARGES>
18
1 -0.63
10 -0.14
11 0.09
12 -0.15
13 -0.15
14 -0.15
15 -0.15
16 0.13
2 -0.52
26 0.06
27 0.15
28 0.15
29 0.15
3 -0.52
30 0.15
4 0.53
5 0.91
6 0.1

> <PUBCHEM_EFFECTIVE_ROTOR_COUNT>
3

> <PUBCHEM_PHARMACOPHORE_FEATURES>
6
1 1 anion
1 2 acceptor
1 2 anion
1 3 acceptor
4 6 7 8 9 hydrophobe
6 11 12 13 14 15 16 rings

> <PUBCHEM_HEAVY_ATOM_COUNT>
16

> <PUBCHEM_ATOM_DEF_STEREO_COUNT>
0

> <PUBCHEM_ATOM_UDEF_STEREO_COUNT>
0

> <PUBCHEM_BOND_DEF_STEREO_COUNT>
1

> <PUBCHEM_BOND_UDEF_STEREO_COUNT>
0

> <PUBCHEM_ISOTOPIC_ATOM_COUNT>
0

> <PUBCHEM_COMPONENT_COUNT>
1

> <PUBCHEM_CACTVS_TAUTO_COUNT>
1

> <PUBCHEM_CONFORMER_ID>
002E50EA00000001

> <PUBCHEM_MMFF94_ENERGY>
82.1874

> <PUBCHEM_FEATURE_SELFOVERLAP>
30.528

> <PUBCHEM_SHAPE_FINGERPRINT>
10465860 250 17489584541534447320
11031198 65 15502367920180607859
11132069 177 15913321403648152676
11401426 45 17385437744022196072
11471102 22 14692576532671456384
11578080 2 18118089602923951516
11769659 78 18342452647352478714
12251169 10 15123508154910248446
124424 183 16845290523098746177
12500047 106 17988076682466154217
12932764 1 16805593802455079497
13288520 33 18343585114507026990
13296908 3 18060412560077252057
13581323 91 17775566459172368060
13760787 5 17313105237516963256
13764800 53 12396570807189900565
14115302 16 18262799687182817335
14289901 80 17632572769257904168
14577589 140 17846780702280431479
14943859 89 12468354665381420724
14993402 34 18113332020568055207
15219456 202 16917057897527440912
15375358 24 16271925973964135200
15653759 3 17489866046396528745
15775835 57 16877939455781248267
16945 1 17023173955210222801
17804303 29 17775567558968812829
18175812 5 17060333033039724584
18186145 218 16515406274547652472
19422 9 18335986458039818317
200 152 17749103366587321176
20201158 50 16128659634713737077
20279233 1 16487257659831830981
20281407 28 17418379090651596046
20645476 183 18259702298735127419
20645477 70 16588028962039003858
20671657 53 18335133224042364372
20871999 31 18408317783381591549
22485316 2 17775281655933671458
22854114 59 13901904510008158458
232386 152 18272934959260288197
23402539 116 18187078417575021708
23402655 69 17167857552126959780
23559900 14 17917711267346755832
23598291 2 18335148621690278197
25 1 15791723079563606425
2748010 2 16517679076672605760
4028521 119 13840250494934614879
465052 167 18055360399539651119
568465 68 15625944295432088318
7364860 26 18055630865607710304
74978 22 18188208822538599977
77492 1 18260832583228572817
81228 2 16413821226567713057

> <PUBCHEM_SHAPE_MULTIPOLES>
301.7
7.19
1.37
1.31
3.09
0.06
0.13
2.13
1
-0.87
-0.08
0.25
0.08
-0.66

> <PUBCHEM_SHAPE_SELFOVERLAP>
631.778

> <PUBCHEM_SHAPE_VOLUME>
172.3

> <PUBCHEM_COORDINATE_TYPE>
2
5
10

$$$$
