736230
  -OEChem-11012401053D

 27 28  0     0  0  0  0  0  0999 V2000
    5.9982    0.6350    0.0384 Cl  0  0  0  0  0  0  0  0  0  0  0  0
   -0.7245   -2.7698   -0.1950 N   0  0  0  0  0  0  0  0  0  0  0  0
    1.5677   -0.0868   -0.0032 C   0  0  0  0  0  0  0  0  0  0  0  0
   -2.2435    0.5599    0.0416 C   0  0  0  0  0  0  0  0  0  0  0  0
    0.1111   -0.3249   -0.0168 C   0  0  0  0  0  0  0  0  0  0  0  0
   -0.7943    0.6839    0.0538 C   0  0  0  0  0  0  0  0  0  0  0  0
    2.2315    0.1110   -1.2016 C   0  0  0  0  0  0  0  0  0  0  0  0
    2.2382   -0.0675    1.2078 C   0  0  0  0  0  0  0  0  0  0  0  0
   -2.9364    0.5973   -1.1685 C   0  0  0  0  0  0  0  0  0  0  0  0
   -2.9403    0.4031    1.2396 C   0  0  0  0  0  0  0  0  0  0  0  0
    3.6083    0.3352   -1.1887 C   0  0  0  0  0  0  0  0  0  0  0  0
    3.6149    0.1568    1.2207 C   0  0  0  0  0  0  0  0  0  0  0  0
    4.2999    0.3581    0.0224 C   0  0  0  0  0  0  0  0  0  0  0  0
   -4.3262    0.4779   -1.1805 C   0  0  0  0  0  0  0  0  0  0  0  0
   -4.3301    0.2835    1.2276 C   0  0  0  0  0  0  0  0  0  0  0  0
   -5.0229    0.3209    0.0175 C   0  0  0  0  0  0  0  0  0  0  0  0
   -0.3517   -1.6737   -0.1150 C   0  0  0  0  0  0  0  0  0  0  0  0
   -0.4381    1.7106    0.1258 H   0  0  0  0  0  0  0  0  0  0  0  0
    1.7041    0.0955   -2.1517 H   0  0  0  0  0  0  0  0  0  0  0  0
    1.7158   -0.2231    2.1480 H   0  0  0  0  0  0  0  0  0  0  0  0
   -2.4076    0.7194   -2.1108 H   0  0  0  0  0  0  0  0  0  0  0  0
   -2.4148    0.3723    2.1911 H   0  0  0  0  0  0  0  0  0  0  0  0
    4.1290    0.4906   -2.1302 H   0  0  0  0  0  0  0  0  0  0  0  0
    4.1408    0.1721    2.1719 H   0  0  0  0  0  0  0  0  0  0  0  0
   -4.8657    0.5069   -2.1226 H   0  0  0  0  0  0  0  0  0  0  0  0
   -4.8728    0.1613    2.1604 H   0  0  0  0  0  0  0  0  0  0  0  0
   -6.1049    0.2278    0.0082 H   0  0  0  0  0  0  0  0  0  0  0  0
  1 13  1  0  0  0  0
  2 17  3  0  0  0  0
  3  5  1  0  0  0  0
  3  7  2  0  0  0  0
  3  8  1  0  0  0  0
  4  6  1  0  0  0  0
  4  9  2  0  0  0  0
  4 10  1  0  0  0  0
  5  6  2  0  0  0  0
  5 17  1  0  0  0  0
  6 18  1  0  0  0  0
  7 11  1  0  0  0  0
  7 19  1  0  0  0  0
  8 12  2  0  0  0  0
  8 20  1  0  0  0  0
  9 14  1  0  0  0  0
  9 21  1  0  0  0  0
 10 15  2  0  0  0  0
 10 22  1  0  0  0  0
 11 13  2  0  0  0  0
 11 23  1  0  0  0  0
 12 13  1  0  0  0  0
 12 24  1  0  0  0  0
 14 16  2  0  0  0  0
 14 25  1  0  0  0  0
 15 16  1  0  0  0  0
 15 26  1  0  0  0  0
 16 27  1  0  0  0  0
M  END
> <PUBCHEM_COMPOUND_CID>
736230

> <PUBCHEM_CONFORMER_RMSD>
0.6

> <PUBCHEM_CONFORMER_DIVERSEORDER>
1
3
4
2

> <PUBCHEM_MMFF94_PARTIAL_CHARGES>
27
1 -0.18
10 -0.15
11 -0.15
12 -0.15
13 0.18
14 -0.15
15 -0.15
16 -0.15
17 0.49
18 0.15
19 0.15
2 -0.56
20 0.15
21 0.15
22 0.15
23 0.15
24 0.15
25 0.15
26 0.15
27 0.15
3 0.03
4 0.03
5 0.04
6 -0.18
7 -0.15
8 -0.15
9 -0.15

> <PUBCHEM_EFFECTIVE_ROTOR_COUNT>
2

> <PUBCHEM_PHARMACOPHORE_FEATURES>
3
1 2 acceptor
6 3 7 8 11 12 13 rings
6 4 9 10 14 15 16 rings

> <PUBCHEM_HEAVY_ATOM_COUNT>
17

> <PUBCHEM_ATOM_DEF_STEREO_COUNT>
0

> <PUBCHEM_ATOM_UDEF_STEREO_COUNT>
0

> <PUBCHEM_BOND_DEF_STEREO_COUNT>
1

> <PUBCHEM_BOND_UDEF_STEREO_COUNT>
0

> <PUBCHEM_ISOTOPIC_ATOM_COUNT>
0

> <PUBCHEM_COMPONENT_COUNT>
1

> <PUBCHEM_CACTVS_TAUTO_COUNT>
1

> <PUBCHEM_CONFORMER_ID>
000B3BE600000001

> <PUBCHEM_MMFF94_ENERGY>
49.9206

> <PUBCHEM_FEATURE_SELFOVERLAP>
15.223

> <PUBCHEM_SHAPE_FINGERPRINT>
11287383 113 15985099734322141000
11543360 7 15554441912000935539
12107183 9 15361601698436742224
12119455 92 18113898251855450255
12236239 1 17748825228800244944
12251169 10 15936413350949198354
12403259 118 17240479225610630349
12507557 5 17312824879026554309
12507560 40 17313380080869081010
13052359 8 18335984280703207763
13167823 11 15864072078679822665
13533116 47 17988925510465992166
13583140 156 17385442154526341265
13675066 3 17530962497409573376
14341114 176 16370726993756602072
15048467 5 14620800383883039521
15309172 13 18408606950602420651
15375462 478 16877662348749101511
17834072 33 15502383339361100724
18186145 218 17774997973101145169
187816 3 17989207048864463896
19489759 90 16153425052103808741
200 152 16877661270860243217
204376 136 18409729564759256395
20645477 56 18408320016938548268
20645477 70 16588297238117016210
21033648 29 18263061302099571040
21033650 10 16771864041933566936
21267235 1 16008757887436300728
22224240 67 18410581699788603515
23402539 116 17989486307875686296
23402655 69 16200157555911161616
23536379 177 15626227896707552760
23559900 14 18202288022436724406
23622692 88 18113337527180313742
26918003 58 15430038768256303945
2916195 48 17917988386736460032
351380 180 16732982024771614877
3545911 37 16298105371712669741
4047638 21 18343867723523908840
42 15 15213020440172987848
474 4 17703498999616050400
4990 188 16917352515161995356
542803 24 17775567546094752840
59755656 520 18273215296160654599
633830 44 17846500318288918761
69090 78 17060334128245549927
7495541 125 17604161427382793225
77779 3 15936412229968216561
81228 2 18051683649087027395
8272917 22 16951120664703074115
9709674 26 16008756783835298233

> <PUBCHEM_SHAPE_MULTIPOLES>
346.74
11.44
1.31
1.27
3.61
0.08
-1.16
0.62
3.72
-0.26
0.14
-0.35
-0.24
-0.02

> <PUBCHEM_SHAPE_SELFOVERLAP>
738.439

> <PUBCHEM_SHAPE_VOLUME>
191.4

> <PUBCHEM_COORDINATE_TYPE>
2
5
10

$$$$
