305915
  -OEChem-11012400333D

 31 31  0     0  0  0  0  0  0999 V2000
    1.4788   -2.2466    0.2150 O   0  0  0  0  0  0  0  0  0  0  0  0
    4.6128    0.7792   -0.0957 C   0  0  0  0  0  0  0  0  0  0  0  0
    3.6277   -0.3884    0.0142 C   0  0  0  0  0  0  0  0  0  0  0  0
    6.0600    0.2902   -0.0307 C   0  0  0  0  0  0  0  0  0  0  0  0
    2.1711    0.0730   -0.0144 C   0  0  0  0  0  0  0  0  0  0  0  0
    7.0429    1.4483   -0.0949 C   0  0  0  0  0  0  0  0  0  0  0  0
    1.1807   -1.0674    0.0832 C   0  0  0  0  0  0  0  0  0  0  0  0
   -0.2139   -0.6908    0.0545 C   0  0  0  0  0  0  0  0  0  0  0  0
   -2.7531   -0.0023    0.0014 C   0  0  0  0  0  0  0  0  0  0  0  0
   -1.3730   -0.3770    0.0306 C   0  0  0  0  0  0  0  0  0  0  0  0
   -3.4532   -0.0165   -1.2043 C   0  0  0  0  0  0  0  0  0  0  0  0
   -3.3963    0.3773    1.1787 C   0  0  0  0  0  0  0  0  0  0  0  0
   -4.7989    0.3492   -1.2326 C   0  0  0  0  0  0  0  0  0  0  0  0
   -4.7420    0.7430    1.1503 C   0  0  0  0  0  0  0  0  0  0  0  0
   -5.4434    0.7289   -0.0553 C   0  0  0  0  0  0  0  0  0  0  0  0
    4.4450    1.3149   -1.0377 H   0  0  0  0  0  0  0  0  0  0  0  0
    4.4277    1.4901    0.7187 H   0  0  0  0  0  0  0  0  0  0  0  0
    3.8147   -0.9400    0.9442 H   0  0  0  0  0  0  0  0  0  0  0  0
    3.8034   -1.0944   -0.8072 H   0  0  0  0  0  0  0  0  0  0  0  0
    6.2577   -0.3982   -0.8605 H   0  0  0  0  0  0  0  0  0  0  0  0
    6.2240   -0.2667    0.8993 H   0  0  0  0  0  0  0  0  0  0  0  0
    1.9862    0.7569    0.8224 H   0  0  0  0  0  0  0  0  0  0  0  0
    1.9762    0.6133   -0.9483 H   0  0  0  0  0  0  0  0  0  0  0  0
    8.0710    1.0759   -0.0485 H   0  0  0  0  0  0  0  0  0  0  0  0
    6.8931    2.1372    0.7426 H   0  0  0  0  0  0  0  0  0  0  0  0
    6.9266    2.0100   -1.0273 H   0  0  0  0  0  0  0  0  0  0  0  0
   -2.9647   -0.3100   -2.1303 H   0  0  0  0  0  0  0  0  0  0  0  0
   -2.8632    0.3934    2.1263 H   0  0  0  0  0  0  0  0  0  0  0  0
   -5.3451    0.3384   -2.1713 H   0  0  0  0  0  0  0  0  0  0  0  0
   -5.2440    1.0387    2.0668 H   0  0  0  0  0  0  0  0  0  0  0  0
   -6.4913    1.0137   -0.0774 H   0  0  0  0  0  0  0  0  0  0  0  0
  1  7  2  0  0  0  0
  2  3  1  0  0  0  0
  2  4  1  0  0  0  0
  2 16  1  0  0  0  0
  2 17  1  0  0  0  0
  3  5  1  0  0  0  0
  3 18  1  0  0  0  0
  3 19  1  0  0  0  0
  4  6  1  0  0  0  0
  4 20  1  0  0  0  0
  4 21  1  0  0  0  0
  5  7  1  0  0  0  0
  5 22  1  0  0  0  0
  5 23  1  0  0  0  0
  6 24  1  0  0  0  0
  6 25  1  0  0  0  0
  6 26  1  0  0  0  0
  7  8  1  0  0  0  0
  8 10  3  0  0  0  0
  9 10  1  0  0  0  0
  9 11  2  0  0  0  0
  9 12  1  0  0  0  0
 11 13  1  0  0  0  0
 11 27  1  0  0  0  0
 12 14  2  0  0  0  0
 12 28  1  0  0  0  0
 13 15  2  0  0  0  0
 13 29  1  0  0  0  0
 14 15  1  0  0  0  0
 14 30  1  0  0  0  0
 15 31  1  0  0  0  0
M  END
> <PUBCHEM_COMPOUND_CID>
305915

> <PUBCHEM_CONFORMER_RMSD>
0.6

> <PUBCHEM_CONFORMER_DIVERSEORDER>
1
37
45
43
35
42
3
44
18
17
5
9
4
33
32
11
8
6
22
40
34
2
23
15
20
41
7
29
10
27
19
25
36
39
14
12
38
21
24
28
31
30
13
26
16

> <PUBCHEM_MMFF94_PARTIAL_CHARGES>
16
1 -0.57
10 -0.07
11 -0.15
12 -0.15
13 -0.15
14 -0.15
15 -0.15
27 0.15
28 0.15
29 0.15
30 0.15
31 0.15
5 0.06
7 0.61
8 -0.1
9 0.07

> <PUBCHEM_EFFECTIVE_ROTOR_COUNT>
4

> <PUBCHEM_PHARMACOPHORE_FEATURES>
4
1 1 acceptor
1 6 hydrophobe
4 2 3 4 5 hydrophobe
6 9 11 12 13 14 15 rings

> <PUBCHEM_HEAVY_ATOM_COUNT>
15

> <PUBCHEM_ATOM_DEF_STEREO_COUNT>
0

> <PUBCHEM_ATOM_UDEF_STEREO_COUNT>
0

> <PUBCHEM_BOND_DEF_STEREO_COUNT>
0

> <PUBCHEM_BOND_UDEF_STEREO_COUNT>
0

> <PUBCHEM_ISOTOPIC_ATOM_COUNT>
0

> <PUBCHEM_COMPONENT_COUNT>
1

> <PUBCHEM_CACTVS_TAUTO_COUNT>
2

> <PUBCHEM_CONFORMER_ID>
0004AAFB00000001

> <PUBCHEM_MMFF94_ENERGY>
14.2215

> <PUBCHEM_FEATURE_SELFOVERLAP>
20.297

> <PUBCHEM_SHAPE_FINGERPRINT>
10 15 17095525132381305412
100836 57 18408045126241576308
10354089 29 17095242527944045620
10803635 8 14333410029966852316
12091667 2 17167578306190796118
12236239 1 17989205919256468327
12507557 5 17458067075073722957
12555020 224 10303804363878650337
12596602 18 14490474201280789860
12714333 28 17989205954122511372
13288520 33 13470687057896290689
13403585 85 15864066572378755549
13533116 47 18130506337261804954
13631057 29 18267579290453023599
13668630 136 10807932669474184413
13964095 4 13901916587524760393
1420 363 11024109858846444852
14251718 22 15841550782018512524
14251752 14 15554451773667990140
14251764 18 13045947923958074900
14350574 20 12535341316171311671
15048467 5 18413389825903814336
15183329 4 16702029651879734164
15188451 53 13984953973471203905
15242439 84 13542459848131130187
15348495 7 16371014061271582912
15501527 16 18187365449975675802
15716309 27 11530478935196424636
17834072 33 17203604882679954615
17834076 25 18343864415792409920
17870717 6 14476961190490137429
18222031 100 9655577379702434622
20279233 1 17168432571518958763
20281389 69 18259700104027977068
20325693 3 15913326884485319093
204376 136 18333732416195721451
20645477 56 17967530181391615934
20645477 70 18117552938549936275
20871999 31 15841554059205231523
22224240 67 17821729459201897387
23198884 109 17275388707054971300
23402539 116 17203889660855962876
23402655 69 18060418019323719598
23536379 177 16630530613874859148
23559900 14 13901612048215389707
2767999 5 18411978079302716416
293599 30 18408604786381937090
351380 3 8790887371985915128
42 15 13190343456759158751
4325135 7 18409447029527095015
465052 167 8790885194796153488
5104073 3 16154266084141873449
542803 24 17989486307669698115
543368 44 18131069342268858449

> <PUBCHEM_SHAPE_MULTIPOLES>
302.82
16.69
1.27
1
18.44
0.41
0.05
-8.67
1.07
1.15
-0.11
-1.54
-0.13
-0.45

> <PUBCHEM_SHAPE_SELFOVERLAP>
606.483

> <PUBCHEM_SHAPE_VOLUME>
177.8

> <PUBCHEM_COORDINATE_TYPE>
2
5
10

$$$$
