5357250
  -OEChem-11012400363D

 21 20  0     0  0  0  0  0  0999 V2000
    0.5799   -0.5438    0.0700 C   0  0  0  0  0  0  0  0  0  0  0  0
    1.0799    0.7532    0.6620 C   0  0  0  0  0  0  0  0  0  0  0  0
   -0.6329   -0.7034   -0.4941 C   0  0  0  0  0  0  0  0  0  0  0  0
   -1.7312    0.3159   -0.5956 C   0  0  0  0  0  0  0  0  0  0  0  0
    1.5562   -1.6900    0.1119 C   0  0  0  0  0  0  0  0  0  0  0  0
    1.8044    1.6131   -0.3633 C   0  0  0  0  0  0  0  0  0  0  0  0
   -2.6563    0.2549    0.6091 C   0  0  0  0  0  0  0  0  0  0  0  0
    1.7485    0.5415    1.5052 H   0  0  0  0  0  0  0  0  0  0  0  0
    0.2487    1.3280    1.0861 H   0  0  0  0  0  0  0  0  0  0  0  0
   -0.8903   -1.6826   -0.8953 H   0  0  0  0  0  0  0  0  0  0  0  0
   -1.3210    1.3268   -0.6939 H   0  0  0  0  0  0  0  0  0  0  0  0
   -2.3030    0.1286   -1.5120 H   0  0  0  0  0  0  0  0  0  0  0  0
    1.1527   -2.5983   -0.3478 H   0  0  0  0  0  0  0  0  0  0  0  0
    1.8129   -1.9300    1.1489 H   0  0  0  0  0  0  0  0  0  0  0  0
    2.4751   -1.4289   -0.4227 H   0  0  0  0  0  0  0  0  0  0  0  0
    1.1494    1.8740   -1.2010 H   0  0  0  0  0  0  0  0  0  0  0  0
    2.1453    2.5444    0.1003 H   0  0  0  0  0  0  0  0  0  0  0  0
    2.6826    1.0975   -0.7657 H   0  0  0  0  0  0  0  0  0  0  0  0
   -3.1151   -0.7351    0.7059 H   0  0  0  0  0  0  0  0  0  0  0  0
   -3.4607    0.9900    0.5041 H   0  0  0  0  0  0  0  0  0  0  0  0
   -2.1197    0.4734    1.5383 H   0  0  0  0  0  0  0  0  0  0  0  0
  1  2  1  0  0  0  0
  1  3  2  0  0  0  0
  1  5  1  0  0  0  0
  2  6  1  0  0  0  0
  2  8  1  0  0  0  0
  2  9  1  0  0  0  0
  3  4  1  0  0  0  0
  3 10  1  0  0  0  0
  4  7  1  0  0  0  0
  4 11  1  0  0  0  0
  4 12  1  0  0  0  0
  5 13  1  0  0  0  0
  5 14  1  0  0  0  0
  5 15  1  0  0  0  0
  6 16  1  0  0  0  0
  6 17  1  0  0  0  0
  6 18  1  0  0  0  0
  7 19  1  0  0  0  0
  7 20  1  0  0  0  0
  7 21  1  0  0  0  0
M  END
> <PUBCHEM_COMPOUND_CID>
5357250

> <PUBCHEM_CONFORMER_RMSD>
0.4

> <PUBCHEM_CONFORMER_DIVERSEORDER>
2
9
5
6
7
4
8
3
1

> <PUBCHEM_MMFF94_PARTIAL_CHARGES>
6
1 -0.28
10 0.15
2 0.14
3 -0.29
4 0.14
5 0.14

> <PUBCHEM_EFFECTIVE_ROTOR_COUNT>
2

> <PUBCHEM_PHARMACOPHORE_FEATURES>
3
1 5 hydrophobe
1 6 hydrophobe
1 7 hydrophobe

> <PUBCHEM_HEAVY_ATOM_COUNT>
7

> <PUBCHEM_ATOM_DEF_STEREO_COUNT>
0

> <PUBCHEM_ATOM_UDEF_STEREO_COUNT>
0

> <PUBCHEM_BOND_DEF_STEREO_COUNT>
1

> <PUBCHEM_BOND_UDEF_STEREO_COUNT>
0

> <PUBCHEM_ISOTOPIC_ATOM_COUNT>
0

> <PUBCHEM_COMPONENT_COUNT>
1

> <PUBCHEM_CACTVS_TAUTO_COUNT>
1

> <PUBCHEM_CONFORMER_ID>
0051BEC200000002

> <PUBCHEM_MMFF94_ENERGY>
0.5159

> <PUBCHEM_FEATURE_SELFOVERLAP>
15.223

> <PUBCHEM_SHAPE_FINGERPRINT>
12932741 1 17676482809658407119
20096714 4 18342733069793189485
20653091 64 18338798918410170643
21040471 1 18196644322980981720
23552449 1 16610814514768050976
24536 1 18336527383416769851
29004967 10 18191583051772870890
5084963 1 18266721640526393423

> <PUBCHEM_SHAPE_MULTIPOLES>
144.06
3.14
1.61
0.84
1.87
0.09
0.02
-0.62
0.31
-1.32
-0.07
0.15
-0.08
-0.16

> <PUBCHEM_SHAPE_SELFOVERLAP>
254.291

> <PUBCHEM_SHAPE_VOLUME>
95.9

> <PUBCHEM_COORDINATE_TYPE>
2
5
10

$$$$
