136290
  -OEChem-11012400523D

 74 78  0     0  0  0  0  0  0999 V2000
   -1.4427    1.4633   -0.0974 N   0  0  0  0  0  0  0  0  0  0  0  0
    1.5927    1.5361   -0.3559 N   0  0  0  0  0  0  0  0  0  0  0  0
   -1.4375   -1.4255    0.0112 N   0  0  0  0  0  0  0  0  0  0  0  0
    1.4408   -1.3935    0.0446 N   0  0  0  0  0  0  0  0  0  0  0  0
   -3.4046    2.5058   -0.5055 C   0  0  0  0  0  0  0  0  0  0  0  0
    3.4505    2.3284    0.5576 C   0  0  0  0  0  0  0  0  0  0  0  0
   -1.1344    2.7888   -0.2742 C   0  0  0  0  0  0  0  0  0  0  0  0
    1.3061    2.8250    0.0363 C   0  0  0  0  0  0  0  0  0  0  0  0
   -2.4298    3.4455   -0.5346 C   0  0  0  0  0  0  0  0  0  0  0  0
    2.4617    3.3391    0.5941 C   0  0  0  0  0  0  0  0  0  0  0  0
   -2.7850    1.2031   -0.2276 C   0  0  0  0  0  0  0  0  0  0  0  0
    2.8867    1.2069   -0.0184 C   0  0  0  0  0  0  0  0  0  0  0  0
    0.0465    3.4274   -0.2188 C   0  0  0  0  0  0  0  0  0  0  0  0
   -3.4919   -2.4348    0.5075 C   0  0  0  0  0  0  0  0  0  0  0  0
    3.3220   -2.5361   -0.5981 C   0  0  0  0  0  0  0  0  0  0  0  0
   -2.7198   -1.2357    0.1231 C   0  0  0  0  0  0  0  0  0  0  0  0
    2.7617   -1.2244   -0.3064 C   0  0  0  0  0  0  0  0  0  0  0  0
   -4.8715    2.6738   -0.7097 C   0  0  0  0  0  0  0  0  0  0  0  0
    4.8401    2.4545    1.0490 C   0  0  0  0  0  0  0  0  0  0  0  0
   -3.4386    0.0357   -0.1285 C   0  0  0  0  0  0  0  0  0  0  0  0
    3.4347   -0.0618   -0.3376 C   0  0  0  0  0  0  0  0  0  0  0  0
   -2.5190   -3.3515    0.6156 C   0  0  0  0  0  0  0  0  0  0  0  0
    2.3901   -3.4840   -0.4260 C   0  0  0  0  0  0  0  0  0  0  0  0
   -1.2304   -2.7497    0.3115 C   0  0  0  0  0  0  0  0  0  0  0  0
    1.2222   -2.6751   -0.0200 C   0  0  0  0  0  0  0  0  0  0  0  0
   -2.5609    4.9102   -0.7809 C   0  0  0  0  0  0  0  0  0  0  0  0
    2.6402    4.7063    1.1309 C   0  0  0  0  0  0  0  0  0  0  0  0
   -0.0444   -3.3752    0.3058 C   0  0  0  0  0  0  0  0  0  0  0  0
   -4.9552   -2.5113    0.7140 C   0  0  0  0  0  0  0  0  0  0  0  0
    4.7394   -2.7312   -1.0223 C   0  0  0  0  0  0  0  0  0  0  0  0
   -5.5993    2.9546    0.5943 C   0  0  0  0  0  0  0  0  0  0  0  0
    5.8071    2.9524   -0.0287 C   0  0  0  0  0  0  0  0  0  0  0  0
   -2.6662   -4.7889    0.9872 C   0  0  0  0  0  0  0  0  0  0  0  0
    2.4274   -4.9539   -0.5967 C   0  0  0  0  0  0  0  0  0  0  0  0
   -5.7020   -2.8851   -0.5603 C   0  0  0  0  0  0  0  0  0  0  0  0
    5.6635   -2.9391    0.1650 C   0  0  0  0  0  0  0  0  0  0  0  0
    0.0621    4.5063   -0.3528 H   0  0  0  0  0  0  0  0  0  0  0  0
   -0.7737    0.7518    0.1503 H   0  0  0  0  0  0  0  0  0  0  0  0
    0.9571    0.9246   -0.8494 H   0  0  0  0  0  0  0  0  0  0  0  0
   -5.0538    3.5119   -1.3935 H   0  0  0  0  0  0  0  0  0  0  0  0
   -5.3120    1.8061   -1.2121 H   0  0  0  0  0  0  0  0  0  0  0  0
    4.8824    3.1379    1.9051 H   0  0  0  0  0  0  0  0  0  0  0  0
    5.1975    1.4879    1.4249 H   0  0  0  0  0  0  0  0  0  0  0  0
   -4.5134   -0.0142   -0.2474 H   0  0  0  0  0  0  0  0  0  0  0  0
    4.4961   -0.0643   -0.5694 H   0  0  0  0  0  0  0  0  0  0  0  0
   -3.6016    5.2114   -0.9319 H   0  0  0  0  0  0  0  0  0  0  0  0
   -2.0014    5.2032   -1.6752 H   0  0  0  0  0  0  0  0  0  0  0  0
   -2.1813    5.4810    0.0731 H   0  0  0  0  0  0  0  0  0  0  0  0
    3.0457    4.6733    2.1476 H   0  0  0  0  0  0  0  0  0  0  0  0
    3.3338    5.2748    0.5028 H   0  0  0  0  0  0  0  0  0  0  0  0
    1.7002    5.2637    1.1793 H   0  0  0  0  0  0  0  0  0  0  0  0
    0.0218   -4.4324    0.5392 H   0  0  0  0  0  0  0  0  0  0  0  0
   -5.1787   -3.2648    1.4790 H   0  0  0  0  0  0  0  0  0  0  0  0
   -5.3477   -1.5726    1.1192 H   0  0  0  0  0  0  0  0  0  0  0  0
    5.0942   -1.9008   -1.6423 H   0  0  0  0  0  0  0  0  0  0  0  0
    4.8110   -3.6124   -1.6720 H   0  0  0  0  0  0  0  0  0  0  0  0
   -5.4917    2.1230    1.2987 H   0  0  0  0  0  0  0  0  0  0  0  0
   -5.2188    3.8614    1.0766 H   0  0  0  0  0  0  0  0  0  0  0  0
   -6.6682    3.0983    0.4058 H   0  0  0  0  0  0  0  0  0  0  0  0
    5.8335    2.2680   -0.8832 H   0  0  0  0  0  0  0  0  0  0  0  0
    6.8199    3.0283    0.3792 H   0  0  0  0  0  0  0  0  0  0  0  0
    5.5122    3.9405   -0.3973 H   0  0  0  0  0  0  0  0  0  0  0  0
   -2.1110   -5.0099    1.9047 H   0  0  0  0  0  0  0  0  0  0  0  0
   -2.2914   -5.4356    0.1869 H   0  0  0  0  0  0  0  0  0  0  0  0
   -3.7112   -5.0626    1.1618 H   0  0  0  0  0  0  0  0  0  0  0  0
    2.2264   -5.4571    0.3542 H   0  0  0  0  0  0  0  0  0  0  0  0
    3.4034   -5.3002   -0.9489 H   0  0  0  0  0  0  0  0  0  0  0  0
    1.6797   -5.2764   -1.3280 H   0  0  0  0  0  0  0  0  0  0  0  0
   -6.7771   -2.9447   -0.3629 H   0  0  0  0  0  0  0  0  0  0  0  0
   -5.3748   -3.8587   -0.9406 H   0  0  0  0  0  0  0  0  0  0  0  0
   -5.5441   -2.1410   -1.3479 H   0  0  0  0  0  0  0  0  0  0  0  0
    6.6892   -3.1036   -0.1804 H   0  0  0  0  0  0  0  0  0  0  0  0
    5.3648   -3.8121    0.7554 H   0  0  0  0  0  0  0  0  0  0  0  0
    5.6686   -2.0664    0.8265 H   0  0  0  0  0  0  0  0  0  0  0  0
  1  7  1  0  0  0  0
  1 11  1  0  0  0  0
  1 38  1  0  0  0  0
  2  8  1  0  0  0  0
  2 12  1  0  0  0  0
  2 39  1  0  0  0  0
  3 16  2  0  0  0  0
  3 24  1  0  0  0  0
  4 17  1  0  0  0  0
  4 25  2  0  0  0  0
  5  9  2  0  0  0  0
  5 11  1  0  0  0  0
  5 18  1  0  0  0  0
  6 10  1  0  0  0  0
  6 12  2  0  0  0  0
  6 19  1  0  0  0  0
  7  9  1  0  0  0  0
  7 13  2  0  0  0  0
  8 10  2  0  0  0  0
  8 13  1  0  0  0  0
  9 26  1  0  0  0  0
 10 27  1  0  0  0  0
 11 20  2  0  0  0  0
 12 21  1  0  0  0  0
 13 37  1  0  0  0  0
 14 16  1  0  0  0  0
 14 22  2  0  0  0  0
 14 29  1  0  0  0  0
 15 17  1  0  0  0  0
 15 23  2  0  0  0  0
 15 30  1  0  0  0  0
 16 20  1  0  0  0  0
 17 21  2  0  0  0  0
 18 31  1  0  0  0  0
 18 40  1  0  0  0  0
 18 41  1  0  0  0  0
 19 32  1  0  0  0  0
 19 42  1  0  0  0  0
 19 43  1  0  0  0  0
 20 44  1  0  0  0  0
 21 45  1  0  0  0  0
 22 24  1  0  0  0  0
 22 33  1  0  0  0  0
 23 25  1  0  0  0  0
 23 34  1  0  0  0  0
 24 28  2  0  0  0  0
 25 28  1  0  0  0  0
 26 46  1  0  0  0  0
 26 47  1  0  0  0  0
 26 48  1  0  0  0  0
 27 49  1  0  0  0  0
 27 50  1  0  0  0  0
 27 51  1  0  0  0  0
 28 52  1  0  0  0  0
 29 35  1  0  0  0  0
 29 53  1  0  0  0  0
 29 54  1  0  0  0  0
 30 36  1  0  0  0  0
 30 55  1  0  0  0  0
 30 56  1  0  0  0  0
 31 57  1  0  0  0  0
 31 58  1  0  0  0  0
 31 59  1  0  0  0  0
 32 60  1  0  0  0  0
 32 61  1  0  0  0  0
 32 62  1  0  0  0  0
 33 63  1  0  0  0  0
 33 64  1  0  0  0  0
 33 65  1  0  0  0  0
 34 66  1  0  0  0  0
 34 67  1  0  0  0  0
 34 68  1  0  0  0  0
 35 69  1  0  0  0  0
 35 70  1  0  0  0  0
 35 71  1  0  0  0  0
 36 72  1  0  0  0  0
 36 73  1  0  0  0  0
 36 74  1  0  0  0  0
M  END
> <PUBCHEM_COMPOUND_CID>
136290

> <PUBCHEM_CONFORMER_RMSD>
0.8

> <PUBCHEM_CONFORMER_DIVERSEORDER>
1
2

> <PUBCHEM_MMFF94_PARTIAL_CHARGES>
38
1 -0.6
10 -0.18
11 0.1
12 -0.2
13 -0.11
14 -0.12
15 -0.14
16 0.42
17 0.17
18 0.14
19 0.18
2 0.03
20 -0.14
21 -0.11
22 -0.14
23 -0.12
24 0.17
25 0.42
26 0.14
27 0.18
28 -0.14
29 0.14
3 -0.62
30 0.14
33 0.14
34 0.14
37 0.15
38 0.4
39 0.27
4 -0.62
44 0.15
45 0.15
5 -0.14
52 0.15
6 -0.18
7 0.1
8 -0.2
9 -0.14

> <PUBCHEM_EFFECTIVE_ROTOR_COUNT>
4

> <PUBCHEM_PHARMACOPHORE_FEATURES>
14
1 1 cation
1 1 donor
1 2 cation
1 2 donor
1 3 acceptor
1 31 hydrophobe
1 32 hydrophobe
1 35 hydrophobe
1 36 hydrophobe
1 4 acceptor
5 1 5 7 9 11 rings
5 2 6 8 10 12 rings
5 3 14 16 22 24 rings
5 4 15 17 23 25 rings

> <PUBCHEM_HEAVY_ATOM_COUNT>
36

> <PUBCHEM_ATOM_DEF_STEREO_COUNT>
0

> <PUBCHEM_ATOM_UDEF_STEREO_COUNT>
0

> <PUBCHEM_BOND_DEF_STEREO_COUNT>
0

> <PUBCHEM_BOND_UDEF_STEREO_COUNT>
0

> <PUBCHEM_ISOTOPIC_ATOM_COUNT>
0

> <PUBCHEM_COMPONENT_COUNT>
1

> <PUBCHEM_CACTVS_TAUTO_COUNT>
3

> <PUBCHEM_CONFORMER_ID>
0002146200000001

> <PUBCHEM_MMFF94_ENERGY>
84.7131

> <PUBCHEM_FEATURE_SELFOVERLAP>
71.049

> <PUBCHEM_SHAPE_FINGERPRINT>
10290309 65 18123464149120407640
10675989 125 16101068150883080852
10838868 158 17970359311484982562
1100329 8 18266459797818799515
11513181 2 18201718491776164110
12202916 173 17828748870272121667
12677640 9 18198065781764626969
13402501 40 18122343750807565312
140371 6 18046349901511896125
14117953 113 18122626321174964645
14394314 77 17402893324310772744
14415360 78 17901371308545080252
14647877 51 18412262831328703530
14725015 67 18335977618913435483
15320467 1 18122344845955601917
15351339 4 17687461269599280267
15483637 11 18337674114157656213
15890870 6 17830177904855005375
15927050 60 18412543193935602797
15950262 2 15046432522962930096
15968369 26 18338781369838892204
16112460 7 18199757946469238176
19311894 1 17908148680806719362
19930381 70 18049443948333300019
20721686 56 18336548342673246906
20764821 26 18336832995867012965
20775438 99 18052220030825943455
21133410 38 18200604695867674923
22311459 1 18122061992384326391
23559900 14 18341041905209407640
238918 7 18127684040846476904
3178227 256 17977400343431123625
3388396 114 18125420137034250063
437795 96 18120370114994417323
4403749 210 18051391145093808624
463206 1 18195528095177238933
469060 322 18049178948571023585
50150288 127 16700642037703341785
5171179 24 18413392046438953026
5309563 4 17832144201176303299
5776283 40 18265065652146720166
653340 110 18267297814753256329
9961470 85 18411693258077451641

> <PUBCHEM_SHAPE_MULTIPOLES>
720.94
11.7
8.93
0.9
0.11
0.15
0.06
-0.13
0.14
0.11
0.41
-0.06
-0.07
3

> <PUBCHEM_SHAPE_SELFOVERLAP>
1576.18

> <PUBCHEM_SHAPE_VOLUME>
400

> <PUBCHEM_COORDINATE_TYPE>
2
5
10

$$$$
