5462874
  -OEChem-10312420292D

155154  0     0  0  0  0  0  0999 V2000
   15.8564    2.5000    0.0000 O   0  0  0  0  0  0  0  0  0  0  0  0
   13.2583    2.0000    0.0000 O   0  0  0  0  0  0  0  0  0  0  0  0
   14.1244    0.5000    0.0000 O   0  0  0  0  0  0  0  0  0  0  0  0
   16.7224    1.0000    0.0000 O   0  0  0  0  0  0  0  0  0  0  0  0
   12.3923    3.5000    0.0000 O   0  0  0  0  0  0  0  0  0  0  0  0
   14.9904   -1.0000    0.0000 O   0  0  0  0  0  0  0  0  0  0  0  0
   20.1865    2.0000    0.0000 C   0  0  0  0  0  0  0  0  0  0  0  0
   19.3205    2.5000    0.0000 C   0  0  0  0  0  0  0  0  0  0  0  0
   21.0526    2.5000    0.0000 C   0  0  0  0  0  0  0  0  0  0  0  0
    8.9282    2.5000    0.0000 C   0  0  0  0  0  0  0  0  0  0  0  0
   12.3923   -3.5000    0.0000 C   0  0  0  0  0  0  0  0  0  0  0  0
    9.7942    2.0000    0.0000 C   0  0  0  0  0  0  0  0  0  0  0  0
   12.3923   -2.5000    0.0000 C   0  0  0  0  0  0  0  0  0  0  0  0
    8.0622    2.0000    0.0000 C   0  0  0  0  0  0  0  0  0  0  0  0
   11.5263   -4.0000    0.0000 C   0  0  0  0  0  0  0  0  0  0  0  0
   18.4545    2.0000    0.0000 C   0  0  0  0  0  0  0  0  0  0  0  0
   10.6603    2.5000    0.0000 C   0  0  0  0  0  0  0  0  0  0  0  0
   13.2583   -2.0000    0.0000 C   0  0  0  0  0  0  0  0  0  0  0  0
   21.9186    2.0000    0.0000 C   0  0  0  0  0  0  0  0  0  0  0  0
    7.1962    2.5000    0.0000 C   0  0  0  0  0  0  0  0  0  0  0  0
   11.5263   -5.0000    0.0000 C   0  0  0  0  0  0  0  0  0  0  0  0
   17.5885    2.5000    0.0000 C   0  0  0  0  0  0  0  0  0  0  0  0
   11.5263    2.0000    0.0000 C   0  0  0  0  0  0  0  0  0  0  0  0
   13.2583   -1.0000    0.0000 C   0  0  0  0  0  0  0  0  0  0  0  0
   14.9904    2.0000    0.0000 C   0  0  0  0  0  0  0  0  0  0  0  0
   22.7846    2.5000    0.0000 C   0  0  0  0  0  0  0  0  0  0  0  0
    6.3301    2.0000    0.0000 C   0  0  0  0  0  0  0  0  0  0  0  0
   10.6603   -5.5000    0.0000 C   0  0  0  0  0  0  0  0  0  0  0  0
   14.1244    2.5000    0.0000 C   0  0  0  0  0  0  0  0  0  0  0  0
   14.9904    1.0000    0.0000 C   0  0  0  0  0  0  0  0  0  0  0  0
   16.7224    2.0000    0.0000 C   0  0  0  0  0  0  0  0  0  0  0  0
   12.3923    2.5000    0.0000 C   0  0  0  0  0  0  0  0  0  0  0  0
   14.1244   -0.5000    0.0000 C   0  0  0  0  0  0  0  0  0  0  0  0
   23.6506    2.0000    0.0000 C   0  0  0  0  0  0  0  0  0  0  0  0
    5.4641    2.5000    0.0000 C   0  0  0  0  0  0  0  0  0  0  0  0
   10.6603   -6.5000    0.0000 C   0  0  0  0  0  0  0  0  0  0  0  0
   24.5167    2.5000    0.0000 C   0  0  0  0  0  0  0  0  0  0  0  0
    4.5981    2.0000    0.0000 C   0  0  0  0  0  0  0  0  0  0  0  0
    9.7942   -7.0000    0.0000 C   0  0  0  0  0  0  0  0  0  0  0  0
   24.5167    3.5000    0.0000 C   0  0  0  0  0  0  0  0  0  0  0  0
    4.5981    1.0000    0.0000 C   0  0  0  0  0  0  0  0  0  0  0  0
    8.9282   -6.5000    0.0000 C   0  0  0  0  0  0  0  0  0  0  0  0
   25.3827    4.0000    0.0000 C   0  0  0  0  0  0  0  0  0  0  0  0
    3.7320    0.5000    0.0000 C   0  0  0  0  0  0  0  0  0  0  0  0
    8.0622   -7.0000    0.0000 C   0  0  0  0  0  0  0  0  0  0  0  0
   25.3827    5.0000    0.0000 C   0  0  0  0  0  0  0  0  0  0  0  0
    3.7320   -0.5000    0.0000 C   0  0  0  0  0  0  0  0  0  0  0  0
    7.1962   -6.5000    0.0000 C   0  0  0  0  0  0  0  0  0  0  0  0
   24.5167    5.5000    0.0000 C   0  0  0  0  0  0  0  0  0  0  0  0
    4.5981   -1.0000    0.0000 C   0  0  0  0  0  0  0  0  0  0  0  0
    7.1962   -5.5000    0.0000 C   0  0  0  0  0  0  0  0  0  0  0  0
   24.5167    6.5000    0.0000 C   0  0  0  0  0  0  0  0  0  0  0  0
    4.5981   -2.0000    0.0000 C   0  0  0  0  0  0  0  0  0  0  0  0
    6.3301   -5.0000    0.0000 C   0  0  0  0  0  0  0  0  0  0  0  0
   23.6506    7.0000    0.0000 C   0  0  0  0  0  0  0  0  0  0  0  0
    3.7320   -2.5000    0.0000 C   0  0  0  0  0  0  0  0  0  0  0  0
    5.4641   -5.5000    0.0000 C   0  0  0  0  0  0  0  0  0  0  0  0
   22.7846    6.5000    0.0000 C   0  0  0  0  0  0  0  0  0  0  0  0
    2.8660   -2.0000    0.0000 C   0  0  0  0  0  0  0  0  0  0  0  0
    5.4641   -6.5000    0.0000 C   0  0  0  0  0  0  0  0  0  0  0  0
   21.9186    7.0000    0.0000 C   0  0  0  0  0  0  0  0  0  0  0  0
    2.0000   -2.5000    0.0000 C   0  0  0  0  0  0  0  0  0  0  0  0
    4.5981   -7.0000    0.0000 C   0  0  0  0  0  0  0  0  0  0  0  0
   19.7880    1.5250    0.0000 H   0  0  0  0  0  0  0  0  0  0  0  0
   20.5851    1.5250    0.0000 H   0  0  0  0  0  0  0  0  0  0  0  0
   19.7190    2.9750    0.0000 H   0  0  0  0  0  0  0  0  0  0  0  0
   18.9220    2.9750    0.0000 H   0  0  0  0  0  0  0  0  0  0  0  0
   21.4511    2.9750    0.0000 H   0  0  0  0  0  0  0  0  0  0  0  0
   20.6540    2.9750    0.0000 H   0  0  0  0  0  0  0  0  0  0  0  0
    9.3267    2.9750    0.0000 H   0  0  0  0  0  0  0  0  0  0  0  0
    8.5297    2.9750    0.0000 H   0  0  0  0  0  0  0  0  0  0  0  0
   12.6044   -4.0826    0.0000 H   0  0  0  0  0  0  0  0  0  0  0  0
   13.0029   -3.3923    0.0000 H   0  0  0  0  0  0  0  0  0  0  0  0
    9.3957    1.5250    0.0000 H   0  0  0  0  0  0  0  0  0  0  0  0
   10.1928    1.5250    0.0000 H   0  0  0  0  0  0  0  0  0  0  0  0
   12.1803   -1.9174    0.0000 H   0  0  0  0  0  0  0  0  0  0  0  0
   11.7817   -2.6077    0.0000 H   0  0  0  0  0  0  0  0  0  0  0  0
    7.6636    1.5250    0.0000 H   0  0  0  0  0  0  0  0  0  0  0  0
    8.4607    1.5250    0.0000 H   0  0  0  0  0  0  0  0  0  0  0  0
   11.3142   -3.4174    0.0000 H   0  0  0  0  0  0  0  0  0  0  0  0
   10.9157   -4.1077    0.0000 H   0  0  0  0  0  0  0  0  0  0  0  0
   18.0560    1.5250    0.0000 H   0  0  0  0  0  0  0  0  0  0  0  0
   18.8530    1.5250    0.0000 H   0  0  0  0  0  0  0  0  0  0  0  0
   11.0588    2.9750    0.0000 H   0  0  0  0  0  0  0  0  0  0  0  0
   10.2617    2.9750    0.0000 H   0  0  0  0  0  0  0  0  0  0  0  0
   13.4704   -2.5826    0.0000 H   0  0  0  0  0  0  0  0  0  0  0  0
   13.8689   -1.8923    0.0000 H   0  0  0  0  0  0  0  0  0  0  0  0
   21.5201    1.5250    0.0000 H   0  0  0  0  0  0  0  0  0  0  0  0
   22.3171    1.5250    0.0000 H   0  0  0  0  0  0  0  0  0  0  0  0
    7.5947    2.9750    0.0000 H   0  0  0  0  0  0  0  0  0  0  0  0
    6.7976    2.9750    0.0000 H   0  0  0  0  0  0  0  0  0  0  0  0
   11.7383   -5.5826    0.0000 H   0  0  0  0  0  0  0  0  0  0  0  0
   12.1369   -4.8923    0.0000 H   0  0  0  0  0  0  0  0  0  0  0  0
   17.9870    2.9750    0.0000 H   0  0  0  0  0  0  0  0  0  0  0  0
   17.1899    2.9750    0.0000 H   0  0  0  0  0  0  0  0  0  0  0  0
   11.1278    1.5250    0.0000 H   0  0  0  0  0  0  0  0  0  0  0  0
   11.9248    1.5250    0.0000 H   0  0  0  0  0  0  0  0  0  0  0  0
   13.0463   -0.4174    0.0000 H   0  0  0  0  0  0  0  0  0  0  0  0
   12.6477   -1.1077    0.0000 H   0  0  0  0  0  0  0  0  0  0  0  0
   15.5273    1.6900    0.0000 H   0  0  0  0  0  0  0  0  0  0  0  0
   23.1831    2.9750    0.0000 H   0  0  0  0  0  0  0  0  0  0  0  0
   22.3861    2.9750    0.0000 H   0  0  0  0  0  0  0  0  0  0  0  0
    5.9316    1.5250    0.0000 H   0  0  0  0  0  0  0  0  0  0  0  0
    6.7287    1.5250    0.0000 H   0  0  0  0  0  0  0  0  0  0  0  0
   10.4482   -4.9174    0.0000 H   0  0  0  0  0  0  0  0  0  0  0  0
   10.0497   -5.6077    0.0000 H   0  0  0  0  0  0  0  0  0  0  0  0
   14.5229    2.9750    0.0000 H   0  0  0  0  0  0  0  0  0  0  0  0
   13.7258    2.9750    0.0000 H   0  0  0  0  0  0  0  0  0  0  0  0
   15.2024    0.4174    0.0000 H   0  0  0  0  0  0  0  0  0  0  0  0
   15.6010    1.1077    0.0000 H   0  0  0  0  0  0  0  0  0  0  0  0
   23.6506    1.3800    0.0000 H   0  0  0  0  0  0  0  0  0  0  0  0
    5.4641    3.1200    0.0000 H   0  0  0  0  0  0  0  0  0  0  0  0
   11.1972   -6.8100    0.0000 H   0  0  0  0  0  0  0  0  0  0  0  0
   25.0536    2.1900    0.0000 H   0  0  0  0  0  0  0  0  0  0  0  0
    4.0611    2.3100    0.0000 H   0  0  0  0  0  0  0  0  0  0  0  0
    9.7942   -7.6200    0.0000 H   0  0  0  0  0  0  0  0  0  0  0  0
   24.3046    4.0826    0.0000 H   0  0  0  0  0  0  0  0  0  0  0  0
   23.9061    3.3923    0.0000 H   0  0  0  0  0  0  0  0  0  0  0  0
    4.8101    0.4174    0.0000 H   0  0  0  0  0  0  0  0  0  0  0  0
    5.2087    1.1077    0.0000 H   0  0  0  0  0  0  0  0  0  0  0  0
    9.3267   -6.0250    0.0000 H   0  0  0  0  0  0  0  0  0  0  0  0
    8.5297   -6.0250    0.0000 H   0  0  0  0  0  0  0  0  0  0  0  0
   25.9196    3.6900    0.0000 H   0  0  0  0  0  0  0  0  0  0  0  0
    3.1951    0.8100    0.0000 H   0  0  0  0  0  0  0  0  0  0  0  0
    8.0622   -7.6200    0.0000 H   0  0  0  0  0  0  0  0  0  0  0  0
   25.9196    5.3100    0.0000 H   0  0  0  0  0  0  0  0  0  0  0  0
    3.1951   -0.8100    0.0000 H   0  0  0  0  0  0  0  0  0  0  0  0
    6.6592   -6.8100    0.0000 H   0  0  0  0  0  0  0  0  0  0  0  0
   23.9061    5.6077    0.0000 H   0  0  0  0  0  0  0  0  0  0  0  0
   24.3046    4.9174    0.0000 H   0  0  0  0  0  0  0  0  0  0  0  0
    5.2087   -1.1077    0.0000 H   0  0  0  0  0  0  0  0  0  0  0  0
    4.8101   -0.4174    0.0000 H   0  0  0  0  0  0  0  0  0  0  0  0
    7.8067   -5.6077    0.0000 H   0  0  0  0  0  0  0  0  0  0  0  0
    7.4082   -4.9174    0.0000 H   0  0  0  0  0  0  0  0  0  0  0  0
   25.0536    6.8100    0.0000 H   0  0  0  0  0  0  0  0  0  0  0  0
    5.1350   -2.3100    0.0000 H   0  0  0  0  0  0  0  0  0  0  0  0
    6.3301   -4.3800    0.0000 H   0  0  0  0  0  0  0  0  0  0  0  0
   23.6506    7.6200    0.0000 H   0  0  0  0  0  0  0  0  0  0  0  0
    3.7320   -3.1200    0.0000 H   0  0  0  0  0  0  0  0  0  0  0  0
    4.9272   -5.1900    0.0000 H   0  0  0  0  0  0  0  0  0  0  0  0
   22.3861    6.0250    0.0000 H   0  0  0  0  0  0  0  0  0  0  0  0
   23.1831    6.0250    0.0000 H   0  0  0  0  0  0  0  0  0  0  0  0
    3.2646   -1.5250    0.0000 H   0  0  0  0  0  0  0  0  0  0  0  0
    2.4675   -1.5250    0.0000 H   0  0  0  0  0  0  0  0  0  0  0  0
    5.6762   -7.0826    0.0000 H   0  0  0  0  0  0  0  0  0  0  0  0
    6.0747   -6.3923    0.0000 H   0  0  0  0  0  0  0  0  0  0  0  0
   22.2286    7.5369    0.0000 H   0  0  0  0  0  0  0  0  0  0  0  0
   21.3816    7.3100    0.0000 H   0  0  0  0  0  0  0  0  0  0  0  0
   21.6086    6.4631    0.0000 H   0  0  0  0  0  0  0  0  0  0  0  0
    1.6900   -1.9631    0.0000 H   0  0  0  0  0  0  0  0  0  0  0  0
    1.4631   -2.8100    0.0000 H   0  0  0  0  0  0  0  0  0  0  0  0
    2.3100   -3.0369    0.0000 H   0  0  0  0  0  0  0  0  0  0  0  0
    4.2881   -6.4631    0.0000 H   0  0  0  0  0  0  0  0  0  0  0  0
    4.0611   -7.3100    0.0000 H   0  0  0  0  0  0  0  0  0  0  0  0
    4.9081   -7.5369    0.0000 H   0  0  0  0  0  0  0  0  0  0  0  0
  1 25  1  0  0  0  0
  1 31  1  0  0  0  0
  2 29  1  0  0  0  0
  2 32  1  0  0  0  0
  3 30  1  0  0  0  0
  3 33  1  0  0  0  0
  4 31  2  0  0  0  0
  5 32  2  0  0  0  0
  6 33  2  0  0  0  0
  7  8  1  0  0  0  0
  7  9  1  0  0  0  0
  7 64  1  0  0  0  0
  7 65  1  0  0  0  0
  8 16  1  0  0  0  0
  8 66  1  0  0  0  0
  8 67  1  0  0  0  0
  9 19  1  0  0  0  0
  9 68  1  0  0  0  0
  9 69  1  0  0  0  0
 10 12  1  0  0  0  0
 10 14  1  0  0  0  0
 10 70  1  0  0  0  0
 10 71  1  0  0  0  0
 11 13  1  0  0  0  0
 11 15  1  0  0  0  0
 11 72  1  0  0  0  0
 11 73  1  0  0  0  0
 12 17  1  0  0  0  0
 12 74  1  0  0  0  0
 12 75  1  0  0  0  0
 13 18  1  0  0  0  0
 13 76  1  0  0  0  0
 13 77  1  0  0  0  0
 14 20  1  0  0  0  0
 14 78  1  0  0  0  0
 14 79  1  0  0  0  0
 15 21  1  0  0  0  0
 15 80  1  0  0  0  0
 15 81  1  0  0  0  0
 16 22  1  0  0  0  0
 16 82  1  0  0  0  0
 16 83  1  0  0  0  0
 17 23  1  0  0  0  0
 17 84  1  0  0  0  0
 17 85  1  0  0  0  0
 18 24  1  0  0  0  0
 18 86  1  0  0  0  0
 18 87  1  0  0  0  0
 19 26  1  0  0  0  0
 19 88  1  0  0  0  0
 19 89  1  0  0  0  0
 20 27  1  0  0  0  0
 20 90  1  0  0  0  0
 20 91  1  0  0  0  0
 21 28  1  0  0  0  0
 21 92  1  0  0  0  0
 21 93  1  0  0  0  0
 22 31  1  0  0  0  0
 22 94  1  0  0  0  0
 22 95  1  0  0  0  0
 23 32  1  0  0  0  0
 23 96  1  0  0  0  0
 23 97  1  0  0  0  0
 24 33  1  0  0  0  0
 24 98  1  0  0  0  0
 24 99  1  0  0  0  0
 25 29  1  0  0  0  0
 25 30  1  0  0  0  0
 25100  1  0  0  0  0
 26 34  1  0  0  0  0
 26101  1  0  0  0  0
 26102  1  0  0  0  0
 27 35  1  0  0  0  0
 27103  1  0  0  0  0
 27104  1  0  0  0  0
 28 36  1  0  0  0  0
 28105  1  0  0  0  0
 28106  1  0  0  0  0
 29107  1  0  0  0  0
 29108  1  0  0  0  0
 30109  1  0  0  0  0
 30110  1  0  0  0  0
 34 37  2  0  0  0  0
 34111  1  0  0  0  0
 35 38  2  0  0  0  0
 35112  1  0  0  0  0
 36 39  2  0  0  0  0
 36113  1  0  0  0  0
 37 40  1  0  0  0  0
 37114  1  0  0  0  0
 38 41  1  0  0  0  0
 38115  1  0  0  0  0
 39 42  1  0  0  0  0
 39116  1  0  0  0  0
 40 43  1  0  0  0  0
 40117  1  0  0  0  0
 40118  1  0  0  0  0
 41 44  1  0  0  0  0
 41119  1  0  0  0  0
 41120  1  0  0  0  0
 42 45  1  0  0  0  0
 42121  1  0  0  0  0
 42122  1  0  0  0  0
 43 46  2  0  0  0  0
 43123  1  0  0  0  0
 44 47  2  0  0  0  0
 44124  1  0  0  0  0
 45 48  2  0  0  0  0
 45125  1  0  0  0  0
 46 49  1  0  0  0  0
 46126  1  0  0  0  0
 47 50  1  0  0  0  0
 47127  1  0  0  0  0
 48 51  1  0  0  0  0
 48128  1  0  0  0  0
 49 52  1  0  0  0  0
 49129  1  0  0  0  0
 49130  1  0  0  0  0
 50 53  1  0  0  0  0
 50131  1  0  0  0  0
 50132  1  0  0  0  0
 51 54  1  0  0  0  0
 51133  1  0  0  0  0
 51134  1  0  0  0  0
 52 55  2  0  0  0  0
 52135  1  0  0  0  0
 53 56  2  0  0  0  0
 53136  1  0  0  0  0
 54 57  2  0  0  0  0
 54137  1  0  0  0  0
 55 58  1  0  0  0  0
 55138  1  0  0  0  0
 56 59  1  0  0  0  0
 56139  1  0  0  0  0
 57 60  1  0  0  0  0
 57140  1  0  0  0  0
 58 61  1  0  0  0  0
 58141  1  0  0  0  0
 58142  1  0  0  0  0
 59 62  1  0  0  0  0
 59143  1  0  0  0  0
 59144  1  0  0  0  0
 60 63  1  0  0  0  0
 60145  1  0  0  0  0
 60146  1  0  0  0  0
 61147  1  0  0  0  0
 61148  1  0  0  0  0
 61149  1  0  0  0  0
 62150  1  0  0  0  0
 62151  1  0  0  0  0
 62152  1  0  0  0  0
 63153  1  0  0  0  0
 63154  1  0  0  0  0
 63155  1  0  0  0  0
M  END
> <PUBCHEM_COMPOUND_CID>
5462874

> <PUBCHEM_COMPOUND_CANONICALIZED>
1

> <PUBCHEM_CACTVS_COMPLEXITY>
1260

> <PUBCHEM_CACTVS_HBOND_ACCEPTOR>
6

> <PUBCHEM_CACTVS_HBOND_DONOR>
0

> <PUBCHEM_CACTVS_ROTATABLE_BOND>
47

> <PUBCHEM_CACTVS_SUBSKEYS>
AAADcfB8OAAAAAAAAAAAAAAAAAAAAAAAAAAAAAAAAAAAAAAAAAAAGgAAAAAACBSggAICCAAABACIACDSCAAAAAAgAAAICAEAAAgBABIAAQACAAAFgAAKAAOIyKCAAAAAAAAAAAAAAAAAAAAAAAAAAAAAAA==

> <PUBCHEM_IUPAC_OPENEYE_NAME>
2,3-bis[[(9Z,12Z,15Z)-octadeca-9,12,15-trienoyl]oxy]propyl (9Z,12Z,15Z)-octadeca-9,12,15-trienoate

> <PUBCHEM_IUPAC_CAS_NAME>
(9Z,12Z,15Z)-octadeca-9,12,15-trienoic acid 2,3-bis[(9Z,12Z,15Z)-1-oxooctadeca-9,12,15-trienoxy]propyl ester

> <PUBCHEM_IUPAC_NAME_MARKUP>
2,3-bis[[(9<I>Z</I>,12<I>Z</I>,15<I>Z</I>)-octadeca-9,12,15-trienoyl]oxy]propyl (9<I>Z</I>,12<I>Z</I>,15<I>Z</I>)-octadeca-9,12,15-trienoate

> <PUBCHEM_IUPAC_NAME>
2,3-bis[[(9Z,12Z,15Z)-octadeca-9,12,15-trienoyl]oxy]propyl (9Z,12Z,15Z)-octadeca-9,12,15-trienoate

> <PUBCHEM_IUPAC_SYSTEMATIC_NAME>
2,3-bis[[(9Z,12Z,15Z)-octadeca-9,12,15-trienoyl]oxy]propyl (9Z,12Z,15Z)-octadeca-9,12,15-trienoate

> <PUBCHEM_IUPAC_TRADITIONAL_NAME>
(9Z,12Z,15Z)-octadeca-9,12,15-trienoic acid 2,3-bis[[(9Z,12Z,15Z)-octadeca-9,12,15-trienoyl]oxy]propyl ester

> <PUBCHEM_IUPAC_INCHI>
InChI=1S/C57H92O6/c1-4-7-10-13-16-19-22-25-28-31-34-37-40-43-46-49-55(58)61-52-54(63-57(60)51-48-45-42-39-36-33-30-27-24-21-18-15-12-9-6-3)53-62-56(59)50-47-44-41-38-35-32-29-26-23-20-17-14-11-8-5-2/h7-12,16-21,25-30,54H,4-6,13-15,22-24,31-53H2,1-3H3/b10-7-,11-8-,12-9-,19-16-,20-17-,21-18-,28-25-,29-26-,30-27-

> <PUBCHEM_IUPAC_INCHIKEY>
UBEIMDKGOYBUKT-FLIQGJDUSA-N

> <PUBCHEM_XLOGP3_AA>
18.3

> <PUBCHEM_EXACT_MASS>
872.68939065

> <PUBCHEM_MOLECULAR_FORMULA>
C57H92O6

> <PUBCHEM_MOLECULAR_WEIGHT>
873.3

> <PUBCHEM_OPENEYE_CAN_SMILES>
CCC=CCC=CCC=CCCCCCCCC(=O)OCC(COC(=O)CCCCCCCC=CCC=CCC=CCC)OC(=O)CCCCCCCC=CCC=CCC=CCC

> <PUBCHEM_OPENEYE_ISO_SMILES>
CC/C=C\C/C=C\C/C=C\CCCCCCCC(=O)OCC(OC(=O)CCCCCCC/C=C\C/C=C\C/C=C\CC)COC(=O)CCCCCCC/C=C\C/C=C\C/C=C\CC

> <PUBCHEM_CACTVS_TPSA>
78.9

> <PUBCHEM_MONOISOTOPIC_WEIGHT>
872.68939065

> <PUBCHEM_TOTAL_CHARGE>
0

> <PUBCHEM_HEAVY_ATOM_COUNT>
63

> <PUBCHEM_ATOM_DEF_STEREO_COUNT>
0

> <PUBCHEM_ATOM_UDEF_STEREO_COUNT>
0

> <PUBCHEM_BOND_DEF_STEREO_COUNT>
9

> <PUBCHEM_BOND_UDEF_STEREO_COUNT>
0

> <PUBCHEM_ISOTOPIC_ATOM_COUNT>
0

> <PUBCHEM_COMPONENT_COUNT>
1

> <PUBCHEM_CACTVS_TAUTO_COUNT>
-1

> <PUBCHEM_COORDINATE_TYPE>
1
5
255

$$$$
