5357260
  -OEChem-11012400443D

 24 23  0     0  0  0  0  0  0999 V2000
   -1.2448    0.0594    0.0066 C   0  0  0  0  0  0  0  0  0  0  0  0
   -2.6424   -0.5836    0.0543 C   0  0  0  0  0  0  0  0  0  0  0  0
   -1.1469    1.0986    1.1386 C   0  0  0  0  0  0  0  0  0  0  0  0
   -1.0715    0.7859   -1.3391 C   0  0  0  0  0  0  0  0  0  0  0  0
   -0.2072   -1.0513    0.0849 C   0  0  0  0  0  0  0  0  0  0  0  0
    1.1293   -0.9243    0.0760 C   0  0  0  0  0  0  0  0  0  0  0  0
    1.8366    0.3966   -0.0170 C   0  0  0  0  0  0  0  0  0  0  0  0
    3.3469    0.2186   -0.0043 C   0  0  0  0  0  0  0  0  0  0  0  0
   -3.4331    0.1701   -0.0378 H   0  0  0  0  0  0  0  0  0  0  0  0
   -2.8031   -1.1152    0.9998 H   0  0  0  0  0  0  0  0  0  0  0  0
   -2.7814   -1.3030   -0.7617 H   0  0  0  0  0  0  0  0  0  0  0  0
   -1.0396    0.6105    2.1140 H   0  0  0  0  0  0  0  0  0  0  0  0
   -0.3164    1.7969    1.0140 H   0  0  0  0  0  0  0  0  0  0  0  0
   -2.0533    1.7150    1.1789 H   0  0  0  0  0  0  0  0  0  0  0  0
   -1.9898    1.3285   -1.5983 H   0  0  0  0  0  0  0  0  0  0  0  0
   -0.2849    1.5433   -1.3283 H   0  0  0  0  0  0  0  0  0  0  0  0
   -0.8739    0.0889   -2.1620 H   0  0  0  0  0  0  0  0  0  0  0  0
   -0.5886   -2.0696    0.1558 H   0  0  0  0  0  0  0  0  0  0  0  0
    1.7295   -1.8288    0.1392 H   0  0  0  0  0  0  0  0  0  0  0  0
    1.5872    1.0322    0.8345 H   0  0  0  0  0  0  0  0  0  0  0  0
    1.5965    0.9068   -0.9505 H   0  0  0  0  0  0  0  0  0  0  0  0
    3.8439    1.1918   -0.0725 H   0  0  0  0  0  0  0  0  0  0  0  0
    3.6819   -0.2666    0.9190 H   0  0  0  0  0  0  0  0  0  0  0  0
    3.6823   -0.3909   -0.8505 H   0  0  0  0  0  0  0  0  0  0  0  0
  1  2  1  0  0  0  0
  1  3  1  0  0  0  0
  1  4  1  0  0  0  0
  1  5  1  0  0  0  0
  2  9  1  0  0  0  0
  2 10  1  0  0  0  0
  2 11  1  0  0  0  0
  3 12  1  0  0  0  0
  3 13  1  0  0  0  0
  3 14  1  0  0  0  0
  4 15  1  0  0  0  0
  4 16  1  0  0  0  0
  4 17  1  0  0  0  0
  5  6  2  0  0  0  0
  5 18  1  0  0  0  0
  6  7  1  0  0  0  0
  6 19  1  0  0  0  0
  7  8  1  0  0  0  0
  7 20  1  0  0  0  0
  7 21  1  0  0  0  0
  8 22  1  0  0  0  0
  8 23  1  0  0  0  0
  8 24  1  0  0  0  0
M  END
> <PUBCHEM_COMPOUND_CID>
5357260

> <PUBCHEM_CONFORMER_RMSD>
0.4

> <PUBCHEM_CONFORMER_DIVERSEORDER>
1
3
4
2
5
6

> <PUBCHEM_MMFF94_PARTIAL_CHARGES>
6
1 0.14
18 0.15
19 0.15
5 -0.29
6 -0.29
7 0.14

> <PUBCHEM_EFFECTIVE_ROTOR_COUNT>
2

> <PUBCHEM_PHARMACOPHORE_FEATURES>
2
1 8 hydrophobe
4 1 2 3 4 hydrophobe

> <PUBCHEM_HEAVY_ATOM_COUNT>
8

> <PUBCHEM_ATOM_DEF_STEREO_COUNT>
0

> <PUBCHEM_ATOM_UDEF_STEREO_COUNT>
0

> <PUBCHEM_BOND_DEF_STEREO_COUNT>
1

> <PUBCHEM_BOND_UDEF_STEREO_COUNT>
0

> <PUBCHEM_ISOTOPIC_ATOM_COUNT>
0

> <PUBCHEM_COMPONENT_COUNT>
1

> <PUBCHEM_CACTVS_TAUTO_COUNT>
1

> <PUBCHEM_CONFORMER_ID>
0051BECC00000001

> <PUBCHEM_MMFF94_ENERGY>
18.2522

> <PUBCHEM_FEATURE_SELFOVERLAP>
10.149

> <PUBCHEM_SHAPE_FINGERPRINT>
10857977 72 17822010968659477083
11062470 55 14851601098409522319
12897270 3 17917708006807279502
13024252 1 14418129629943046043
14390081 3 18131631179820274096
15310529 11 16917074325988273022
21028194 46 18335137600951369574
23235685 24 18343017800539687928
23552423 10 18056203474926632510
24536 1 17984691234376626547
29004967 10 17531257166309513715
369184 2 16081083787959708352
5084963 1 18260829306437297858
54338 74 14707205509024771447

> <PUBCHEM_SHAPE_MULTIPOLES>
164.64
3.98
1.16
1
2.75
0.03
0.12
-0.12
-0.04
-0.22
-0.09
-0.43
-0.35
-0.04

> <PUBCHEM_SHAPE_SELFOVERLAP>
298.498

> <PUBCHEM_SHAPE_VOLUME>
108.6

> <PUBCHEM_COORDINATE_TYPE>
2
5
10

$$$$
