75392
  -OEChem-11012401213D

 24 25  0     0  0  0  0  0  0999 V2000
    1.0821   -2.5437   -1.0974 O   0  5  0  0  0  0  0  0  0  0  0  0
    1.0811   -2.5440    1.0978 O   0  0  0  0  0  0  0  0  0  0  0  0
    3.2634   -0.7547    1.0975 O   0  5  0  0  0  0  0  0  0  0  0  0
    3.2642   -0.7529   -1.0978 O   0  0  0  0  0  0  0  0  0  0  0  0
   -4.4948    0.7379    0.0014 O   0  5  0  0  0  0  0  0  0  0  0  0
   -4.1371   -1.4280   -0.0004 O   0  0  0  0  0  0  0  0  0  0  0  0
    0.7442   -2.0460    0.0001 N   0  3  0  0  0  0  0  0  0  0  0  0
    2.8413   -0.3258    0.0000 N   0  3  0  0  0  0  0  0  0  0  0  0
   -3.7162   -0.2459    0.0002 N   0  3  0  0  0  0  0  0  0  0  0  0
    0.4559    0.4432    0.0000 C   0  0  0  0  0  0  0  0  0  0  0  0
   -0.4416    1.5375   -0.0003 C   0  0  0  0  0  0  0  0  0  0  0  0
   -0.0557   -0.8647   -0.0002 C   0  0  0  0  0  0  0  0  0  0  0  0
    1.8387    0.6890    0.0005 C   0  0  0  0  0  0  0  0  0  0  0  0
   -1.8244    1.2916   -0.0007 C   0  0  0  0  0  0  0  0  0  0  0  0
   -2.3150   -0.0144   -0.0010 C   0  0  0  0  0  0  0  0  0  0  0  0
   -1.4324   -1.0905   -0.0007 C   0  0  0  0  0  0  0  0  0  0  0  0
    0.0700    2.8453   -0.0001 C   0  0  0  0  0  0  0  0  0  0  0  0
    2.3295    1.9950    0.0006 C   0  0  0  0  0  0  0  0  0  0  0  0
    1.4468    3.0710    0.0003 C   0  0  0  0  0  0  0  0  0  0  0  0
   -2.5032    2.1430   -0.0007 H   0  0  0  0  0  0  0  0  0  0  0  0
   -1.8009   -2.1150   -0.0005 H   0  0  0  0  0  0  0  0  0  0  0  0
   -0.6007    3.7019   -0.0003 H   0  0  0  0  0  0  0  0  0  0  0  0
    3.3989    2.1946    0.0009 H   0  0  0  0  0  0  0  0  0  0  0  0
    1.8293    4.0876    0.0004 H   0  0  0  0  0  0  0  0  0  0  0  0
  1  7  1  0  0  0  0
  2  7  2  0  0  0  0
  3  8  1  0  0  0  0
  4  8  2  0  0  0  0
  5  9  1  0  0  0  0
  6  9  2  0  0  0  0
  7 12  1  0  0  0  0
  8 13  1  0  0  0  0
  9 15  1  0  0  0  0
 10 11  1  0  0  0  0
 10 12  2  0  0  0  0
 10 13  1  0  0  0  0
 11 14  2  0  0  0  0
 11 17  1  0  0  0  0
 12 16  1  0  0  0  0
 13 18  2  0  0  0  0
 14 15  1  0  0  0  0
 14 20  1  0  0  0  0
 15 16  2  0  0  0  0
 16 21  1  0  0  0  0
 17 19  2  0  0  0  0
 17 22  1  0  0  0  0
 18 19  1  0  0  0  0
 18 23  1  0  0  0  0
 19 24  1  0  0  0  0
M  CHG  6   1  -1   3  -1   5  -1   7   1   8   1   9   1
M  END
> <PUBCHEM_COMPOUND_CID>
75392

> <PUBCHEM_CONFORMER_RMSD>
0.6

> <PUBCHEM_CONFORMER_DIVERSEORDER>
1

> <PUBCHEM_MMFF94_PARTIAL_CHARGES>
22
1 -0.52
12 0.13
13 0.13
14 -0.15
15 0.13
16 -0.15
17 -0.15
18 -0.15
19 -0.15
2 -0.52
20 0.15
21 0.15
22 0.15
23 0.15
24 0.15
3 -0.52
4 -0.52
5 -0.52
6 -0.52
7 0.91
8 0.91
9 0.91

> <PUBCHEM_EFFECTIVE_ROTOR_COUNT>
3

> <PUBCHEM_PHARMACOPHORE_FEATURES>
11
1 1 acceptor
1 1 anion
1 2 acceptor
1 3 acceptor
1 3 anion
1 4 acceptor
1 5 acceptor
1 5 anion
1 6 acceptor
6 10 11 12 14 15 16 rings
6 10 11 13 17 18 19 rings

> <PUBCHEM_HEAVY_ATOM_COUNT>
19

> <PUBCHEM_ATOM_DEF_STEREO_COUNT>
0

> <PUBCHEM_ATOM_UDEF_STEREO_COUNT>
0

> <PUBCHEM_BOND_DEF_STEREO_COUNT>
0

> <PUBCHEM_BOND_UDEF_STEREO_COUNT>
0

> <PUBCHEM_ISOTOPIC_ATOM_COUNT>
0

> <PUBCHEM_COMPONENT_COUNT>
1

> <PUBCHEM_CACTVS_TAUTO_COUNT>
1

> <PUBCHEM_CONFORMER_ID>
0001268000000001

> <PUBCHEM_MMFF94_ENERGY>
78.6268

> <PUBCHEM_FEATURE_SELFOVERLAP>
56.102

> <PUBCHEM_SHAPE_FINGERPRINT>
10411042 1 18050568439506901671
10967382 1 18266741474743706885
11471102 20 18410569613386732749
11680986 33 18120944059794701376
12553582 1 18337958874520727673
13140716 1 18338232786023068129
13380535 76 17979352289533118008
13380536 305 18337676420307310692
14178342 30 18124306108791845352
14251717 144 18339637953541207935
14790565 3 18338532875420512820
15196674 1 18410856602953654277
15536298 74 18271527601577884793
16945 1 18338516339605720068
18186145 218 18335980956371568869
193761 8 17834113039585315172
20511035 2 17973170804927814998
20645476 183 17680442326833615556
20645477 70 18339636850024808863
20739085 24 18190766239435885497
20905425 154 17981044116043010734
21267235 1 18411709789796535095
21421861 104 17608370147171029809
21524375 3 18122060077002816773
221490 88 18264778833909212531
2255824 54 18336549420678064604
23184049 29 17760080722695641106
2334 1 18122625217231394401
23388829 49 18341321223927938761
23402539 116 18343010099969469846
23419403 2 17680112275866412428
23463225 33 18408881849694174225
23558518 356 17687460578099216590
23559900 14 17838069448560917148
2748010 2 18265055923365461845
3060560 45 18201719535337113599
335352 9 18410575046520264989
34934 24 18339353051217531255
352729 6 17256526851590375581
5104073 3 18338801221266898969
5939293 188 18411697707642055336
7364860 26 18341614840903854221
81228 2 17476913555040844737

> <PUBCHEM_SHAPE_MULTIPOLES>
340.85
5.57
3.15
0.78
5.29
0.5
0
-0.57
0
-1.66
0
-0.43
-0.35
0

> <PUBCHEM_SHAPE_SELFOVERLAP>
753.383

> <PUBCHEM_SHAPE_VOLUME>
181.1

> <PUBCHEM_COORDINATE_TYPE>
2
5
10

$$$$
