67738
  -OEChem-11012400433D

 16 16  0     0  0  0  0  0  0999 V2000
   -0.5409    1.0945    1.6751 F   0  0  0  0  0  0  0  0  0  0  0  0
   -1.3672    2.1989   -0.0081 F   0  0  0  0  0  0  0  0  0  0  0  0
    1.3674    2.1987    0.0080 F   0  0  0  0  0  0  0  0  0  0  0  0
    0.5410    1.0945   -1.6751 F   0  0  0  0  0  0  0  0  0  0  0  0
   -1.9210    0.0327   -1.3669 F   0  0  0  0  0  0  0  0  0  0  0  0
   -2.5928   -0.2408    0.6817 F   0  0  0  0  0  0  0  0  0  0  0  0
    2.5930   -0.2410   -0.6817 F   0  0  0  0  0  0  0  0  0  0  0  0
    1.9209    0.0325    1.3670 F   0  0  0  0  0  0  0  0  0  0  0  0
   -1.3173   -2.5983   -0.0760 F   0  0  0  0  0  0  0  0  0  0  0  0
    1.3169   -2.5985    0.0759 F   0  0  0  0  0  0  0  0  0  0  0  0
   -0.6843    1.0792    0.3253 C   0  0  0  0  0  0  0  0  0  0  0  0
    0.6845    1.0790   -0.3254 C   0  0  0  0  0  0  0  0  0  0  0  0
   -1.4787   -0.1527   -0.0910 C   0  0  0  0  0  0  0  0  0  0  0  0
    1.4787   -0.1529    0.0910 C   0  0  0  0  0  0  0  0  0  0  0  0
   -0.6697   -1.4128   -0.0370 C   0  0  0  0  0  0  0  0  0  0  0  0
    0.6695   -1.4129    0.0370 C   0  0  0  0  0  0  0  0  0  0  0  0
  1 11  1  0  0  0  0
  2 11  1  0  0  0  0
  3 12  1  0  0  0  0
  4 12  1  0  0  0  0
  5 13  1  0  0  0  0
  6 13  1  0  0  0  0
  7 14  1  0  0  0  0
  8 14  1  0  0  0  0
  9 15  1  0  0  0  0
 10 16  1  0  0  0  0
 11 12  1  0  0  0  0
 11 13  1  0  0  0  0
 12 14  1  0  0  0  0
 13 15  1  0  0  0  0
 14 16  1  0  0  0  0
 15 16  2  0  0  0  0
M  END
> <PUBCHEM_COMPOUND_CID>
67738

> <PUBCHEM_CONFORMER_RMSD>
0.4

> <PUBCHEM_CONFORMER_DIVERSEORDER>
1
2

> <PUBCHEM_MMFF94_PARTIAL_CHARGES>
16
1 -0.34
10 -0.15
11 0.68
12 0.68
13 0.82
14 0.82
15 0.01
16 0.01
2 -0.34
3 -0.34
4 -0.34
5 -0.34
6 -0.34
7 -0.34
8 -0.34
9 -0.15

> <PUBCHEM_EFFECTIVE_ROTOR_COUNT>
0.8

> <PUBCHEM_PHARMACOPHORE_FEATURES>
1
6 11 12 13 14 15 16 rings

> <PUBCHEM_HEAVY_ATOM_COUNT>
16

> <PUBCHEM_ATOM_DEF_STEREO_COUNT>
0

> <PUBCHEM_ATOM_UDEF_STEREO_COUNT>
0

> <PUBCHEM_BOND_DEF_STEREO_COUNT>
0

> <PUBCHEM_BOND_UDEF_STEREO_COUNT>
0

> <PUBCHEM_ISOTOPIC_ATOM_COUNT>
0

> <PUBCHEM_COMPONENT_COUNT>
1

> <PUBCHEM_CACTVS_TAUTO_COUNT>
1

> <PUBCHEM_CONFORMER_ID>
0001089A00000001

> <PUBCHEM_MMFF94_ENERGY>
3.4128

> <PUBCHEM_FEATURE_SELFOVERLAP>
5.074

> <PUBCHEM_SHAPE_FINGERPRINT>
12423570 1 7876295311593196665
13024252 1 14707491317850310496
144361 1 17895489114487913892
16945 1 18410565189058500390
18185500 45 18410858788743828847
22344851 341 18046907366364812890
2334 1 17978511167211121670
23419403 2 15959399616422290755
23559900 14 18270975617799337060
241688 4 17905327329705858498
2748010 2 18122063096116984071
5084963 1 18131360678105300352
528886 8 18338803440968385657

> <PUBCHEM_SHAPE_MULTIPOLES>
256.54
2.52
2.38
1.09
0
0.71
0
0.19
0
0
0
0
-0.33
-0.12

> <PUBCHEM_SHAPE_SELFOVERLAP>
563.791

> <PUBCHEM_SHAPE_VOLUME>
137.7

> <PUBCHEM_COORDINATE_TYPE>
2
5
10

$$$$
