5385260
  -OEChem-11012401043D

 27 26  0     0  0  0  0  0  0999 V2000
    3.7171   -1.9368    0.3334 O   0  0  0  0  0  0  0  0  0  0  0  0
    3.2763   -0.8804   -0.4674 N   0  0  0  0  0  0  0  0  0  0  0  0
   -1.5419    0.7937    0.2077 C   0  0  0  0  0  0  0  0  0  0  0  0
   -0.0957    0.5162   -0.2175 C   0  0  0  0  0  0  0  0  0  0  0  0
   -2.5173   -0.3128   -0.2025 C   0  0  0  0  0  0  0  0  0  0  0  0
    0.8877    1.6082    0.2170 C   0  0  0  0  0  0  0  0  0  0  0  0
   -3.9610   -0.0349    0.2247 C   0  0  0  0  0  0  0  0  0  0  0  0
    2.3068    1.3417   -0.2808 C   0  0  0  0  0  0  0  0  0  0  0  0
   -4.9248   -1.1613   -0.1154 C   0  0  0  0  0  0  0  0  0  0  0  0
    2.8526    0.0664    0.3009 C   0  0  0  0  0  0  0  0  0  0  0  0
   -1.8695    1.7442   -0.2311 H   0  0  0  0  0  0  0  0  0  0  0  0
   -1.5774    0.9184    1.2970 H   0  0  0  0  0  0  0  0  0  0  0  0
    0.2114   -0.4485    0.2038 H   0  0  0  0  0  0  0  0  0  0  0  0
   -0.0600    0.4113   -1.3090 H   0  0  0  0  0  0  0  0  0  0  0  0
   -2.4826   -0.4418   -1.2913 H   0  0  0  0  0  0  0  0  0  0  0  0
   -2.1882   -1.2614    0.2394 H   0  0  0  0  0  0  0  0  0  0  0  0
    0.8855    1.6799    1.3116 H   0  0  0  0  0  0  0  0  0  0  0  0
    0.5526    2.5775   -0.1705 H   0  0  0  0  0  0  0  0  0  0  0  0
   -4.3092    0.8881   -0.2537 H   0  0  0  0  0  0  0  0  0  0  0  0
   -3.9919    0.1376    1.3072 H   0  0  0  0  0  0  0  0  0  0  0  0
    2.3334    1.2950   -1.3747 H   0  0  0  0  0  0  0  0  0  0  0  0
    2.9629    2.1571    0.0419 H   0  0  0  0  0  0  0  0  0  0  0  0
   -4.9485   -1.3410   -1.1949 H   0  0  0  0  0  0  0  0  0  0  0  0
   -4.6293   -2.0909    0.3812 H   0  0  0  0  0  0  0  0  0  0  0  0
   -5.9380   -0.9070    0.2109 H   0  0  0  0  0  0  0  0  0  0  0  0
    2.8850   -0.0116    1.4027 H   0  0  0  0  0  0  0  0  0  0  0  0
    4.0072   -2.5806   -0.3347 H   0  0  0  0  0  0  0  0  0  0  0  0
  1  2  1  0  0  0  0
  1 27  1  0  0  0  0
  2 10  2  0  0  0  0
  3  4  1  0  0  0  0
  3  5  1  0  0  0  0
  3 11  1  0  0  0  0
  3 12  1  0  0  0  0
  4  6  1  0  0  0  0
  4 13  1  0  0  0  0
  4 14  1  0  0  0  0
  5  7  1  0  0  0  0
  5 15  1  0  0  0  0
  5 16  1  0  0  0  0
  6  8  1  0  0  0  0
  6 17  1  0  0  0  0
  6 18  1  0  0  0  0
  7  9  1  0  0  0  0
  7 19  1  0  0  0  0
  7 20  1  0  0  0  0
  8 10  1  0  0  0  0
  8 21  1  0  0  0  0
  8 22  1  0  0  0  0
  9 23  1  0  0  0  0
  9 24  1  0  0  0  0
  9 25  1  0  0  0  0
 10 26  1  0  0  0  0
M  END
> <PUBCHEM_COMPOUND_CID>
5385260

> <PUBCHEM_CONFORMER_RMSD>
0.6

> <PUBCHEM_CONFORMER_DIVERSEORDER>
1
137
2
126
111
95
133
22
54
143
4
13
23
70
103
5
101
138
9
20
86
140
83
110
56
59
116
127
80
96
112
135
29
105
10
130
21
75
42
71
134
6
128
78
28
125
34
40
49
129
45
92
76
17
132
11
131
67
139
77
102
63
66
18
24
141
64
74
90
123
14
44
136
57
62
115
33
68
51
122
50
73
94
106
27
46
41
142
65
30
89
43
36
120
109
31
47
98
60
100
58
124
52
113
117
81
119
88
69
32
12
114
84
118
15
48
38
104
16
93
91
7
97
72
3
55
37
19
53
26
121
79
107
87
61
85
8
25
39
99
108
35
82

> <PUBCHEM_MMFF94_PARTIAL_CHARGES>
6
1 -0.34
10 0.33
2 -0.51
26 0.06
27 0.4
8 0.06

> <PUBCHEM_EFFECTIVE_ROTOR_COUNT>
6

> <PUBCHEM_PHARMACOPHORE_FEATURES>
5
1 1 anion
1 2 acceptor
1 9 hydrophobe
3 3 5 7 hydrophobe
3 4 6 8 hydrophobe

> <PUBCHEM_HEAVY_ATOM_COUNT>
10

> <PUBCHEM_ATOM_DEF_STEREO_COUNT>
0

> <PUBCHEM_ATOM_UDEF_STEREO_COUNT>
0

> <PUBCHEM_BOND_DEF_STEREO_COUNT>
1

> <PUBCHEM_BOND_UDEF_STEREO_COUNT>
0

> <PUBCHEM_ISOTOPIC_ATOM_COUNT>
0

> <PUBCHEM_COMPONENT_COUNT>
1

> <PUBCHEM_CACTVS_TAUTO_COUNT>
2

> <PUBCHEM_CONFORMER_ID>
00522C2C00000001

> <PUBCHEM_MMFF94_ENERGY>
0.4089

> <PUBCHEM_FEATURE_SELFOVERLAP>
25.382

> <PUBCHEM_SHAPE_FINGERPRINT>
11987891 38 18337111271668250475
12032990 46 18335140908102678153
122479 349 10303802194387104252
14251710 61 18410858728630162967
14251717 144 18409728473753245147
14252887 29 18408881862848186312
14455015 7 18114472236107499427
15477762 27 18335139812775364900
177051 138 18343303669130870205
17834074 16 18261114131641883251
20645477 70 18334292093293989535
20871998 22 18129668478755919854
21354914 76 18412262835059415247
22485316 2 18342454889499577981
22959321 60 11095877198688521733
42 15 18273217504079370849
94968 8 18334577932321476362

> <PUBCHEM_SHAPE_MULTIPOLES>
194.94
9.12
1.64
0.67
6.57
0.36
0
5.04
0.07
-1.61
0.08
-0.05
-0.01
-0.25

> <PUBCHEM_SHAPE_SELFOVERLAP>
345.306

> <PUBCHEM_SHAPE_VOLUME>
127.6

> <PUBCHEM_COORDINATE_TYPE>
2
5
10

$$$$
