69330
  -OEChem-11012400443D

 18 18  0     0  0  0  0  0  0999 V2000
   -3.4669    0.0004    0.2939 Cl  0  0  0  0  0  0  0  0  0  0  0  0
    1.0060   -0.0004   -0.2891 C   0  0  0  0  0  0  0  0  0  0  0  0
    2.4848   -0.0004   -0.4837 C   0  0  0  0  0  0  0  0  0  0  0  0
    0.3144   -1.2082   -0.1985 C   0  0  0  0  0  0  0  0  0  0  0  0
    0.3146    1.2078   -0.1990 C   0  0  0  0  0  0  0  0  0  0  0  0
    3.2446    0.0007    0.8401 C   0  0  0  0  0  0  0  0  0  0  0  0
   -1.0688   -1.2079   -0.0178 C   0  0  0  0  0  0  0  0  0  0  0  0
   -1.0685    1.2079   -0.0182 C   0  0  0  0  0  0  0  0  0  0  0  0
   -1.7602    0.0001    0.0723 C   0  0  0  0  0  0  0  0  0  0  0  0
    2.7846   -0.8749   -1.0747 H   0  0  0  0  0  0  0  0  0  0  0  0
    2.7845    0.8733   -1.0760 H   0  0  0  0  0  0  0  0  0  0  0  0
    0.8417   -2.1562   -0.2655 H   0  0  0  0  0  0  0  0  0  0  0  0
    0.8423    2.1556   -0.2666 H   0  0  0  0  0  0  0  0  0  0  0  0
    3.0009    0.8867    1.4360 H   0  0  0  0  0  0  0  0  0  0  0  0
    4.3236    0.0006    0.6563 H   0  0  0  0  0  0  0  0  0  0  0  0
    3.0009   -0.8844    1.4373 H   0  0  0  0  0  0  0  0  0  0  0  0
   -1.5947   -2.1567    0.0513 H   0  0  0  0  0  0  0  0  0  0  0  0
   -1.5942    2.1569    0.0505 H   0  0  0  0  0  0  0  0  0  0  0  0
  1  9  1  0  0  0  0
  2  3  1  0  0  0  0
  2  4  2  0  0  0  0
  2  5  1  0  0  0  0
  3  6  1  0  0  0  0
  3 10  1  0  0  0  0
  3 11  1  0  0  0  0
  4  7  1  0  0  0  0
  4 12  1  0  0  0  0
  5  8  2  0  0  0  0
  5 13  1  0  0  0  0
  6 14  1  0  0  0  0
  6 15  1  0  0  0  0
  6 16  1  0  0  0  0
  7  9  2  0  0  0  0
  7 17  1  0  0  0  0
  8  9  1  0  0  0  0
  8 18  1  0  0  0  0
M  END
> <PUBCHEM_COMPOUND_CID>
69330

> <PUBCHEM_CONFORMER_RMSD>
0.4

> <PUBCHEM_CONFORMER_DIVERSEORDER>
1

> <PUBCHEM_MMFF94_PARTIAL_CHARGES>
12
1 -0.18
12 0.15
13 0.15
17 0.15
18 0.15
2 -0.14
3 0.14
4 -0.15
5 -0.15
7 -0.15
8 -0.15
9 0.18

> <PUBCHEM_EFFECTIVE_ROTOR_COUNT>
1

> <PUBCHEM_PHARMACOPHORE_FEATURES>
2
1 6 hydrophobe
6 2 4 5 7 8 9 rings

> <PUBCHEM_HEAVY_ATOM_COUNT>
9

> <PUBCHEM_ATOM_DEF_STEREO_COUNT>
0

> <PUBCHEM_ATOM_UDEF_STEREO_COUNT>
0

> <PUBCHEM_BOND_DEF_STEREO_COUNT>
0

> <PUBCHEM_BOND_UDEF_STEREO_COUNT>
0

> <PUBCHEM_ISOTOPIC_ATOM_COUNT>
0

> <PUBCHEM_COMPONENT_COUNT>
1

> <PUBCHEM_CACTVS_TAUTO_COUNT>
1

> <PUBCHEM_CONFORMER_ID>
00010ED200000001

> <PUBCHEM_MMFF94_ENERGY>
16.2421

> <PUBCHEM_FEATURE_SELFOVERLAP>
10.148

> <PUBCHEM_SHAPE_FINGERPRINT>
10219947 1 18410015433444994513
10857977 72 18411416228243536648
11062470 55 16415481553855774193
14325111 11 18411703157844589301
15310529 11 16660362601555512396
16945 1 18410579487110052511
193761 8 17617380584794155469
20645464 45 17917705812495703170
21040471 1 18338805489794386444
23235685 24 18412825780780990941
23402655 69 18195511612127004981
23552423 10 17826800540073322172
2748010 2 18122068589601513565
29004967 10 18334306352743512001
369184 2 18341040870137944586
5084963 1 18270691869819464740

> <PUBCHEM_SHAPE_MULTIPOLES>
187.09
4.62
1.26
0.75
0.06
0
-0.06
0
-1.04
-0.23
0.07
0.29
0
0

> <PUBCHEM_SHAPE_SELFOVERLAP>
371.912

> <PUBCHEM_SHAPE_VOLUME>
108

> <PUBCHEM_COORDINATE_TYPE>
2
5
10

$$$$
