248212
  -OEChem-11012401263D

 25 25  0     0  0  0  0  0  0999 V2000
    1.2467    0.9856    2.1363 S   0  0  0  0  0  0  0  0  0  0  0  0
    2.9770   -0.1906    0.5333 O   0  0  0  0  0  0  0  0  0  0  0  0
   -0.3423    2.3519   -0.7365 O   0  0  0  0  0  0  0  0  0  0  0  0
    1.0485    0.5295   -0.5413 N   0  0  0  0  0  0  0  0  0  0  0  0
   -1.3564    0.2814   -0.2698 C   0  0  0  0  0  0  0  0  0  0  0  0
   -1.1806   -1.0878   -0.0690 C   0  0  0  0  0  0  0  0  0  0  0  0
   -2.6373    0.8328   -0.2332 C   0  0  0  0  0  0  0  0  0  0  0  0
   -2.2855   -1.9056    0.1678 C   0  0  0  0  0  0  0  0  0  0  0  0
   -3.7420    0.0149    0.0038 C   0  0  0  0  0  0  0  0  0  0  0  0
    3.4615   -0.6981   -0.7186 C   0  0  0  0  0  0  0  0  0  0  0  0
   -0.2044    1.1338   -0.5164 C   0  0  0  0  0  0  0  0  0  0  0  0
   -3.5662   -1.3542    0.2043 C   0  0  0  0  0  0  0  0  0  0  0  0
    4.8298   -1.3100   -0.5063 C   0  0  0  0  0  0  0  0  0  0  0  0
    1.7513    0.4162    0.5455 C   0  0  0  0  0  0  0  0  0  0  0  0
   -0.2034   -1.5606   -0.0973 H   0  0  0  0  0  0  0  0  0  0  0  0
   -2.8003    1.8965   -0.3856 H   0  0  0  0  0  0  0  0  0  0  0  0
    2.7706   -1.4611   -1.0941 H   0  0  0  0  0  0  0  0  0  0  0  0
    3.5334    0.1215   -1.4422 H   0  0  0  0  0  0  0  0  0  0  0  0
   -2.1493   -2.9720    0.3221 H   0  0  0  0  0  0  0  0  0  0  0  0
   -4.7394    0.4438    0.0324 H   0  0  0  0  0  0  0  0  0  0  0  0
   -4.4265   -1.9910    0.3884 H   0  0  0  0  0  0  0  0  0  0  0  0
    5.2298   -1.7082   -1.4429 H   0  0  0  0  0  0  0  0  0  0  0  0
    5.5281   -0.5646   -0.1117 H   0  0  0  0  0  0  0  0  0  0  0  0
    4.7798   -2.1193    0.2295 H   0  0  0  0  0  0  0  0  0  0  0  0
    2.3399    0.5860    2.8021 H   0  0  0  0  0  0  0  0  0  0  0  0
  1 14  1  0  0  0  0
  1 25  1  0  0  0  0
  2 10  1  0  0  0  0
  2 14  1  0  0  0  0
  3 11  2  0  0  0  0
  4 11  1  0  0  0  0
  4 14  2  0  0  0  0
  5  6  2  0  0  0  0
  5  7  1  0  0  0  0
  5 11  1  0  0  0  0
  6  8  1  0  0  0  0
  6 15  1  0  0  0  0
  7  9  2  0  0  0  0
  7 16  1  0  0  0  0
  8 12  2  0  0  0  0
  8 19  1  0  0  0  0
  9 12  1  0  0  0  0
  9 20  1  0  0  0  0
 10 13  1  0  0  0  0
 10 17  1  0  0  0  0
 10 18  1  0  0  0  0
 12 21  1  0  0  0  0
 13 22  1  0  0  0  0
 13 23  1  0  0  0  0
 13 24  1  0  0  0  0
M  END
> <PUBCHEM_COMPOUND_CID>
248212

> <PUBCHEM_CONFORMER_RMSD>
0.6

> <PUBCHEM_CONFORMER_DIVERSEORDER>
1
32
27
29
15
24
23
7
11
18
9
37
21
25
20
19
8
35
34
33
16
31
13
22
26
4
5
30
2
17
14
28
10
6
12
36
3

> <PUBCHEM_MMFF94_PARTIAL_CHARGES>
19
1 -0.32
10 0.28
11 0.69
12 -0.15
14 0.74
15 0.15
16 0.15
19 0.15
2 -0.43
20 0.15
21 0.15
25 0.18
3 -0.57
4 -0.66
5 0.09
6 -0.15
7 -0.15
8 -0.15
9 -0.15

> <PUBCHEM_EFFECTIVE_ROTOR_COUNT>
4

> <PUBCHEM_PHARMACOPHORE_FEATURES>
3
1 3 acceptor
1 4 donor
6 5 6 7 8 9 12 rings

> <PUBCHEM_HEAVY_ATOM_COUNT>
14

> <PUBCHEM_ATOM_DEF_STEREO_COUNT>
0

> <PUBCHEM_ATOM_UDEF_STEREO_COUNT>
0

> <PUBCHEM_BOND_DEF_STEREO_COUNT>
0

> <PUBCHEM_BOND_UDEF_STEREO_COUNT>
0

> <PUBCHEM_ISOTOPIC_ATOM_COUNT>
0

> <PUBCHEM_COMPONENT_COUNT>
1

> <PUBCHEM_CACTVS_TAUTO_COUNT>
3

> <PUBCHEM_CONFORMER_ID>
0003C99400000001

> <PUBCHEM_MMFF94_ENERGY>
37.132

> <PUBCHEM_FEATURE_SELFOVERLAP>
15.223

> <PUBCHEM_SHAPE_FINGERPRINT>
10465860 250 17917428688294554682
10465860 71 17967816067373371796
10751810 167 17385720301093191047
12006461 19 18341614866431116827
12032990 46 18408608084347238247
12186901 62 18041276552391207229
124424 183 17560799901123173249
12507560 18 17845939511450130859
12932764 1 16951110868178083709
13296908 3 18336541715495802781
14993402 34 18113613491460723823
15375462 175 18189038824699533344
15375462 478 15410900647319586514
16752209 62 17896861215195565789
16945 1 18115291376443560749
17804303 29 18343305876870673883
17834074 16 18342176644259360598
18186145 218 15791737442276953788
20281407 28 18411983550821863714
20374829 77 18408884023201034958
20645477 70 17754730864873139255
20711983 138 18273495675920327977
20871998 22 18336545031258261972
20871999 31 18040997327850765599
21061003 4 17346595253623812232
22169311 14 17846500361291177051
228727 97 16950280676753902208
23175994 123 17489592229678907296
23382010 3 15719966855128416676
23552423 10 17463692348850408781
23559900 14 18410851049951246300
305870 269 11383850245969421700
328317 168 9367343708683143835
3286 77 17561077051109832835
449060 23 18260546740412358462
53748568 43 17023178301748567043
7364860 26 18049726509667685389

> <PUBCHEM_SHAPE_MULTIPOLES>
275.24
7.3
1.84
1.17
4.72
0.05
0.61
-4.23
-0.59
-0.27
-0.05
0.6
0.55
0.95

> <PUBCHEM_SHAPE_SELFOVERLAP>
553.507

> <PUBCHEM_SHAPE_VOLUME>
162.7

> <PUBCHEM_COORDINATE_TYPE>
2
5
10

$$$$
