139033
  -OEChem-11012401253D

 27 29  0     0  0  0  0  0  0999 V2000
    0.7985   -1.2243    0.0647 N   0  0  0  0  0  0  0  0  0  0  0  0
    1.4105   -2.4153    0.1231 N   0  0  0  0  0  0  0  0  0  0  0  0
   -0.8014   -2.6881    0.0651 N   0  0  0  0  0  0  0  0  0  0  0  0
    0.4269   -3.3067    0.1234 N   0  0  0  0  0  0  0  0  0  0  0  0
   -0.5480   -1.4002    0.0299 C   0  0  0  0  0  0  0  0  0  0  0  0
    1.5223   -0.0375    0.0459 C   0  0  0  0  0  0  0  0  0  0  0  0
   -1.5202   -0.3365   -0.0355 C   0  0  0  0  0  0  0  0  0  0  0  0
    0.9704    1.1159    0.5941 C   0  0  0  0  0  0  0  0  0  0  0  0
    2.7940   -0.0133   -0.5180 C   0  0  0  0  0  0  0  0  0  0  0  0
   -2.0269    0.2177    1.1401 C   0  0  0  0  0  0  0  0  0  0  0  0
   -1.9540    0.1377   -1.2736 C   0  0  0  0  0  0  0  0  0  0  0  0
    1.6976    2.3061    0.5782 C   0  0  0  0  0  0  0  0  0  0  0  0
    3.5212    1.1769   -0.5336 C   0  0  0  0  0  0  0  0  0  0  0  0
   -2.9677    1.2456    1.0776 C   0  0  0  0  0  0  0  0  0  0  0  0
   -2.8948    1.1658   -1.3358 C   0  0  0  0  0  0  0  0  0  0  0  0
    2.9730    2.3366    0.0145 C   0  0  0  0  0  0  0  0  0  0  0  0
   -3.4015    1.7197   -0.1603 C   0  0  0  0  0  0  0  0  0  0  0  0
    0.0640    1.1587    1.1653 H   0  0  0  0  0  0  0  0  0  0  0  0
    3.2433   -0.8987   -0.9604 H   0  0  0  0  0  0  0  0  0  0  0  0
   -1.7102   -0.1491    2.1141 H   0  0  0  0  0  0  0  0  0  0  0  0
   -1.5683   -0.2836   -2.1989 H   0  0  0  0  0  0  0  0  0  0  0  0
    1.2846    3.2027    1.0315 H   0  0  0  0  0  0  0  0  0  0  0  0
    4.5142    1.2013   -0.9731 H   0  0  0  0  0  0  0  0  0  0  0  0
   -3.3645    1.6751    1.9929 H   0  0  0  0  0  0  0  0  0  0  0  0
   -3.2326    1.5351   -2.2997 H   0  0  0  0  0  0  0  0  0  0  0  0
    3.5420    3.2617    0.0081 H   0  0  0  0  0  0  0  0  0  0  0  0
   -4.1343    2.5198   -0.2089 H   0  0  0  0  0  0  0  0  0  0  0  0
  1  2  1  0  0  0  0
  1  5  1  0  0  0  0
  1  6  1  0  0  0  0
  2  4  2  0  0  0  0
  3  4  1  0  0  0  0
  3  5  2  0  0  0  0
  5  7  1  0  0  0  0
  6  8  2  0  0  0  0
  6  9  1  0  0  0  0
  7 10  2  0  0  0  0
  7 11  1  0  0  0  0
  8 12  1  0  0  0  0
  8 18  1  0  0  0  0
  9 13  2  0  0  0  0
  9 19  1  0  0  0  0
 10 14  1  0  0  0  0
 10 20  1  0  0  0  0
 11 15  2  0  0  0  0
 11 21  1  0  0  0  0
 12 16  2  0  0  0  0
 12 22  1  0  0  0  0
 13 16  1  0  0  0  0
 13 23  1  0  0  0  0
 14 17  2  0  0  0  0
 14 24  1  0  0  0  0
 15 17  1  0  0  0  0
 15 25  1  0  0  0  0
 16 26  1  0  0  0  0
 17 27  1  0  0  0  0
M  END
> <PUBCHEM_COMPOUND_CID>
139033

> <PUBCHEM_CONFORMER_RMSD>
0.6

> <PUBCHEM_CONFORMER_DIVERSEORDER>
1
3
2

> <PUBCHEM_MMFF94_PARTIAL_CHARGES>
26
1 0.59
10 -0.15
11 -0.15
12 -0.15
13 -0.15
14 -0.15
15 -0.15
16 -0.15
17 -0.15
18 0.15
19 0.15
2 -0.42
20 0.15
21 0.15
22 0.15
23 0.15
24 0.15
25 0.15
26 0.15
27 0.15
3 -0.34
5 0.13
6 -0.02
7 0.05
8 -0.15
9 -0.15

> <PUBCHEM_EFFECTIVE_ROTOR_COUNT>
2

> <PUBCHEM_PHARMACOPHORE_FEATURES>
4
3 1 3 5 cation
5 1 2 3 4 5 rings
6 6 8 9 12 13 16 rings
6 7 10 11 14 15 17 rings

> <PUBCHEM_HEAVY_ATOM_COUNT>
17

> <PUBCHEM_ATOM_DEF_STEREO_COUNT>
0

> <PUBCHEM_ATOM_UDEF_STEREO_COUNT>
0

> <PUBCHEM_BOND_DEF_STEREO_COUNT>
0

> <PUBCHEM_BOND_UDEF_STEREO_COUNT>
0

> <PUBCHEM_ISOTOPIC_ATOM_COUNT>
0

> <PUBCHEM_COMPONENT_COUNT>
1

> <PUBCHEM_CACTVS_TAUTO_COUNT>
1

> <PUBCHEM_CONFORMER_ID>
00021F1900000001

> <PUBCHEM_MMFF94_ENERGY>
59.0444

> <PUBCHEM_FEATURE_SELFOVERLAP>
20.297

> <PUBCHEM_SHAPE_FINGERPRINT>
10165383 225 18190767321440226269
11725454 13 16735198601827388653
12173636 292 18339646762345578421
12730499 353 18335704902049858401
13009979 54 17271157619124420251
13140716 1 18410008845112914434
13294875 104 18340468020496039408
13583140 156 17096632383139664272
14386348 128 18335150829113408092
14817 1 9195220656807601393
15309172 13 18335423486590792661
15490181 7 18336828705358630442
15775835 57 18342176648438348445
16945 1 18266740190463751608
17134986 127 18408599266626548308
17357990 137 17415287126615699785
1813 80 17194330274556900231
18186145 218 18341903999751228292
18219364 16 18408895039617998113
20510252 161 17979916343123985266
21041028 32 17545891425214093793
21524375 3 18334572468717036858
21639500 275 18265884775102757949
23175994 123 17614287662891264495
2334 1 18267583692155380008
23419403 2 17321601086439677466
23557571 272 17546173360190233300
23598291 2 17772182016912510741
238 59 17973972138678232205
25 1 18410859823920676476
2748010 2 18267592475479479832
31174 14 18119263761630860425
350125 39 18337115664934738018
474 4 18339638932741309201
549884 4 17989481926819315809
5845 1 9871203798398642907
63268167 104 18270115695683006985
6442390 28 18265912400385432707
7364860 26 18194401095690021199
74978 22 18339640169771063688
77492 1 17559102178145123841
81228 2 17687467179537816890
8272917 22 18197225737431682625
84936 182 18200300040108741249
9981440 41 16840475946755024680

> <PUBCHEM_SHAPE_MULTIPOLES>
329.93
5.41
3.12
1.04
0.33
2.29
0.11
-4.24
0.73
0.87
-0.31
-0.73
-0.34
0.13

> <PUBCHEM_SHAPE_SELFOVERLAP>
730.17

> <PUBCHEM_SHAPE_VOLUME>
177.6

> <PUBCHEM_COORDINATE_TYPE>
2
5
10

$$$$
