16829
  -OEChem-11012400543D

 40 42  0     1  0  0  0  0  0999 V2000
   -0.3008    2.6311    1.2477 O   0  0  0  0  0  0  0  0  0  0  0  0
    0.3007   -2.6287    1.2520 O   0  0  0  0  0  0  0  0  0  0  0  0
    1.0655    0.7844    1.1030 N   0  0  0  0  0  0  0  0  0  0  0  0
   -1.0656   -0.7822    1.1044 N   0  0  0  0  0  0  0  0  0  0  0  0
    1.2775   -0.5316    0.5185 C   0  0  1  0  0  0  0  0  0  0  0  0
   -1.2775    0.5329    0.5176 C   0  0  1  0  0  0  0  0  0  0  0  0
    2.6515   -1.0775    0.8721 C   0  0  0  0  0  0  0  0  0  0  0  0
   -2.6516    1.0791    0.8702 C   0  0  0  0  0  0  0  0  0  0  0  0
   -0.1595    1.4300    1.0308 C   0  0  0  0  0  0  0  0  0  0  0  0
    0.1594   -1.4280    1.0332 C   0  0  0  0  0  0  0  0  0  0  0  0
    3.7306   -0.4873    0.0022 C   0  0  0  0  0  0  0  0  0  0  0  0
   -3.7306    0.4873    0.0013 C   0  0  0  0  0  0  0  0  0  0  0  0
    4.0684   -1.1164   -1.1874 C   0  0  0  0  0  0  0  0  0  0  0  0
   -4.0684    1.1142   -1.1893 C   0  0  0  0  0  0  0  0  0  0  0  0
    4.3706    0.6762    0.4039 C   0  0  0  0  0  0  0  0  0  0  0  0
   -4.3705   -0.6756    0.4050 C   0  0  0  0  0  0  0  0  0  0  0  0
    5.0677   -0.5700   -1.9926 C   0  0  0  0  0  0  0  0  0  0  0  0
   -5.0677    0.5664   -1.9936 C   0  0  0  0  0  0  0  0  0  0  0  0
    5.3699    1.2225   -0.4013 C   0  0  0  0  0  0  0  0  0  0  0  0
   -5.3697   -1.2235   -0.3994 C   0  0  0  0  0  0  0  0  0  0  0  0
    5.7185    0.5995   -1.5998 C   0  0  0  0  0  0  0  0  0  0  0  0
   -5.7183   -0.6026   -1.5987 C   0  0  0  0  0  0  0  0  0  0  0  0
    1.1482   -0.4423   -0.5679 H   0  0  0  0  0  0  0  0  0  0  0  0
   -1.1481    0.4417   -0.5686 H   0  0  0  0  0  0  0  0  0  0  0  0
    2.8858   -0.9009    1.9308 H   0  0  0  0  0  0  0  0  0  0  0  0
    2.6837   -2.1685    0.7522 H   0  0  0  0  0  0  0  0  0  0  0  0
   -2.8859    0.9042    1.9293 H   0  0  0  0  0  0  0  0  0  0  0  0
   -2.6840    2.1699    0.7485 H   0  0  0  0  0  0  0  0  0  0  0  0
    1.8672    1.3400    1.3831 H   0  0  0  0  0  0  0  0  0  0  0  0
   -1.8672   -1.3372    1.3854 H   0  0  0  0  0  0  0  0  0  0  0  0
    3.5661   -2.0262   -1.5038 H   0  0  0  0  0  0  0  0  0  0  0  0
   -3.5663    2.0235   -1.5074 H   0  0  0  0  0  0  0  0  0  0  0  0
    4.1172    1.1664    1.3392 H   0  0  0  0  0  0  0  0  0  0  0  0
   -4.1171   -1.1641    1.3412 H   0  0  0  0  0  0  0  0  0  0  0  0
    5.3388   -1.0549   -2.9260 H   0  0  0  0  0  0  0  0  0  0  0  0
   -5.3388    1.0495   -2.9278 H   0  0  0  0  0  0  0  0  0  0  0  0
    5.8784    2.1318   -0.0943 H   0  0  0  0  0  0  0  0  0  0  0  0
   -5.8780   -2.1324   -0.0907 H   0  0  0  0  0  0  0  0  0  0  0  0
    6.4968    1.0247   -2.2266 H   0  0  0  0  0  0  0  0  0  0  0  0
   -6.4965   -1.0290   -2.2248 H   0  0  0  0  0  0  0  0  0  0  0  0
  1  9  2  0  0  0  0
  2 10  2  0  0  0  0
  3  5  1  0  0  0  0
  3  9  1  0  0  0  0
  3 29  1  0  0  0  0
  4  6  1  0  0  0  0
  4 10  1  0  0  0  0
  4 30  1  0  0  0  0
  5  7  1  0  0  0  0
  5 10  1  0  0  0  0
  5 23  1  0  0  0  0
  6  8  1  0  0  0  0
  6  9  1  0  0  0  0
  6 24  1  0  0  0  0
  7 11  1  0  0  0  0
  7 25  1  0  0  0  0
  7 26  1  0  0  0  0
  8 12  1  0  0  0  0
  8 27  1  0  0  0  0
  8 28  1  0  0  0  0
 11 13  2  0  0  0  0
 11 15  1  0  0  0  0
 12 14  2  0  0  0  0
 12 16  1  0  0  0  0
 13 17  1  0  0  0  0
 13 31  1  0  0  0  0
 14 18  1  0  0  0  0
 14 32  1  0  0  0  0
 15 19  2  0  0  0  0
 15 33  1  0  0  0  0
 16 20  2  0  0  0  0
 16 34  1  0  0  0  0
 17 21  2  0  0  0  0
 17 35  1  0  0  0  0
 18 22  2  0  0  0  0
 18 36  1  0  0  0  0
 19 21  1  0  0  0  0
 19 37  1  0  0  0  0
 20 22  1  0  0  0  0
 20 38  1  0  0  0  0
 21 39  1  0  0  0  0
 22 40  1  0  0  0  0
M  END
> <PUBCHEM_COMPOUND_CID>
16829

> <PUBCHEM_CONFORMER_RMSD>
0.8

> <PUBCHEM_CONFORMER_DIVERSEORDER>
1
26
39
49
45
27
9
25
41
30
17
24
50
31
12
40
13
34
20
52
47
53
32
18
2
15
37
51
28
22
54
14
38
10
5
19
35
21
33
4
8
46
43
3
7
42
16
11
44
29
48
6
23
36

> <PUBCHEM_MMFF94_PARTIAL_CHARGES>
34
1 -0.57
10 0.57
11 -0.14
12 -0.14
13 -0.15
14 -0.15
15 -0.15
16 -0.15
17 -0.15
18 -0.15
19 -0.15
2 -0.57
20 -0.15
21 -0.15
22 -0.15
29 0.37
3 -0.73
30 0.37
31 0.15
32 0.15
33 0.15
34 0.15
35 0.15
36 0.15
37 0.15
38 0.15
39 0.15
4 -0.73
40 0.15
5 0.36
6 0.36
7 0.14
8 0.14
9 0.57

> <PUBCHEM_EFFECTIVE_ROTOR_COUNT>
4.8

> <PUBCHEM_PHARMACOPHORE_FEATURES>
7
1 1 acceptor
1 2 acceptor
1 3 donor
1 4 donor
6 11 13 15 17 19 21 rings
6 12 14 16 18 20 22 rings
6 3 4 5 6 9 10 rings

> <PUBCHEM_HEAVY_ATOM_COUNT>
22

> <PUBCHEM_ATOM_DEF_STEREO_COUNT>
0

> <PUBCHEM_ATOM_UDEF_STEREO_COUNT>
2

> <PUBCHEM_BOND_DEF_STEREO_COUNT>
0

> <PUBCHEM_BOND_UDEF_STEREO_COUNT>
0

> <PUBCHEM_ISOTOPIC_ATOM_COUNT>
0

> <PUBCHEM_COMPONENT_COUNT>
1

> <PUBCHEM_CACTVS_TAUTO_COUNT>
3

> <PUBCHEM_CONFORMER_ID>
000041BD00000001

> <PUBCHEM_MMFF94_ENERGY>
71.8309

> <PUBCHEM_FEATURE_SELFOVERLAP>
35.531

> <PUBCHEM_SHAPE_FINGERPRINT>
10042902 136 16199854181207484517
10319926 262 11527954499607129141
10498660 4 18260840306260045232
10692045 39 12396287150317770432
10763959 59 16443072664758571382
11089746 13 14996280331871562336
11128504 68 18272654545419931532
11763715 3 16056339305132243176
117890 112 15068341220064997540
11796584 16 15051739650831425797
11961588 58 17676483994700037858
12670546 177 18410575071778177319
12969540 114 18335141998718533290
13103583 49 12751239233537483647
13583140 156 16515980258114185576
1361 2 17703789271292307860
13911987 19 18334020505279071331
14251732 14 17846780719222930439
14251757 5 18270398429133336223
14251764 30 15697999638922756695
14251764 38 15647055940929582198
14466204 15 11097846389702103311
14528608 73 18113898255981528174
14739800 52 15140947483148351652
14767858 380 18410293635514201036
14951699 99 11314615128867434462
15209294 21 12396302560353778337
15463212 79 15719388443646281995
15475509 35 14405174080032818167
173720 79 17749376092810667434
17844677 252 15626504990527478482
1813 80 16271928233275513513
18222031 100 17561072610029415249
193927 3 17417807357648309903
20567600 247 16487252166621413990
20775438 99 17557961091112967718
21475661 188 14707218750667375500
21637258 2 15769771338441520654
21641784 216 18260833644191626997
22122407 14 14924528423725687956
22393880 68 18339345440741256565
22950370 63 16272211885652501752
23379529 103 17487606653709009975
23522609 53 15553344680810884315
23559900 14 18270401736574418320
2767999 5 15863787304957024268
2838139 119 16370441159282461660
2916195 48 14345800448170125821
33382 64 15913613865014179974
3472631 163 15430310301069228063
34797466 226 18260838115220043679
351380 3 15841551872739681135
3737641 26 15553900887660362990
465052 167 13254799062047276956
5207 217 18040436628745258131
56616090 284 18273222975857312434
58807428 26 8502654800853084632
6669772 16 17627503071171672512
7237137 82 18115031930138528691
7970288 3 14117250408234081924
79837 15 8141785197671319057
8217 86 18339080510021261831
8863177 126 14332829556615195151

> <PUBCHEM_SHAPE_MULTIPOLES>
431.05
14.58
1.84
1.78
0
0
-0.74
-0.02
-10.54
0
0.71
0
0
0.11

> <PUBCHEM_SHAPE_SELFOVERLAP>
927.924

> <PUBCHEM_SHAPE_VOLUME>
234.3

> <PUBCHEM_COORDINATE_TYPE>
2
5
10

$$$$
