136568
  -OEChem-10312420412D

 18 17  0     0  0  0  0  0  0999 V2000
    2.8660    0.0000    0.0000 Sn  0  0  0  0  0  0  0  0  0  0  0  0
    2.0000   -0.5000    0.0000 C   0  0  0  0  0  0  0  0  0  0  0  0
    2.3660    0.8660    0.0000 C   0  0  0  0  0  0  0  0  0  0  0  0
    3.3660   -0.8660    0.0000 C   0  0  0  0  0  0  0  0  0  0  0  0
    3.7320    0.5000    0.0000 C   0  0  0  0  0  0  0  0  0  0  0  0
    4.5981    0.0000    0.0000 C   0  0  0  0  0  0  0  0  0  0  0  0
    1.6900    0.0369    0.0000 H   0  0  0  0  0  0  0  0  0  0  0  0
    1.4631   -0.8100    0.0000 H   0  0  0  0  0  0  0  0  0  0  0  0
    2.3100   -1.0369    0.0000 H   0  0  0  0  0  0  0  0  0  0  0  0
    2.9030    1.1760    0.0000 H   0  0  0  0  0  0  0  0  0  0  0  0
    2.0560    1.4030    0.0000 H   0  0  0  0  0  0  0  0  0  0  0  0
    1.8291    0.5560    0.0000 H   0  0  0  0  0  0  0  0  0  0  0  0
    2.8291   -1.1760    0.0000 H   0  0  0  0  0  0  0  0  0  0  0  0
    3.6760   -1.4030    0.0000 H   0  0  0  0  0  0  0  0  0  0  0  0
    3.9030   -0.5560    0.0000 H   0  0  0  0  0  0  0  0  0  0  0  0
    3.7320    1.1200    0.0000 H   0  0  0  0  0  0  0  0  0  0  0  0
    4.5981   -0.6200    0.0000 H   0  0  0  0  0  0  0  0  0  0  0  0
    5.1350    0.3100    0.0000 H   0  0  0  0  0  0  0  0  0  0  0  0
  1  2  1  0  0  0  0
  1  3  1  0  0  0  0
  1  4  1  0  0  0  0
  1  5  1  0  0  0  0
  2  7  1  0  0  0  0
  2  8  1  0  0  0  0
  2  9  1  0  0  0  0
  3 10  1  0  0  0  0
  3 11  1  0  0  0  0
  3 12  1  0  0  0  0
  4 13  1  0  0  0  0
  4 14  1  0  0  0  0
  4 15  1  0  0  0  0
  5  6  2  0  0  0  0
  5 16  1  0  0  0  0
  6 17  1  0  0  0  0
  6 18  1  0  0  0  0
M  END
> <PUBCHEM_COMPOUND_CID>
136568

> <PUBCHEM_COMPOUND_CANONICALIZED>
1

> <PUBCHEM_CACTVS_COMPLEXITY>
49.4

> <PUBCHEM_CACTVS_HBOND_ACCEPTOR>
0

> <PUBCHEM_CACTVS_HBOND_DONOR>
0

> <PUBCHEM_CACTVS_ROTATABLE_BOND>
1

> <PUBCHEM_CACTVS_SUBSKEYS>
AAADccBgAAAAAAAAAACAAAAAAAAAAAAAAAAAAAAAAAAAAAAAAAAAGAAAAAAAAACAAAACAAAAAACAAAACAAAAAAAAAAAIAAAAAAAAAAAAAAAAAAAAAAAAAAAAAAAAAAAAAAAAAAAAAAAAAAAAAAAAAAAAAA==

> <PUBCHEM_IUPAC_OPENEYE_NAME>
trimethyl(vinyl)stannane

> <PUBCHEM_IUPAC_CAS_NAME>
ethenyl(trimethyl)stannane

> <PUBCHEM_IUPAC_NAME_MARKUP>
ethenyl(trimethyl)stannane

> <PUBCHEM_IUPAC_NAME>
ethenyl(trimethyl)stannane

> <PUBCHEM_IUPAC_SYSTEMATIC_NAME>
ethenyl(trimethyl)stannane

> <PUBCHEM_IUPAC_TRADITIONAL_NAME>
trimethyl(vinyl)stannane

> <PUBCHEM_IUPAC_INCHI>
InChI=1S/C2H3.3CH3.Sn/c1-2;;;;/h1H,2H2;3*1H3;

> <PUBCHEM_IUPAC_INCHIKEY>
SKCMXSHCLAODMQ-UHFFFAOYSA-N

> <PUBCHEM_EXACT_MASS>
191.996103

> <PUBCHEM_MOLECULAR_FORMULA>
C5H12Sn

> <PUBCHEM_MOLECULAR_WEIGHT>
190.86

> <PUBCHEM_OPENEYE_CAN_SMILES>
C[Sn](C)(C)C=C

> <PUBCHEM_OPENEYE_ISO_SMILES>
C[Sn](C)(C)C=C

> <PUBCHEM_CACTVS_TPSA>
0

> <PUBCHEM_MONOISOTOPIC_WEIGHT>
191.996103

> <PUBCHEM_TOTAL_CHARGE>
0

> <PUBCHEM_HEAVY_ATOM_COUNT>
6

> <PUBCHEM_ATOM_DEF_STEREO_COUNT>
0

> <PUBCHEM_ATOM_UDEF_STEREO_COUNT>
0

> <PUBCHEM_BOND_DEF_STEREO_COUNT>
0

> <PUBCHEM_BOND_UDEF_STEREO_COUNT>
0

> <PUBCHEM_ISOTOPIC_ATOM_COUNT>
0

> <PUBCHEM_COMPONENT_COUNT>
1

> <PUBCHEM_CACTVS_TAUTO_COUNT>
-1

> <PUBCHEM_COORDINATE_TYPE>
1
5
255

$$$$
