140042
  -OEChem-11012400513D

 28 28  0     0  0  0  0  0  0999 V2000
   -1.0441   -0.8456   -0.0025 S   0  0  0  0  0  0  0  0  0  0  0  0
   -1.3039   -1.5256   -1.2611 O   0  0  0  0  0  0  0  0  0  0  0  0
   -1.2828   -1.5401    1.2526 O   0  0  0  0  0  0  0  0  0  0  0  0
    0.6617   -0.3681   -0.0012 C   0  0  0  0  0  0  0  0  0  0  0  0
   -1.8458    0.6740    0.0027 C   0  0  0  0  0  0  0  0  0  0  0  0
    1.3094   -0.1909    1.2071 C   0  0  0  0  0  0  0  0  0  0  0  0
    1.3084   -0.1834   -1.2087 C   0  0  0  0  0  0  0  0  0  0  0  0
    3.3239    0.3765    0.0002 C   0  0  0  0  0  0  0  0  0  0  0  0
   -3.1871    0.7515    0.0032 C   0  0  0  0  0  0  0  0  0  0  0  0
    2.6527    0.1850    1.2079 C   0  0  0  0  0  0  0  0  0  0  0  0
    2.6518    0.1923   -1.2082 C   0  0  0  0  0  0  0  0  0  0  0  0
   -3.8549    2.1024    0.0073 C   0  0  0  0  0  0  0  0  0  0  0  0
   -4.1498   -0.4048    0.0000 C   0  0  0  0  0  0  0  0  0  0  0  0
    4.7605    0.7768    0.0008 C   0  0  0  0  0  0  0  0  0  0  0  0
   -1.2452    1.5781    0.0053 H   0  0  0  0  0  0  0  0  0  0  0  0
    0.8024   -0.3279    2.1571 H   0  0  0  0  0  0  0  0  0  0  0  0
    0.8003   -0.3153   -2.1589 H   0  0  0  0  0  0  0  0  0  0  0  0
    3.1656    0.3251    2.1558 H   0  0  0  0  0  0  0  0  0  0  0  0
    3.1641    0.3381   -2.1555 H   0  0  0  0  0  0  0  0  0  0  0  0
   -4.4855    2.2160   -0.8807 H   0  0  0  0  0  0  0  0  0  0  0  0
   -3.1329    2.9260    0.0086 H   0  0  0  0  0  0  0  0  0  0  0  0
   -4.4836    2.2116    0.8972 H   0  0  0  0  0  0  0  0  0  0  0  0
   -4.7959   -0.3532    0.8830 H   0  0  0  0  0  0  0  0  0  0  0  0
   -3.6776   -1.3884    0.0062 H   0  0  0  0  0  0  0  0  0  0  0  0
   -4.7851   -0.3574   -0.8910 H   0  0  0  0  0  0  0  0  0  0  0  0
    5.0028    1.3781    0.8837 H   0  0  0  0  0  0  0  0  0  0  0  0
    5.3983   -0.1127   -0.0038 H   0  0  0  0  0  0  0  0  0  0  0  0
    5.0013    1.3860   -0.8771 H   0  0  0  0  0  0  0  0  0  0  0  0
  1  2  2  0  0  0  0
  1  3  2  0  0  0  0
  1  4  1  0  0  0  0
  1  5  1  0  0  0  0
  4  6  2  0  0  0  0
  4  7  1  0  0  0  0
  5  9  2  0  0  0  0
  5 15  1  0  0  0  0
  6 10  1  0  0  0  0
  6 16  1  0  0  0  0
  7 11  2  0  0  0  0
  7 17  1  0  0  0  0
  8 10  2  0  0  0  0
  8 11  1  0  0  0  0
  8 14  1  0  0  0  0
  9 12  1  0  0  0  0
  9 13  1  0  0  0  0
 10 18  1  0  0  0  0
 11 19  1  0  0  0  0
 12 20  1  0  0  0  0
 12 21  1  0  0  0  0
 12 22  1  0  0  0  0
 13 23  1  0  0  0  0
 13 24  1  0  0  0  0
 13 25  1  0  0  0  0
 14 26  1  0  0  0  0
 14 27  1  0  0  0  0
 14 28  1  0  0  0  0
M  END
> <PUBCHEM_COMPOUND_CID>
140042

> <PUBCHEM_CONFORMER_RMSD>
0.6

> <PUBCHEM_CONFORMER_DIVERSEORDER>
1
2
3

> <PUBCHEM_MMFF94_PARTIAL_CHARGES>
19
1 1.33
10 -0.15
11 -0.15
12 0.14
13 0.14
14 0.14
15 0.15
16 0.15
17 0.15
18 0.15
19 0.15
2 -0.65
3 -0.65
4 -0.01
5 -0.17
6 -0.15
7 -0.15
8 -0.14
9 -0.28

> <PUBCHEM_EFFECTIVE_ROTOR_COUNT>
2

> <PUBCHEM_PHARMACOPHORE_FEATURES>
4
1 2 acceptor
1 3 acceptor
3 9 12 13 hydrophobe
6 4 6 7 8 10 11 rings

> <PUBCHEM_HEAVY_ATOM_COUNT>
14

> <PUBCHEM_ATOM_DEF_STEREO_COUNT>
0

> <PUBCHEM_ATOM_UDEF_STEREO_COUNT>
0

> <PUBCHEM_BOND_DEF_STEREO_COUNT>
0

> <PUBCHEM_BOND_UDEF_STEREO_COUNT>
0

> <PUBCHEM_ISOTOPIC_ATOM_COUNT>
0

> <PUBCHEM_COMPONENT_COUNT>
1

> <PUBCHEM_CACTVS_TAUTO_COUNT>
1

> <PUBCHEM_CONFORMER_ID>
0002230A00000001

> <PUBCHEM_MMFF94_ENERGY>
21.0884

> <PUBCHEM_FEATURE_SELFOVERLAP>
20.315

> <PUBCHEM_SHAPE_FINGERPRINT>
10465860 228 17970065535183326137
10498660 4 18270398274693744185
10980938 120 16805322167390693346
11046707 91 9295282842080615769
12138202 97 17775560961619673103
122479 349 18409451388164415761
12251169 10 15936414441844530729
124424 183 17775288261931034786
12500047 106 18131346436431713894
13288520 33 9943538414154791608
13296908 3 10809638021051979997
13538477 17 17822013163435413483
13764800 53 18335714835865784505
14252887 29 15140676947859051328
14911166 2 15985108535337949476
14943859 89 18413670218516994394
15309172 13 16515683342529351459
15775835 57 18334856074213745761
18186145 218 16487248859739078147
20201158 50 16486978396947783710
20233049 118 18411134714918575664
20279233 1 17561370603766740486
20281475 54 9583516525298973745
20645477 56 18059855107739946320
20645477 70 16702034049757583782
20671657 53 11455881468886916851
21119208 17 13542465358278823873
21256008 61 13254792439212857936
22926399 65 18342738502995702640
231179 274 17918273164880377632
23402539 116 18201148893017994100
23402655 69 15410905015485988409
23557571 272 18131355253603745053
23559900 14 17346601881396692462
25 1 16988566770922929999
26918003 58 13840268083010295053
2748010 2 15696296624798556898
276578 36 18115028493779037523
3268164 11 18343009004932183741
4028521 119 17989203707649368113
474 4 17242460644886454132
77492 1 17676485068405055183

> <PUBCHEM_SHAPE_MULTIPOLES>
280.22
8.02
1.4
1.2
0.12
0.2
0
3.56
0.01
-1.54
0
0.62
-0.26
-0.01

> <PUBCHEM_SHAPE_SELFOVERLAP>
561.617

> <PUBCHEM_SHAPE_VOLUME>
166.2

> <PUBCHEM_COORDINATE_TYPE>
2
5
10

$$$$
