136498
  -OEChem-11012401103D

 13 13  0     0  0  0  0  0  0999 V2000
    0.3047   -0.1371   -0.4939 C   0  0  0  0  0  0  0  0  0  0  0  0
    1.5683   -0.5740    0.1665 C   0  0  0  0  0  0  0  0  0  0  0  0
    1.2097    0.8821    0.1114 C   0  0  0  0  0  0  0  0  0  0  0  0
   -0.9699   -0.4255    0.1844 C   0  0  0  0  0  0  0  0  0  0  0  0
   -2.1127    0.2545    0.0315 C   0  0  0  0  0  0  0  0  0  0  0  0
    0.2688   -0.1971   -1.5762 H   0  0  0  0  0  0  0  0  0  0  0  0
    2.3779   -0.9164   -0.4670 H   0  0  0  0  0  0  0  0  0  0  0  0
    1.5257   -1.0637    1.1321 H   0  0  0  0  0  0  0  0  0  0  0  0
    0.9241    1.3634    1.0393 H   0  0  0  0  0  0  0  0  0  0  0  0
    1.7783    1.5154   -0.5592 H   0  0  0  0  0  0  0  0  0  0  0  0
   -0.9847   -1.2796    0.8580 H   0  0  0  0  0  0  0  0  0  0  0  0
   -3.0064   -0.0398    0.5706 H   0  0  0  0  0  0  0  0  0  0  0  0
   -2.1723    1.1113   -0.6306 H   0  0  0  0  0  0  0  0  0  0  0  0
  1  2  1  0  0  0  0
  1  3  1  0  0  0  0
  1  4  1  0  0  0  0
  1  6  1  0  0  0  0
  2  3  1  0  0  0  0
  2  7  1  0  0  0  0
  2  8  1  0  0  0  0
  3  9  1  0  0  0  0
  3 10  1  0  0  0  0
  4  5  2  0  0  0  0
  4 11  1  0  0  0  0
  5 12  1  0  0  0  0
  5 13  1  0  0  0  0
M  END
> <PUBCHEM_COMPOUND_CID>
136498

> <PUBCHEM_CONFORMER_RMSD>
0.4

> <PUBCHEM_CONFORMER_DIVERSEORDER>
1
3
2

> <PUBCHEM_MMFF94_PARTIAL_CHARGES>
13
1 -0.06
10 0.1
11 0.15
12 0.15
13 0.15
2 -0.2
3 -0.2
4 -0.19
5 -0.3
6 0.1
7 0.1
8 0.1
9 0.1

> <PUBCHEM_EFFECTIVE_ROTOR_COUNT>
1.6

> <PUBCHEM_PHARMACOPHORE_FEATURES>
1
1 5 hydrophobe

> <PUBCHEM_HEAVY_ATOM_COUNT>
5

> <PUBCHEM_ATOM_DEF_STEREO_COUNT>
0

> <PUBCHEM_ATOM_UDEF_STEREO_COUNT>
0

> <PUBCHEM_BOND_DEF_STEREO_COUNT>
0

> <PUBCHEM_BOND_UDEF_STEREO_COUNT>
0

> <PUBCHEM_ISOTOPIC_ATOM_COUNT>
0

> <PUBCHEM_COMPONENT_COUNT>
1

> <PUBCHEM_CACTVS_TAUTO_COUNT>
1

> <PUBCHEM_CONFORMER_ID>
0002153200000001

> <PUBCHEM_MMFF94_ENERGY>
7.8117

> <PUBCHEM_FEATURE_SELFOVERLAP>
5.074

> <PUBCHEM_SHAPE_FINGERPRINT>
139733 1 10879698893093801122
20096714 4 18271809089418196968
21040471 1 18339363075243977654
24536 1 17241047716250866751
29004967 10 15864074251875141280
5460574 1 9727636102783770951
5943 1 12781754138461580102

> <PUBCHEM_SHAPE_MULTIPOLES>
102.9
2.5
0.89
0.68
0.94
0.09
0.02
0.12
-0.17
-0.23
-0.03
-0.02
-0.01
0.01

> <PUBCHEM_SHAPE_SELFOVERLAP>
190.466

> <PUBCHEM_SHAPE_VOLUME>
66.6

> <PUBCHEM_COORDINATE_TYPE>
2
5
10

$$$$
