1774581
  -OEChem-11012401233D

 22 22  0     1  0  0  0  0  0999 V2000
   -0.2813   -1.1872   -0.0554 O   0  0  0  0  0  0  0  0  0  0  0  0
   -0.6339    1.5466    1.0447 O   0  0  0  0  0  0  0  0  0  0  0  0
   -3.1140    0.9161    0.0443 O   0  0  0  0  0  0  0  0  0  0  0  0
    2.2233    1.4682   -0.2966 O   0  0  0  0  0  0  0  0  0  0  0  0
    3.8901   -0.6542    0.4389 O   0  0  0  0  0  0  0  0  0  0  0  0
   -2.4341   -1.8595    0.3899 O   0  0  0  0  0  0  0  0  0  0  0  0
    0.3339    0.0138   -0.5623 C   0  0  1  0  0  0  0  0  0  0  0  0
   -0.6971    1.1015   -0.3060 C   0  0  1  0  0  0  0  0  0  0  0  0
   -1.9840    0.3418   -0.5545 C   0  0  1  0  0  0  0  0  0  0  0  0
    1.6748    0.2174    0.1201 C   0  0  1  0  0  0  0  0  0  0  0  0
   -1.6425   -1.0230   -0.0139 C   0  0  0  0  0  0  0  0  0  0  0  0
    2.6647   -0.8817   -0.2492 C   0  0  0  0  0  0  0  0  0  0  0  0
    0.4694   -0.1174   -1.6443 H   0  0  0  0  0  0  0  0  0  0  0  0
   -0.5897    1.9730   -0.9587 H   0  0  0  0  0  0  0  0  0  0  0  0
   -2.1702    0.2283   -1.6286 H   0  0  0  0  0  0  0  0  0  0  0  0
    1.5734    0.2458    1.2109 H   0  0  0  0  0  0  0  0  0  0  0  0
    2.2970   -1.8759    0.0222 H   0  0  0  0  0  0  0  0  0  0  0  0
    2.8900   -0.8705   -1.3204 H   0  0  0  0  0  0  0  0  0  0  0  0
    0.1496    2.1163    1.1287 H   0  0  0  0  0  0  0  0  0  0  0  0
   -2.8985    1.1060    0.9732 H   0  0  0  0  0  0  0  0  0  0  0  0
    2.3152    1.4477   -1.2646 H   0  0  0  0  0  0  0  0  0  0  0  0
    3.7030   -0.6966    1.3923 H   0  0  0  0  0  0  0  0  0  0  0  0
  1  7  1  0  0  0  0
  1 11  1  0  0  0  0
  2  8  1  0  0  0  0
  2 19  1  0  0  0  0
  3  9  1  0  0  0  0
  3 20  1  0  0  0  0
  4 10  1  0  0  0  0
  4 21  1  0  0  0  0
  5 12  1  0  0  0  0
  5 22  1  0  0  0  0
  6 11  2  0  0  0  0
  7  8  1  0  0  0  0
  7 10  1  0  0  0  0
  7 13  1  0  0  0  0
  8  9  1  0  0  0  0
  8 14  1  0  0  0  0
  9 11  1  0  0  0  0
  9 15  1  0  0  0  0
 10 12  1  0  0  0  0
 10 16  1  0  0  0  0
 12 17  1  0  0  0  0
 12 18  1  0  0  0  0
M  END
> <PUBCHEM_COMPOUND_CID>
1774581

> <PUBCHEM_CONFORMER_RMSD>
0.6

> <PUBCHEM_CONFORMER_DIVERSEORDER>
1
5
2
3
4

> <PUBCHEM_MMFF94_PARTIAL_CHARGES>
16
1 -0.43
10 0.28
11 0.66
12 0.28
19 0.4
2 -0.68
20 0.4
21 0.4
22 0.4
3 -0.68
4 -0.68
5 -0.68
6 -0.57
7 0.28
8 0.28
9 0.34

> <PUBCHEM_EFFECTIVE_ROTOR_COUNT>
2.8

> <PUBCHEM_PHARMACOPHORE_FEATURES>
10
1 2 acceptor
1 2 donor
1 3 acceptor
1 3 donor
1 4 acceptor
1 4 donor
1 5 acceptor
1 5 donor
1 6 acceptor
5 1 7 8 9 11 rings

> <PUBCHEM_HEAVY_ATOM_COUNT>
12

> <PUBCHEM_ATOM_DEF_STEREO_COUNT>
4

> <PUBCHEM_ATOM_UDEF_STEREO_COUNT>
0

> <PUBCHEM_BOND_DEF_STEREO_COUNT>
0

> <PUBCHEM_BOND_UDEF_STEREO_COUNT>
0

> <PUBCHEM_ISOTOPIC_ATOM_COUNT>
0

> <PUBCHEM_COMPONENT_COUNT>
1

> <PUBCHEM_CACTVS_TAUTO_COUNT>
6

> <PUBCHEM_CONFORMER_ID>
001B13F500000001

> <PUBCHEM_MMFF94_ENERGY>
20.8727

> <PUBCHEM_FEATURE_SELFOVERLAP>
50.769

> <PUBCHEM_SHAPE_FINGERPRINT>
10130415 120 18341610403986301352
11769659 78 18261106417595652778
12716758 59 18335693949302667209
12932764 1 17167852058937666964
13024252 1 14129348351358380421
13380535 76 18340485548088957479
14128692 85 18187650261851903302
14325111 11 18408885165482669428
15775835 57 17895476929887305994
16945 1 18261945241819540829
19973954 147 18410294743737322980
20201158 50 18342172237427684190
20871998 184 18272652371929531951
21501502 16 18337393854192551229
23235685 24 18340761525169730581
23402539 116 18129649821439344949
23552423 10 18114463456598117214
2748010 2 18338796826729273485
3248919 1 18202568362782420100
369184 2 18409166627521665653
5084963 1 18186522102960996500

> <PUBCHEM_SHAPE_MULTIPOLES>
211.74
4.74
1.62
0.75
2.75
0.1
-0.03
0.85
-0.35
-0.55
-0.2
-0.05
-0.11
0.02

> <PUBCHEM_SHAPE_SELFOVERLAP>
429.723

> <PUBCHEM_SHAPE_VOLUME>
124

> <PUBCHEM_COORDINATE_TYPE>
2
5
10

$$$$
