142291
  -OEChem-11012400383D

 33 32  0     1  0  0  0  0  0999 V2000
   -2.3734   -0.7146   -0.3853 O   0  0  0  0  0  0  0  0  0  0  0  0
   -1.2495    0.0536    0.1312 O   0  0  0  0  0  0  0  0  0  0  0  0
    3.5591    0.0931    0.1956 O   0  0  0  0  0  0  0  0  0  0  0  0
    1.1794    1.3952   -0.3786 O   0  0  0  0  0  0  0  0  0  0  0  0
   -3.5360   -0.0128    0.0565 C   0  0  0  0  0  0  0  0  0  0  0  0
    1.1603    0.0803    0.1817 C   0  0  1  0  0  0  0  0  0  0  0  0
   -3.4970    1.4027   -0.5175 C   0  0  0  0  0  0  0  0  0  0  0  0
   -4.7559   -0.7702   -0.4636 C   0  0  0  0  0  0  0  0  0  0  0  0
   -3.5343    0.0183    1.5842 C   0  0  0  0  0  0  0  0  0  0  0  0
   -0.0907   -0.6414   -0.3063 C   0  0  0  0  0  0  0  0  0  0  0  0
    2.4272   -0.6385   -0.2632 C   0  0  0  0  0  0  0  0  0  0  0  0
    4.7737   -0.5435   -0.1741 C   0  0  0  0  0  0  0  0  0  0  0  0
    5.9370    0.2777    0.3394 C   0  0  0  0  0  0  0  0  0  0  0  0
    1.1357    0.2047    1.2701 H   0  0  0  0  0  0  0  0  0  0  0  0
   -3.3570    1.3782   -1.6043 H   0  0  0  0  0  0  0  0  0  0  0  0
   -4.4266    1.9413   -0.3026 H   0  0  0  0  0  0  0  0  0  0  0  0
   -2.6736    1.9987   -0.1087 H   0  0  0  0  0  0  0  0  0  0  0  0
   -4.7615   -1.8014   -0.0922 H   0  0  0  0  0  0  0  0  0  0  0  0
   -4.7360   -0.8359   -1.5576 H   0  0  0  0  0  0  0  0  0  0  0  0
   -5.6915   -0.2882   -0.1623 H   0  0  0  0  0  0  0  0  0  0  0  0
   -2.7082    0.6124    1.9902 H   0  0  0  0  0  0  0  0  0  0  0  0
   -4.4652    0.4468    1.9714 H   0  0  0  0  0  0  0  0  0  0  0  0
   -3.4241   -0.9924    1.9937 H   0  0  0  0  0  0  0  0  0  0  0  0
   -0.1173   -1.6650    0.0837 H   0  0  0  0  0  0  0  0  0  0  0  0
   -0.1065   -0.6740   -1.4022 H   0  0  0  0  0  0  0  0  0  0  0  0
    2.4667   -0.6915   -1.3580 H   0  0  0  0  0  0  0  0  0  0  0  0
    2.4504   -1.6541    0.1484 H   0  0  0  0  0  0  0  0  0  0  0  0
    4.8129   -1.5489    0.2598 H   0  0  0  0  0  0  0  0  0  0  0  0
    4.8332   -0.6245   -1.2653 H   0  0  0  0  0  0  0  0  0  0  0  0
    1.9903    1.8326   -0.0670 H   0  0  0  0  0  0  0  0  0  0  0  0
    6.8910   -0.1850    0.0715 H   0  0  0  0  0  0  0  0  0  0  0  0
    5.9069    1.2907   -0.0755 H   0  0  0  0  0  0  0  0  0  0  0  0
    5.8868    0.3785    1.4287 H   0  0  0  0  0  0  0  0  0  0  0  0
  1  2  1  0  0  0  0
  1  5  1  0  0  0  0
  2 10  1  0  0  0  0
  3 11  1  0  0  0  0
  3 12  1  0  0  0  0
  4  6  1  0  0  0  0
  4 30  1  0  0  0  0
  5  7  1  0  0  0  0
  5  8  1  0  0  0  0
  5  9  1  0  0  0  0
  6 10  1  0  0  0  0
  6 11  1  0  0  0  0
  6 14  1  0  0  0  0
  7 15  1  0  0  0  0
  7 16  1  0  0  0  0
  7 17  1  0  0  0  0
  8 18  1  0  0  0  0
  8 19  1  0  0  0  0
  8 20  1  0  0  0  0
  9 21  1  0  0  0  0
  9 22  1  0  0  0  0
  9 23  1  0  0  0  0
 10 24  1  0  0  0  0
 10 25  1  0  0  0  0
 11 26  1  0  0  0  0
 11 27  1  0  0  0  0
 12 13  1  0  0  0  0
 12 28  1  0  0  0  0
 12 29  1  0  0  0  0
 13 31  1  0  0  0  0
 13 32  1  0  0  0  0
 13 33  1  0  0  0  0
M  END
> <PUBCHEM_COMPOUND_CID>
142291

> <PUBCHEM_CONFORMER_RMSD>
0.8

> <PUBCHEM_CONFORMER_DIVERSEORDER>
1
38
42
27
39
33
18
22
13
26
25
19
15
36
8
41
12
14
7
29
9
24
23
34
35
37
40
30
10
4
32
3
28
20
6
11
2
31
5
21
17
16

> <PUBCHEM_MMFF94_PARTIAL_CHARGES>
10
1 -0.28
10 0.28
11 0.28
12 0.28
2 -0.28
3 -0.56
30 0.4
4 -0.68
5 0.28
6 0.28

> <PUBCHEM_EFFECTIVE_ROTOR_COUNT>
7

> <PUBCHEM_PHARMACOPHORE_FEATURES>
4
1 3 acceptor
1 4 acceptor
1 4 donor
4 5 7 8 9 hydrophobe

> <PUBCHEM_HEAVY_ATOM_COUNT>
13

> <PUBCHEM_ATOM_DEF_STEREO_COUNT>
0

> <PUBCHEM_ATOM_UDEF_STEREO_COUNT>
1

> <PUBCHEM_BOND_DEF_STEREO_COUNT>
0

> <PUBCHEM_BOND_UDEF_STEREO_COUNT>
0

> <PUBCHEM_ISOTOPIC_ATOM_COUNT>
0

> <PUBCHEM_COMPONENT_COUNT>
1

> <PUBCHEM_CACTVS_TAUTO_COUNT>
1

> <PUBCHEM_CONFORMER_ID>
00022BD300000001

> <PUBCHEM_MMFF94_ENERGY>
22.6179

> <PUBCHEM_FEATURE_SELFOVERLAP>
20.302

> <PUBCHEM_SHAPE_FINGERPRINT>
10680689 15 18407763629383912179
11401426 45 18411416211395950742
12091667 2 18333450937255865506
124424 183 17822012016784484425
14123238 8 18273214205370453206
14251718 22 18131347535753359406
14252887 29 18411426072957704686
17834072 33 17917706950598772148
17834076 25 16774079579169020942
20279233 1 18040723554014537243
20645477 70 18268989791629468558
20767249 13 18334855017894273490
20828058 44 16298108691753869346
22485316 2 18335699421249517586
2306618 200 18272374140396863289
23402539 116 18410287004032020028
42788 4 18413669111027238302

> <PUBCHEM_SHAPE_MULTIPOLES>
244.06
12.42
1.05
0.89
10.85
0.26
0.3
-0.25
0.78
-0.51
-0.19
-0.84
0.04
0.1

> <PUBCHEM_SHAPE_SELFOVERLAP>
447.137

> <PUBCHEM_SHAPE_VOLUME>
157.4

> <PUBCHEM_COORDINATE_TYPE>
2
5
10

$$$$
