140238
  -OEChem-11012400363D

 28 28  0     0  0  0  0  0  0999 V2000
    0.8119    1.0798   -0.2138 S   0  0  0  0  0  0  0  0  0  0  0  0
    1.0357    1.4074   -1.6109 O   0  0  0  0  0  0  0  0  0  0  0  0
    0.9599    2.0996    0.8101 O   0  0  0  0  0  0  0  0  0  0  0  0
    1.8525   -0.2782    0.2239 C   0  0  0  0  0  0  0  0  0  0  0  0
   -0.8242    0.4208   -0.0937 C   0  0  0  0  0  0  0  0  0  0  0  0
    3.3321    0.0804    0.1839 C   0  0  0  0  0  0  0  0  0  0  0  0
   -1.3993   -0.1663   -1.2073 C   0  0  0  0  0  0  0  0  0  0  0  0
   -1.4994    0.5045    1.1116 C   0  0  0  0  0  0  0  0  0  0  0  0
   -3.3857   -0.6108    0.0944 C   0  0  0  0  0  0  0  0  0  0  0  0
   -2.6903   -0.6861   -1.1124 C   0  0  0  0  0  0  0  0  0  0  0  0
   -2.7903   -0.0155    1.2064 C   0  0  0  0  0  0  0  0  0  0  0  0
    4.2135   -1.0618    0.5985 C   0  0  0  0  0  0  0  0  0  0  0  0
   -4.7658   -1.1667    0.1956 C   0  0  0  0  0  0  0  0  0  0  0  0
    5.1495   -1.6070   -0.1864 C   0  0  0  0  0  0  0  0  0  0  0  0
    1.5629   -0.5988    1.2308 H   0  0  0  0  0  0  0  0  0  0  0  0
    1.6385   -1.0938   -0.4756 H   0  0  0  0  0  0  0  0  0  0  0  0
    3.5259    0.9228    0.8592 H   0  0  0  0  0  0  0  0  0  0  0  0
    3.5986    0.4290   -0.8216 H   0  0  0  0  0  0  0  0  0  0  0  0
   -0.8713   -0.2422   -2.1528 H   0  0  0  0  0  0  0  0  0  0  0  0
   -1.0496    0.9572    1.9897 H   0  0  0  0  0  0  0  0  0  0  0  0
   -3.1422   -1.1508   -1.9847 H   0  0  0  0  0  0  0  0  0  0  0  0
   -3.3206    0.0461    2.1530 H   0  0  0  0  0  0  0  0  0  0  0  0
    4.0822   -1.4544    1.6035 H   0  0  0  0  0  0  0  0  0  0  0  0
   -4.7262   -2.2171    0.5007 H   0  0  0  0  0  0  0  0  0  0  0  0
   -5.3630   -0.6112    0.9266 H   0  0  0  0  0  0  0  0  0  0  0  0
   -5.2904   -1.0993   -0.7636 H   0  0  0  0  0  0  0  0  0  0  0  0
    5.7587   -2.4283    0.1748 H   0  0  0  0  0  0  0  0  0  0  0  0
    5.3237   -1.2486   -1.1948 H   0  0  0  0  0  0  0  0  0  0  0  0
  1  2  2  0  0  0  0
  1  3  2  0  0  0  0
  1  4  1  0  0  0  0
  1  5  1  0  0  0  0
  4  6  1  0  0  0  0
  4 15  1  0  0  0  0
  4 16  1  0  0  0  0
  5  7  2  0  0  0  0
  5  8  1  0  0  0  0
  6 12  1  0  0  0  0
  6 17  1  0  0  0  0
  6 18  1  0  0  0  0
  7 10  1  0  0  0  0
  7 19  1  0  0  0  0
  8 11  2  0  0  0  0
  8 20  1  0  0  0  0
  9 10  2  0  0  0  0
  9 11  1  0  0  0  0
  9 13  1  0  0  0  0
 10 21  1  0  0  0  0
 11 22  1  0  0  0  0
 12 14  2  0  0  0  0
 12 23  1  0  0  0  0
 13 24  1  0  0  0  0
 13 25  1  0  0  0  0
 13 26  1  0  0  0  0
 14 27  1  0  0  0  0
 14 28  1  0  0  0  0
M  END
> <PUBCHEM_COMPOUND_CID>
140238

> <PUBCHEM_CONFORMER_RMSD>
0.6

> <PUBCHEM_CONFORMER_DIVERSEORDER>
1
4
6
3
8
9
5
2
7
10
11

> <PUBCHEM_MMFF94_PARTIAL_CHARGES>
21
1 1.2
10 -0.15
11 -0.15
12 -0.29
13 0.14
14 -0.3
19 0.15
2 -0.65
20 0.15
21 0.15
22 0.15
23 0.15
27 0.15
28 0.15
3 -0.65
4 0.11
5 -0.01
6 0.14
7 -0.15
8 -0.15
9 -0.14

> <PUBCHEM_EFFECTIVE_ROTOR_COUNT>
4

> <PUBCHEM_PHARMACOPHORE_FEATURES>
4
1 14 hydrophobe
1 2 acceptor
1 3 acceptor
6 5 7 8 9 10 11 rings

> <PUBCHEM_HEAVY_ATOM_COUNT>
14

> <PUBCHEM_ATOM_DEF_STEREO_COUNT>
0

> <PUBCHEM_ATOM_UDEF_STEREO_COUNT>
0

> <PUBCHEM_BOND_DEF_STEREO_COUNT>
0

> <PUBCHEM_BOND_UDEF_STEREO_COUNT>
0

> <PUBCHEM_ISOTOPIC_ATOM_COUNT>
0

> <PUBCHEM_COMPONENT_COUNT>
1

> <PUBCHEM_CACTVS_TAUTO_COUNT>
1

> <PUBCHEM_CONFORMER_ID>
000223CE00000001

> <PUBCHEM_MMFF94_ENERGY>
17.4839

> <PUBCHEM_FEATURE_SELFOVERLAP>
20.315

> <PUBCHEM_SHAPE_FINGERPRINT>
10465860 71 16008748009153775860
11046707 91 18339641144775904746
11132069 177 15697729189802282341
11543360 7 14851896846000452898
12119455 92 10735875058730627688
122479 349 10807632520664979114
12251169 10 16558746823696128520
12633257 1 15697995258167352186
12892183 10 16630244715008350906
13581323 91 16845296059322075257
13690532 89 18410011052515354507
14123255 52 8646772192178123626
15375462 189 18343577439252899514
15501527 24 12685092613999981907
17862501 102 17917710227595801231
1813 80 18338249176092939148
18186145 218 14851614271448765748
193927 3 18335713714985224178
19784866 240 18408046221205366959
200 152 18333447638256888587
20300324 65 13984671338615991286
20325693 3 14851608765269050155
20388580 30 17895198817991236484
20645464 45 14261354673912502519
20645477 70 17895473734194293454
20671657 53 17748829592502920252
20871999 31 16081087052240400518
21119208 17 13840266983245381722
21524375 3 10303801090949540304
22094290 60 15936407818889026358
22713019 99 17749106712124511915
22926399 37 8070029973614661055
231179 274 10879999051236388842
23402539 116 18188489065271309346
23402655 69 12396297045763755426
23403322 49 17749666290623642146
23500284 214 11383823883771135182
23557571 272 16588295125167485308
23559900 14 14851609891046165332
2748010 2 16556535641852703541
3286 77 18337954596912544869
4028521 119 11674879991721291526
42 15 17989490727270329419
83771 10 18409166589220322842
90316 7 17489874812462119617

> <PUBCHEM_SHAPE_MULTIPOLES>
280.22
9.06
1.52
1.22
5.46
0.34
-0.21
-6.49
1.16
0.93
0
-0.51
0.21
-0.3

> <PUBCHEM_SHAPE_SELFOVERLAP>
555.466

> <PUBCHEM_SHAPE_VOLUME>
166.8

> <PUBCHEM_COORDINATE_TYPE>
2
5
10

$$$$
