75901
  -OEChem-11012400383D

 51 50  0     0  0  0  0  0  0999 V2000
   -0.0032   -1.1245   -0.0001 S   0  0  0  0  0  0  0  0  0  0  0  0
    5.2223   -0.4040   -0.0797 C   0  0  0  0  0  0  0  0  0  0  0  0
   -5.2222   -0.4054    0.0796 C   0  0  0  0  0  0  0  0  0  0  0  0
    3.8762    0.3228   -0.0335 C   0  0  0  0  0  0  0  0  0  0  0  0
   -3.8756    0.3204    0.0335 C   0  0  0  0  0  0  0  0  0  0  0  0
    6.4259    0.5428   -0.0713 C   0  0  0  0  0  0  0  0  0  0  0  0
   -6.4252    0.5423    0.0715 C   0  0  0  0  0  0  0  0  0  0  0  0
    2.7098   -0.6702   -0.0208 C   0  0  0  0  0  0  0  0  0  0  0  0
   -2.7098   -0.6735    0.0206 C   0  0  0  0  0  0  0  0  0  0  0  0
    7.7720   -0.1841   -0.0431 C   0  0  0  0  0  0  0  0  0  0  0  0
   -7.7718   -0.1836    0.0429 C   0  0  0  0  0  0  0  0  0  0  0  0
    1.3709    0.0617   -0.0104 C   0  0  0  0  0  0  0  0  0  0  0  0
   -1.3705    0.0575    0.0105 C   0  0  0  0  0  0  0  0  0  0  0  0
    8.9342    0.8068    0.0376 C   0  0  0  0  0  0  0  0  0  0  0  0
   -8.9332    0.8081   -0.0374 C   0  0  0  0  0  0  0  0  0  0  0  0
   10.2735    0.0903    0.1046 C   0  0  0  0  0  0  0  0  0  0  0  0
  -10.2731    0.0926   -0.1046 C   0  0  0  0  0  0  0  0  0  0  0  0
    5.2944   -1.0796    0.7818 H   0  0  0  0  0  0  0  0  0  0  0  0
    5.2674   -1.0316   -0.9783 H   0  0  0  0  0  0  0  0  0  0  0  0
   -5.2947   -1.0808   -0.7821 H   0  0  0  0  0  0  0  0  0  0  0  0
   -5.2678   -1.0331    0.9781 H   0  0  0  0  0  0  0  0  0  0  0  0
    3.7901    0.9848   -0.9036 H   0  0  0  0  0  0  0  0  0  0  0  0
    3.8307    0.9555    0.8611 H   0  0  0  0  0  0  0  0  0  0  0  0
   -3.7891    0.9822    0.9038 H   0  0  0  0  0  0  0  0  0  0  0  0
   -3.8297    0.9533   -0.8610 H   0  0  0  0  0  0  0  0  0  0  0  0
    6.3537    1.1987    0.8054 H   0  0  0  0  0  0  0  0  0  0  0  0
    6.3804    1.1908   -0.9554 H   0  0  0  0  0  0  0  0  0  0  0  0
   -6.3524    1.1984   -0.8050 H   0  0  0  0  0  0  0  0  0  0  0  0
   -6.3793    1.1900    0.9557 H   0  0  0  0  0  0  0  0  0  0  0  0
    2.7777   -1.3162   -0.9054 H   0  0  0  0  0  0  0  0  0  0  0  0
    2.7951   -1.3148    0.8632 H   0  0  0  0  0  0  0  0  0  0  0  0
   -2.7786   -1.3196    0.9051 H   0  0  0  0  0  0  0  0  0  0  0  0
   -2.7961   -1.3176   -0.8636 H   0  0  0  0  0  0  0  0  0  0  0  0
    7.8046   -0.8583    0.8214 H   0  0  0  0  0  0  0  0  0  0  0  0
    7.8733   -0.8047   -0.9414 H   0  0  0  0  0  0  0  0  0  0  0  0
   -7.8049   -0.8575   -0.8217 H   0  0  0  0  0  0  0  0  0  0  0  0
   -7.8736   -0.8045    0.9411 H   0  0  0  0  0  0  0  0  0  0  0  0
    1.2980    0.6967    0.8787 H   0  0  0  0  0  0  0  0  0  0  0  0
    1.2839    0.6966   -0.8983 H   0  0  0  0  0  0  0  0  0  0  0  0
   -1.2990    0.6936   -0.8780 H   0  0  0  0  0  0  0  0  0  0  0  0
   -1.2848    0.6930    0.8982 H   0  0  0  0  0  0  0  0  0  0  0  0
    8.8232    1.4408    0.9250 H   0  0  0  0  0  0  0  0  0  0  0  0
    8.9211    1.4674   -0.8371 H   0  0  0  0  0  0  0  0  0  0  0  0
   -8.8218    1.4424   -0.9246 H   0  0  0  0  0  0  0  0  0  0  0  0
   -8.9197    1.4684    0.8376 H   0  0  0  0  0  0  0  0  0  0  0  0
   10.3307   -0.5529    0.9885 H   0  0  0  0  0  0  0  0  0  0  0  0
   11.0899    0.8172    0.1600 H   0  0  0  0  0  0  0  0  0  0  0  0
   10.4309   -0.5305   -0.7832 H   0  0  0  0  0  0  0  0  0  0  0  0
  -10.3308   -0.5501   -0.9888 H   0  0  0  0  0  0  0  0  0  0  0  0
  -11.0890    0.8201   -0.1597 H   0  0  0  0  0  0  0  0  0  0  0  0
  -10.4309   -0.5284    0.7829 H   0  0  0  0  0  0  0  0  0  0  0  0
  1 12  1  0  0  0  0
  1 13  1  0  0  0  0
  2  4  1  0  0  0  0
  2  6  1  0  0  0  0
  2 18  1  0  0  0  0
  2 19  1  0  0  0  0
  3  5  1  0  0  0  0
  3  7  1  0  0  0  0
  3 20  1  0  0  0  0
  3 21  1  0  0  0  0
  4  8  1  0  0  0  0
  4 22  1  0  0  0  0
  4 23  1  0  0  0  0
  5  9  1  0  0  0  0
  5 24  1  0  0  0  0
  5 25  1  0  0  0  0
  6 10  1  0  0  0  0
  6 26  1  0  0  0  0
  6 27  1  0  0  0  0
  7 11  1  0  0  0  0
  7 28  1  0  0  0  0
  7 29  1  0  0  0  0
  8 12  1  0  0  0  0
  8 30  1  0  0  0  0
  8 31  1  0  0  0  0
  9 13  1  0  0  0  0
  9 32  1  0  0  0  0
  9 33  1  0  0  0  0
 10 14  1  0  0  0  0
 10 34  1  0  0  0  0
 10 35  1  0  0  0  0
 11 15  1  0  0  0  0
 11 36  1  0  0  0  0
 11 37  1  0  0  0  0
 12 38  1  0  0  0  0
 12 39  1  0  0  0  0
 13 40  1  0  0  0  0
 13 41  1  0  0  0  0
 14 16  1  0  0  0  0
 14 42  1  0  0  0  0
 14 43  1  0  0  0  0
 15 17  1  0  0  0  0
 15 44  1  0  0  0  0
 15 45  1  0  0  0  0
 16 46  1  0  0  0  0
 16 47  1  0  0  0  0
 16 48  1  0  0  0  0
 17 49  1  0  0  0  0
 17 50  1  0  0  0  0
 17 51  1  0  0  0  0
M  END
> <PUBCHEM_COMPOUND_CID>
75901

> <PUBCHEM_CONFORMER_RMSD>
1.4

> <PUBCHEM_CONFORMER_DIVERSEORDER>
1
26
24
19
2
10
18
25
7
6
22
12
14
8
17
4
5
16
20
15
28
27
3
30
21
23
29
11
13
9

> <PUBCHEM_MMFF94_PARTIAL_CHARGES>
3
1 -0.46
12 0.23
13 0.23

> <PUBCHEM_EFFECTIVE_ROTOR_COUNT>
14

> <PUBCHEM_PHARMACOPHORE_FEATURES>
2
1 16 hydrophobe
1 17 hydrophobe

> <PUBCHEM_HEAVY_ATOM_COUNT>
17

> <PUBCHEM_ATOM_DEF_STEREO_COUNT>
0

> <PUBCHEM_ATOM_UDEF_STEREO_COUNT>
0

> <PUBCHEM_BOND_DEF_STEREO_COUNT>
0

> <PUBCHEM_BOND_UDEF_STEREO_COUNT>
0

> <PUBCHEM_ISOTOPIC_ATOM_COUNT>
0

> <PUBCHEM_COMPONENT_COUNT>
1

> <PUBCHEM_CACTVS_TAUTO_COUNT>
1

> <PUBCHEM_CONFORMER_ID>
0001287D00000001

> <PUBCHEM_MMFF94_ENERGY>
-0.3077

> <PUBCHEM_FEATURE_SELFOVERLAP>
10.149

> <PUBCHEM_SHAPE_FINGERPRINT>
11638347 137 14996278107342345096
12498461 61 13407088016182306385
14123256 10 17846780702180249977
14251764 46 18410573985151451143
14344974 52 17346309444661200507
15510794 2 18410579482715644306
155225 1 18411982447337262401
21150785 3 15770058328150970979
22224240 67 16298386876791010227
232437 2 18410573985151691490
23521765 1 18341895190345691847
23581129 1 18409448089539575812
33684 2 18410573985156732410
59521270 166 11671789248399690625
67123 10 18411138043211722567
8209 1 18273496771015571426

> <PUBCHEM_SHAPE_MULTIPOLES>
353.7
40.02
0.91
0.62
0.03
0.06
0
-9.13
0
0
0
0
0.01
0.04

> <PUBCHEM_SHAPE_SELFOVERLAP>
617.674

> <PUBCHEM_SHAPE_VOLUME>
231

> <PUBCHEM_COORDINATE_TYPE>
2
5
10

$$$$
