12888
  -OEChem-11012400533D

 27 29  0     0  0  0  0  0  0999 V2000
   -0.0027   -0.1322   -0.0012 O   0  0  0  0  0  0  0  0  0  0  0  0
   -0.6954    1.9950    0.0006 N   0  0  0  0  0  0  0  0  0  0  0  0
    0.6870    1.9960   -0.0004 N   0  0  0  0  0  0  0  0  0  0  0  0
   -2.3575    0.1353    0.0006 C   0  0  0  0  0  0  0  0  0  0  0  0
    2.3518    0.1383   -0.0011 C   0  0  0  0  0  0  0  0  0  0  0  0
   -1.0459    0.7361   -0.0001 C   0  0  0  0  0  0  0  0  0  0  0  0
    1.0474    0.7339   -0.0012 C   0  0  0  0  0  0  0  0  0  0  0  0
   -2.4895   -1.2534    0.0003 C   0  0  0  0  0  0  0  0  0  0  0  0
    2.4934   -1.2538   -0.0010 C   0  0  0  0  0  0  0  0  0  0  0  0
   -3.4940    0.9438    0.0006 C   0  0  0  0  0  0  0  0  0  0  0  0
    3.4954    0.9445    0.0000 C   0  0  0  0  0  0  0  0  0  0  0  0
   -3.7581   -1.8334   -0.0001 C   0  0  0  0  0  0  0  0  0  0  0  0
    3.7626   -1.8325    0.0002 C   0  0  0  0  0  0  0  0  0  0  0  0
   -4.7626    0.3639    0.0004 C   0  0  0  0  0  0  0  0  0  0  0  0
    4.7646    0.3659    0.0011 C   0  0  0  0  0  0  0  0  0  0  0  0
   -4.8946   -1.0248   -0.0001 C   0  0  0  0  0  0  0  0  0  0  0  0
    4.8981   -1.0225    0.0013 C   0  0  0  0  0  0  0  0  0  0  0  0
   -1.6278   -1.9160    0.0001 H   0  0  0  0  0  0  0  0  0  0  0  0
    1.6326   -1.9182   -0.0016 H   0  0  0  0  0  0  0  0  0  0  0  0
   -3.4150    2.0283    0.0007 H   0  0  0  0  0  0  0  0  0  0  0  0
    3.4164    2.0292    0.0001 H   0  0  0  0  0  0  0  0  0  0  0  0
   -3.8614   -2.9146   -0.0004 H   0  0  0  0  0  0  0  0  0  0  0  0
    3.8671   -2.9136    0.0003 H   0  0  0  0  0  0  0  0  0  0  0  0
   -5.6478    0.9933    0.0003 H   0  0  0  0  0  0  0  0  0  0  0  0
    5.6491    0.9963    0.0019 H   0  0  0  0  0  0  0  0  0  0  0  0
   -5.8824   -1.4764   -0.0004 H   0  0  0  0  0  0  0  0  0  0  0  0
    5.8864   -1.4730    0.0022 H   0  0  0  0  0  0  0  0  0  0  0  0
  1  6  1  0  0  0  0
  1  7  1  0  0  0  0
  2  3  1  0  0  0  0
  2  6  2  0  0  0  0
  3  7  2  0  0  0  0
  4  6  1  0  0  0  0
  4  8  2  0  0  0  0
  4 10  1  0  0  0  0
  5  7  1  0  0  0  0
  5  9  2  0  0  0  0
  5 11  1  0  0  0  0
  8 12  1  0  0  0  0
  8 18  1  0  0  0  0
  9 13  1  0  0  0  0
  9 19  1  0  0  0  0
 10 14  2  0  0  0  0
 10 20  1  0  0  0  0
 11 15  2  0  0  0  0
 11 21  1  0  0  0  0
 12 16  2  0  0  0  0
 12 22  1  0  0  0  0
 13 17  2  0  0  0  0
 13 23  1  0  0  0  0
 14 16  1  0  0  0  0
 14 24  1  0  0  0  0
 15 17  1  0  0  0  0
 15 25  1  0  0  0  0
 16 26  1  0  0  0  0
 17 27  1  0  0  0  0
M  END
> <PUBCHEM_COMPOUND_CID>
12888

> <PUBCHEM_CONFORMER_RMSD>
0.6

> <PUBCHEM_CONFORMER_DIVERSEORDER>
1

> <PUBCHEM_MMFF94_PARTIAL_CHARGES>
27
1 -0.28
10 -0.15
11 -0.15
12 -0.15
13 -0.15
14 -0.15
15 -0.15
16 -0.15
17 -0.15
18 0.15
19 0.15
2 -0.34
20 0.15
21 0.15
22 0.15
23 0.15
24 0.15
25 0.15
26 0.15
27 0.15
3 -0.34
4 0.05
5 0.05
6 0.43
7 0.43
8 -0.15
9 -0.15

> <PUBCHEM_EFFECTIVE_ROTOR_COUNT>
2

> <PUBCHEM_PHARMACOPHORE_FEATURES>
3
5 1 2 3 6 7 rings
6 4 8 10 12 14 16 rings
6 5 9 11 13 15 17 rings

> <PUBCHEM_HEAVY_ATOM_COUNT>
17

> <PUBCHEM_ATOM_DEF_STEREO_COUNT>
0

> <PUBCHEM_ATOM_UDEF_STEREO_COUNT>
0

> <PUBCHEM_BOND_DEF_STEREO_COUNT>
0

> <PUBCHEM_BOND_UDEF_STEREO_COUNT>
0

> <PUBCHEM_ISOTOPIC_ATOM_COUNT>
0

> <PUBCHEM_COMPONENT_COUNT>
1

> <PUBCHEM_CACTVS_TAUTO_COUNT>
1

> <PUBCHEM_CONFORMER_ID>
0000325800000001

> <PUBCHEM_MMFF94_ENERGY>
37.2984

> <PUBCHEM_FEATURE_SELFOVERLAP>
15.223

> <PUBCHEM_SHAPE_FINGERPRINT>
10616163 171 18412827966824918806
10968037 39 18408888446900941622
11806522 49 18408041818889989452
12032990 46 18410575088958208613
12107183 9 17692536615257309370
12555020 224 18410564107639787615
12596602 18 16702019819977479018
13167823 11 18410855464423447394
13288520 33 18411702075533845351
13685833 64 18335424599520079035
13862211 1 18410569587105420742
14115302 16 17676779750411592854
14251764 18 18272657857514859083
14252887 29 17704080581633083910
15196674 1 18410855460128480103
15242433 33 18409168809296545183
15352361 1 18410573993826054599
17804303 29 18342177782546824825
17834072 33 18410857693653665108
1813 80 17458346337978551268
18186145 218 14923951179604282997
19141452 34 18413108368676607135
200 152 18272088300920626073
20261772 1 17917988399668919166
20281475 54 18410577287986946804
20374829 77 18335135375710060363
20645477 70 18411700954890694774
21250096 35 18342174470609951595
21267235 1 18410864260516476098
221490 88 18190467258013558195
2215653 11 18412255130494494695
22485316 2 18410572889934790657
22646028 28 18410855460128376162
22854114 59 10879994661705861683
23402539 116 18335415755512146222
23403322 49 18410011039909936387
23557571 272 18200600185693259932
23559900 14 18411694417734218472
23622692 118 17843391032913896183
239999 70 18201444684054249150
26918003 58 18342735200165481730
2871803 45 18333447617130341586
3004659 81 18187364307683388022
3268164 11 16370717106826114431
335352 9 18410855443898053717
33824 294 18409446977866148586
42 15 18412265034203788719
4214541 1 18410856529886534181
465052 167 18272938249179084279
4921388 177 16226057738078441811
5104073 3 18413107251367783136
5283173 99 18115860819971491317
559249 180 18335697187903414531
77779 3 18410575088963340460
83771 10 18411135839920022888
9709674 26 18190462855862217739

> <PUBCHEM_SHAPE_MULTIPOLES>
334.02
11.23
1.9
0.6
0.03
0.07
0
3.87
0
0
0
0
0.02
0

> <PUBCHEM_SHAPE_SELFOVERLAP>
741.768

> <PUBCHEM_SHAPE_VOLUME>
179.8

> <PUBCHEM_COORDINATE_TYPE>
2
5
10

$$$$
