11384
  -OEChem-11012400433D

 25 27  0     0  0  0  0  0  0999 V2000
   -0.4261    1.4243    0.0001 N   0  0  0  0  0  0  0  0  0  0  0  0
    4.6297   -0.9312    0.0005 N   0  0  0  0  0  0  0  0  0  0  0  0
    0.9312   -0.5623   -0.0002 C   0  0  0  0  0  0  0  0  0  0  0  0
   -1.4921   -0.7326   -0.0001 C   0  0  0  0  0  0  0  0  0  0  0  0
    0.7852    0.8353   -0.0001 C   0  0  0  0  0  0  0  0  0  0  0  0
   -1.5432    0.6715    0.0000 C   0  0  0  0  0  0  0  0  0  0  0  0
   -0.2319   -1.3389   -0.0001 C   0  0  0  0  0  0  0  0  0  0  0  0
    2.2105   -1.1449   -0.0002 C   0  0  0  0  0  0  0  0  0  0  0  0
    1.9395    1.6140    0.0000 C   0  0  0  0  0  0  0  0  0  0  0  0
    3.3487   -0.3439   -0.0001 C   0  0  0  0  0  0  0  0  0  0  0  0
   -2.6774   -1.4887    0.0000 C   0  0  0  0  0  0  0  0  0  0  0  0
   -2.7951    1.2810    0.0001 C   0  0  0  0  0  0  0  0  0  0  0  0
    3.2124    1.0383   -0.0001 C   0  0  0  0  0  0  0  0  0  0  0  0
   -3.9164   -0.8549    0.0001 C   0  0  0  0  0  0  0  0  0  0  0  0
   -3.9750    0.5329    0.0001 C   0  0  0  0  0  0  0  0  0  0  0  0
   -0.1556   -2.4256   -0.0001 H   0  0  0  0  0  0  0  0  0  0  0  0
    2.3136   -2.2287    0.0000 H   0  0  0  0  0  0  0  0  0  0  0  0
    1.8589    2.6995    0.0001 H   0  0  0  0  0  0  0  0  0  0  0  0
   -2.6410   -2.5758    0.0000 H   0  0  0  0  0  0  0  0  0  0  0  0
   -2.8675    2.3672    0.0001 H   0  0  0  0  0  0  0  0  0  0  0  0
    4.0870    1.6838    0.0001 H   0  0  0  0  0  0  0  0  0  0  0  0
   -4.8301   -1.4412    0.0001 H   0  0  0  0  0  0  0  0  0  0  0  0
   -4.9367    1.0375    0.0002 H   0  0  0  0  0  0  0  0  0  0  0  0
    5.4548   -0.3463   -0.0006 H   0  0  0  0  0  0  0  0  0  0  0  0
    4.7255   -1.9379   -0.0007 H   0  0  0  0  0  0  0  0  0  0  0  0
  1  5  2  0  0  0  0
  1  6  1  0  0  0  0
  2 10  1  0  0  0  0
  2 24  1  0  0  0  0
  2 25  1  0  0  0  0
  3  5  1  0  0  0  0
  3  7  2  0  0  0  0
  3  8  1  0  0  0  0
  4  6  1  0  0  0  0
  4  7  1  0  0  0  0
  4 11  2  0  0  0  0
  5  9  1  0  0  0  0
  6 12  2  0  0  0  0
  7 16  1  0  0  0  0
  8 10  2  0  0  0  0
  8 17  1  0  0  0  0
  9 13  2  0  0  0  0
  9 18  1  0  0  0  0
 10 13  1  0  0  0  0
 11 14  1  0  0  0  0
 11 19  1  0  0  0  0
 12 15  1  0  0  0  0
 12 20  1  0  0  0  0
 13 21  1  0  0  0  0
 14 15  2  0  0  0  0
 14 22  1  0  0  0  0
 15 23  1  0  0  0  0
M  END
> <PUBCHEM_COMPOUND_CID>
11384

> <PUBCHEM_CONFORMER_RMSD>
0.4

> <PUBCHEM_CONFORMER_DIVERSEORDER>
1

> <PUBCHEM_MMFF94_PARTIAL_CHARGES>
23
1 -0.62
10 0.1
11 -0.15
12 -0.15
13 -0.15
14 -0.15
15 -0.15
16 0.15
17 0.15
18 0.15
19 0.15
2 -0.9
20 0.15
21 0.15
22 0.15
23 0.15
24 0.4
25 0.4
5 0.31
6 0.31
7 -0.15
8 -0.15
9 -0.15

> <PUBCHEM_EFFECTIVE_ROTOR_COUNT>
0

> <PUBCHEM_PHARMACOPHORE_FEATURES>
6
1 1 acceptor
1 2 cation
1 2 donor
6 1 3 4 5 6 7 rings
6 3 5 8 9 10 13 rings
6 4 6 11 12 14 15 rings

> <PUBCHEM_HEAVY_ATOM_COUNT>
15

> <PUBCHEM_ATOM_DEF_STEREO_COUNT>
0

> <PUBCHEM_ATOM_UDEF_STEREO_COUNT>
0

> <PUBCHEM_BOND_DEF_STEREO_COUNT>
0

> <PUBCHEM_BOND_UDEF_STEREO_COUNT>
0

> <PUBCHEM_ISOTOPIC_ATOM_COUNT>
0

> <PUBCHEM_COMPONENT_COUNT>
1

> <PUBCHEM_CACTVS_TAUTO_COUNT>
1

> <PUBCHEM_CONFORMER_ID>
00002C7800000001

> <PUBCHEM_MMFF94_ENERGY>
57.0654

> <PUBCHEM_FEATURE_SELFOVERLAP>
30.507

> <PUBCHEM_SHAPE_FINGERPRINT>
10062212 137 18412255134299273411
10608611 8 18410852183232067497
10967382 1 18410575058919739847
11132069 177 18411974771560492744
11471102 20 18410852183163138612
12032990 46 18410015454777503651
12251169 10 18411418397207237235
13221675 6 18410009935718219483
13288520 33 18340489976432250710
13296908 3 18410855490198227115
13380535 76 18411702075613375807
13690532 89 18409729539078896034
14115302 16 17822584870821993582
14144814 61 18410573989594150617
14325111 11 18410855486019518721
15196674 1 18410575106148529861
15219456 202 18412260670358883864
15442244 35 18267022752204455242
15536298 74 18342457075548267360
16945 1 18338517409110547077
17802600 8 18410569587152575237
17804303 29 18412267233111103676
18186145 218 17822003229001873959
18522853 276 18342455941566086104
19422 9 18409171038395062813
200 152 18060412530455488687
20201158 50 18412546491853151495
20510252 161 18272934912168817409
20645477 70 18413107264305821702
21267235 1 18410301310658097779
21501502 16 18338519741235603869
21501925 9 18410847781116968378
221490 88 18263651825716002930
2255824 54 17967816076527711162
2334 1 18338517559492444205
23402539 116 18201711843403678845
23402655 69 18412822469582998877
23463225 33 18408885139596723540
23559900 14 18342453755802467176
2748010 2 18410572924447613901
335352 9 18338516322462683645
474 4 16879640503797292764
5104073 3 18411138060391631704
528886 8 18411414016356452219
69090 78 18343860035189694199
7364860 26 18270118053889435128
77779 3 18410013255706697364
8809292 202 18260834833870687307
9709674 26 18411706507961817462
9981440 41 17398670589611610112

> <PUBCHEM_SHAPE_MULTIPOLES>
298.73
7.41
1.7
0.61
0.93
0.13
0
-0.85
0
-0.01
0
-0.02
0
0

> <PUBCHEM_SHAPE_SELFOVERLAP>
677.756

> <PUBCHEM_SHAPE_VOLUME>
155.5

> <PUBCHEM_COORDINATE_TYPE>
2
5
10

$$$$
