137458
  -OEChem-11012401083D

 30 30  0     1  0  0  0  0  0999 V2000
    1.5289   -0.1638   -0.0174 C   0  0  0  0  0  0  0  0  0  0  0  0
    0.4970   -1.0861    0.6733 C   0  0  0  0  0  0  0  0  0  0  0  0
    0.9122    1.1039   -0.6532 C   0  0  0  0  0  0  0  0  0  0  0  0
   -1.8813   -0.2073    0.3382 C   0  0  1  0  0  0  0  0  0  0  0  0
   -0.8356   -1.2635   -0.0587 C   0  0  0  0  0  0  0  0  0  0  0  0
   -0.2092    1.7645    0.1487 C   0  0  0  0  0  0  0  0  0  0  0  0
   -1.5883    1.2017   -0.1957 C   0  0  0  0  0  0  0  0  0  0  0  0
    2.2635   -0.9481   -1.1263 C   0  0  0  0  0  0  0  0  0  0  0  0
    2.5812    0.2479    1.0355 C   0  0  0  0  0  0  0  0  0  0  0  0
   -3.2685   -0.6491   -0.1444 C   0  0  0  0  0  0  0  0  0  0  0  0
    0.2980   -0.7340    1.6941 H   0  0  0  0  0  0  0  0  0  0  0  0
    0.9500   -2.0792    0.8005 H   0  0  0  0  0  0  0  0  0  0  0  0
    0.5430    0.8792   -1.6627 H   0  0  0  0  0  0  0  0  0  0  0  0
    1.7099    1.8447   -0.8010 H   0  0  0  0  0  0  0  0  0  0  0  0
   -1.9237   -0.1542    1.4342 H   0  0  0  0  0  0  0  0  0  0  0  0
   -0.6978   -1.2897   -1.1454 H   0  0  0  0  0  0  0  0  0  0  0  0
   -1.2275   -2.2501    0.2229 H   0  0  0  0  0  0  0  0  0  0  0  0
   -0.2211    2.8302   -0.1146 H   0  0  0  0  0  0  0  0  0  0  0  0
   -0.0241    1.7173    1.2270 H   0  0  0  0  0  0  0  0  0  0  0  0
   -2.3415    1.8868    0.2157 H   0  0  0  0  0  0  0  0  0  0  0  0
   -1.7267    1.2236   -1.2847 H   0  0  0  0  0  0  0  0  0  0  0  0
    2.7757   -1.8276   -0.7200 H   0  0  0  0  0  0  0  0  0  0  0  0
    1.5697   -1.2962   -1.8988 H   0  0  0  0  0  0  0  0  0  0  0  0
    3.0191   -0.3233   -1.6165 H   0  0  0  0  0  0  0  0  0  0  0  0
    3.0509   -0.6326    1.4888 H   0  0  0  0  0  0  0  0  0  0  0  0
    3.3778    0.8529    0.5875 H   0  0  0  0  0  0  0  0  0  0  0  0
    2.1319    0.8366    1.8425 H   0  0  0  0  0  0  0  0  0  0  0  0
   -3.2984   -0.7422   -1.2354 H   0  0  0  0  0  0  0  0  0  0  0  0
   -3.5405   -1.6187    0.2861 H   0  0  0  0  0  0  0  0  0  0  0  0
   -4.0347    0.0733    0.1567 H   0  0  0  0  0  0  0  0  0  0  0  0
  1  2  1  0  0  0  0
  1  3  1  0  0  0  0
  1  8  1  0  0  0  0
  1  9  1  0  0  0  0
  2  5  1  0  0  0  0
  2 11  1  0  0  0  0
  2 12  1  0  0  0  0
  3  6  1  0  0  0  0
  3 13  1  0  0  0  0
  3 14  1  0  0  0  0
  4  5  1  0  0  0  0
  4  7  1  0  0  0  0
  4 10  1  0  0  0  0
  4 15  1  0  0  0  0
  5 16  1  0  0  0  0
  5 17  1  0  0  0  0
  6  7  1  0  0  0  0
  6 18  1  0  0  0  0
  6 19  1  0  0  0  0
  7 20  1  0  0  0  0
  7 21  1  0  0  0  0
  8 22  1  0  0  0  0
  8 23  1  0  0  0  0
  8 24  1  0  0  0  0
  9 25  1  0  0  0  0
  9 26  1  0  0  0  0
  9 27  1  0  0  0  0
 10 28  1  0  0  0  0
 10 29  1  0  0  0  0
 10 30  1  0  0  0  0
M  END
> <PUBCHEM_COMPOUND_CID>
137458

> <PUBCHEM_CONFORMER_RMSD>
0.4

> <PUBCHEM_CONFORMER_DIVERSEORDER>
2
5
1
3
4

> <PUBCHEM_MMFF94_PARTIAL_CHARGES>
0

> <PUBCHEM_EFFECTIVE_ROTOR_COUNT>
1.4

> <PUBCHEM_PHARMACOPHORE_FEATURES>
2
3 1 8 9 hydrophobe
7 1 2 3 4 5 6 7 rings

> <PUBCHEM_HEAVY_ATOM_COUNT>
10

> <PUBCHEM_ATOM_DEF_STEREO_COUNT>
0

> <PUBCHEM_ATOM_UDEF_STEREO_COUNT>
1

> <PUBCHEM_BOND_DEF_STEREO_COUNT>
0

> <PUBCHEM_BOND_UDEF_STEREO_COUNT>
0

> <PUBCHEM_ISOTOPIC_ATOM_COUNT>
0

> <PUBCHEM_COMPONENT_COUNT>
1

> <PUBCHEM_CACTVS_TAUTO_COUNT>
1

> <PUBCHEM_CONFORMER_ID>
000218F200000002

> <PUBCHEM_MMFF94_ENERGY>
26.2119

> <PUBCHEM_FEATURE_SELFOVERLAP>
10.148

> <PUBCHEM_SHAPE_FINGERPRINT>
10353120 184 18261406528477405599
10857977 72 18410846672741242417
11206711 2 18260268508325893301
12524768 44 18339087119363493903
12897270 3 18409731729459560503
15310529 11 15482671268938748267
16945 1 18114187427655710139
18185500 45 18261110742543031569
20201158 50 18409163342024768847
21040471 1 17903074426154266628
22802520 49 17985273966944132230
23380061 330 18337660988352503787
23552423 10 18115878407640593142
241688 4 18266188222847383256
2748010 2 18266457616117870581
29004967 10 16916785137324125586
369184 2 16559030476189629171
5084963 1 18343032059651879443
66348 1 18049158865335569237

> <PUBCHEM_SHAPE_MULTIPOLES>
205.8
3.89
1.62
0.96
1.29
0.42
0.03
-0.84
0.02
0.18
0.09
-0.59
-0.09
0.21

> <PUBCHEM_SHAPE_SELFOVERLAP>
392.936

> <PUBCHEM_SHAPE_VOLUME>
126.1

> <PUBCHEM_COORDINATE_TYPE>
2
5
10

$$$$
