7867
  -OEChem-11012401263D

 12 11  0     0  0  0  0  0  0999 V2000
   -2.4455    0.3062   -1.3114 Cl  0  0  0  0  0  0  0  0  0  0  0  0
   -1.3640   -1.5777    1.1401 Cl  0  0  0  0  0  0  0  0  0  0  0  0
   -0.7917    1.6472    1.1777 Cl  0  0  0  0  0  0  0  0  0  0  0  0
   -0.9112    0.0189   -0.0209 Si  0  0  0  0  0  0  0  0  0  0  0  0
    0.6913   -0.2547   -0.9383 C   0  0  0  0  0  0  0  0  0  0  0  0
    1.8789   -0.4758   -0.0462 C   0  0  0  0  0  0  0  0  0  0  0  0
    2.9423    0.3359   -0.0011 C   0  0  0  0  0  0  0  0  0  0  0  0
    0.5874   -1.1314   -1.5886 H   0  0  0  0  0  0  0  0  0  0  0  0
    0.8679    0.5997   -1.6029 H   0  0  0  0  0  0  0  0  0  0  0  0
    1.8870   -1.3671    0.5773 H   0  0  0  0  0  0  0  0  0  0  0  0
    3.7765    0.1119    0.6547 H   0  0  0  0  0  0  0  0  0  0  0  0
    2.9993    1.2311   -0.6101 H   0  0  0  0  0  0  0  0  0  0  0  0
  1  4  1  0  0  0  0
  2  4  1  0  0  0  0
  3  4  1  0  0  0  0
  4  5  1  0  0  0  0
  5  6  1  0  0  0  0
  5  8  1  0  0  0  0
  5  9  1  0  0  0  0
  6  7  2  0  0  0  0
  6 10  1  0  0  0  0
  7 11  1  0  0  0  0
  7 12  1  0  0  0  0
M  END
> <PUBCHEM_COMPOUND_CID>
7867

> <PUBCHEM_CONFORMER_RMSD>
0.4

> <PUBCHEM_CONFORMER_DIVERSEORDER>
2
3
1

> <PUBCHEM_MMFF94_PARTIAL_CHARGES>
10
1 -0.37
10 0.15
11 0.15
12 0.15
2 -0.37
3 -0.37
4 1.19
5 0.06
6 -0.29
7 -0.3

> <PUBCHEM_EFFECTIVE_ROTOR_COUNT>
2

> <PUBCHEM_PHARMACOPHORE_FEATURES>
1
1 7 hydrophobe

> <PUBCHEM_HEAVY_ATOM_COUNT>
7

> <PUBCHEM_ATOM_DEF_STEREO_COUNT>
0

> <PUBCHEM_ATOM_UDEF_STEREO_COUNT>
0

> <PUBCHEM_BOND_DEF_STEREO_COUNT>
0

> <PUBCHEM_BOND_UDEF_STEREO_COUNT>
0

> <PUBCHEM_ISOTOPIC_ATOM_COUNT>
0

> <PUBCHEM_COMPONENT_COUNT>
1

> <PUBCHEM_CACTVS_TAUTO_COUNT>
1

> <PUBCHEM_CONFORMER_ID>
00001EBB00000002

> <PUBCHEM_MMFF94_ENERGY>
1.4573

> <PUBCHEM_FEATURE_SELFOVERLAP>
5.074

> <PUBCHEM_SHAPE_FINGERPRINT>
12897270 3 17274810338053062388
12932741 1 18335709346961000534
12932764 1 17240778289000280348
137420 1 17259003926696604763
18342897 96 18057334880997294889
20653085 51 17095526141049578949
24536 1 18267327385623642574
29004967 10 18059304248024673539
3248919 1 18410863131583402326
5084963 1 18194391204575400476
5943 1 8860075279361364177
59915604 170 18129358506212569325

> <PUBCHEM_SHAPE_MULTIPOLES>
167.88
3.56
1.46
1.4
2.48
0.06
-0.03
-0.16
0.78
-0.66
-0.77
-0.81
-0.15
0.29

> <PUBCHEM_SHAPE_SELFOVERLAP>
269.867

> <PUBCHEM_SHAPE_VOLUME>
117.8

> <PUBCHEM_COORDINATE_TYPE>
2
5
10

$$$$
