11068835
  -OEChem-10312420162D

 52 62  0     1  0  0  0  0  0999 V2000
    2.7846    0.7443    0.0000 O   0  0  0  0  0  0  0  0  0  0  0  0
    8.9326   -0.4823    0.0000 O   0  0  0  0  0  0  0  0  0  0  0  0
    3.8585    2.1032    0.0000 O   0  0  0  0  0  0  0  0  0  0  0  0
    8.3223   -2.1032    0.0000 O   0  0  0  0  0  0  0  0  0  0  0  0
    4.4984    0.4937    0.0000 C   0  0  0  0  0  0  0  0  0  0  0  0
    7.2237   -0.7642    0.0000 C   0  0  0  0  0  0  0  0  0  0  0  0
    4.9702   -0.6740    0.0000 C   0  0  3  0  0  0  0  0  0  0  0  0
    7.2286    0.4270    0.0000 C   0  0  3  0  0  0  0  0  0  0  0  0
    5.5049    1.1721    0.0000 C   0  0  3  0  0  0  0  0  0  0  0  0
    6.6392   -1.4358    0.0000 C   0  0  3  0  0  0  0  0  0  0  0  0
    3.9090    0.4270    0.0000 C   0  0  0  0  0  0  0  0  0  0  0  0
    6.6225   -0.8242    0.0000 C   0  0  0  0  0  0  0  0  0  0  0  0
    6.1832   -0.6684    0.0000 C   0  0  0  0  0  0  0  0  0  0  0  0
    6.6225    0.5104    0.0000 C   0  0  0  0  0  0  0  0  0  0  0  0
    4.4984   -1.4024    0.0000 C   0  0  3  0  0  0  0  0  0  0  0  0
    6.6003    1.1054    0.0000 C   0  0  3  0  0  0  0  0  0  0  0  0
    5.6105   -1.9585    0.0000 C   0  0  3  0  0  0  0  0  0  0  0  0
    5.5049    1.6058    0.0000 C   0  0  3  0  0  0  0  0  0  0  0  0
    3.9090   -0.7407    0.0000 C   0  0  3  0  0  0  0  0  0  0  0  0
    4.4984    1.1054    0.0000 C   0  0  3  0  0  0  0  0  0  0  0  0
    6.1832    0.3213    0.0000 C   0  0  3  0  0  0  0  0  0  0  0  0
    5.6105   -1.5415    0.0000 C   0  0  3  0  0  0  0  0  0  0  0  0
    4.5318   -0.8408    0.0000 C   0  0  0  0  0  0  0  0  0  0  0  0
    4.9154    0.3213    0.0000 C   0  0  0  0  0  0  0  0  0  0  0  0
    3.7138    1.1138    0.0000 C   0  0  0  0  0  0  0  0  0  0  0  0
    8.1595   -1.1166    0.0000 C   0  0  0  0  0  0  0  0  0  0  0  0
    2.0000    1.3644    0.0000 C   0  0  0  0  0  0  0  0  0  0  0  0
    9.8685   -0.8347    0.0000 C   0  0  0  0  0  0  0  0  0  0  0  0
    4.3530   -0.6150    0.0000 H   0  0  0  0  0  0  0  0  0  0  0  0
    7.8063    0.6520    0.0000 H   0  0  0  0  0  0  0  0  0  0  0  0
    7.0205   -1.9247    0.0000 H   0  0  0  0  0  0  0  0  0  0  0  0
    4.9575    1.4632    0.0000 H   0  0  0  0  0  0  0  0  0  0  0  0
    3.3282    0.6440    0.0000 H   0  0  0  0  0  0  0  0  0  0  0  0
    6.8398   -1.4048    0.0000 H   0  0  0  0  0  0  0  0  0  0  0  0
    6.8007   -0.6129    0.0000 H   0  0  0  0  0  0  0  0  0  0  0  0
    6.9406   -0.0218    0.0000 H   0  0  0  0  0  0  0  0  0  0  0  0
    4.1215   -1.8947    0.0000 H   0  0  0  0  0  0  0  0  0  0  0  0
    6.9636    1.6078    0.0000 H   0  0  0  0  0  0  0  0  0  0  0  0
    5.6125   -2.5785    0.0000 H   0  0  0  0  0  0  0  0  0  0  0  0
    5.4947    2.2257    0.0000 H   0  0  0  0  0  0  0  0  0  0  0  0
    3.3295   -0.9614    0.0000 H   0  0  0  0  0  0  0  0  0  0  0  0
    4.1190    1.5958    0.0000 H   0  0  0  0  0  0  0  0  0  0  0  0
    6.8021    0.2833    0.0000 H   0  0  0  0  0  0  0  0  0  0  0  0
    6.1612   -1.8262    0.0000 H   0  0  0  0  0  0  0  0  0  0  0  0
    4.3089   -1.4194    0.0000 H   0  0  0  0  0  0  0  0  0  0  0  0
    4.2977    0.2687    0.0000 H   0  0  0  0  0  0  0  0  0  0  0  0
    2.3844    1.8508    0.0000 H   0  0  0  0  0  0  0  0  0  0  0  0
    1.5136    1.7488    0.0000 H   0  0  0  0  0  0  0  0  0  0  0  0
    1.6156    0.8779    0.0000 H   0  0  0  0  0  0  0  0  0  0  0  0
    9.6500   -1.4149    0.0000 H   0  0  0  0  0  0  0  0  0  0  0  0
   10.4487   -1.0531    0.0000 H   0  0  0  0  0  0  0  0  0  0  0  0
   10.0869   -0.2544    0.0000 H   0  0  0  0  0  0  0  0  0  0  0  0
  1 25  1  0  0  0  0
  1 27  1  0  0  0  0
  2 26  1  0  0  0  0
  2 28  1  0  0  0  0
  3 25  2  0  0  0  0
  4 26  2  0  0  0  0
  5  7  1  0  0  0  0
  5  9  1  0  0  0  0
  5 11  1  0  0  0  0
  5 25  1  0  0  0  0
  6  8  1  0  0  0  0
  6 10  1  0  0  0  0
  6 12  1  0  0  0  0
  6 26  1  0  0  0  0
  7 13  1  0  0  0  0
  7 15  1  0  0  0  0
  7 29  1  0  0  0  0
  8 14  1  0  0  0  0
  8 16  1  0  0  0  0
  8 30  1  0  0  0  0
  9 14  1  0  0  0  0
  9 18  1  0  0  0  0
  9 32  1  0  0  0  0
 10 13  1  0  0  0  0
 10 17  1  0  0  0  0
 10 31  1  0  0  0  0
 11 19  1  0  0  0  0
 11 20  1  0  0  0  0
 11 33  1  0  0  0  0
 12 21  1  0  0  0  0
 12 22  1  0  0  0  0
 12 34  1  0  0  0  0
 13 14  1  0  0  0  0
 13 35  1  0  0  0  0
 14 36  1  0  0  0  0
 15 17  1  0  0  0  0
 15 19  1  0  0  0  0
 15 37  1  0  0  0  0
 16 18  1  0  0  0  0
 16 21  1  0  0  0  0
 16 38  1  0  0  0  0
 17 22  1  0  0  0  0
 17 39  1  0  0  0  0
 18 20  1  0  0  0  0
 18 40  1  0  0  0  0
 19 23  1  0  0  0  0
 19 41  1  0  0  0  0
 20 24  1  0  0  0  0
 20 42  1  0  0  0  0
 21 24  1  0  0  0  0
 21 43  1  0  0  0  0
 22 23  1  0  0  0  0
 22 44  1  0  0  0  0
 23 24  1  0  0  0  0
 23 45  1  0  0  0  0
 24 46  1  0  0  0  0
 27 47  1  0  0  0  0
 27 48  1  0  0  0  0
 27 49  1  0  0  0  0
 28 50  1  0  0  0  0
 28 51  1  0  0  0  0
 28 52  1  0  0  0  0
M  END
> <PUBCHEM_COMPOUND_CID>
11068835

> <PUBCHEM_COMPOUND_CANONICALIZED>
1

> <PUBCHEM_CACTVS_COMPLEXITY>
884

> <PUBCHEM_CACTVS_HBOND_ACCEPTOR>
4

> <PUBCHEM_CACTVS_HBOND_DONOR>
0

> <PUBCHEM_CACTVS_ROTATABLE_BOND>
4

> <PUBCHEM_CACTVS_SUBSKEYS>
AAADceB4OAAAAAAAAAAAAAAAAAAAAYMGDBgAAAAAAAAAAAAAAAAAGgAAAAAADwCAgAICCAAABAAIAACQCAAAAAAAAAAAAAEAAAAAABIAAAAAAAAEAAAAAAGIyPCPgAAAAAAAAAAAAAAAAAAAAQAACAAAAA==

> <PUBCHEM_IUPAC_OPENEYE_NAME>
dimethyl undecacyclo[9.9.0.02,9.03,7.04,20.05,18.06,16.08,15.010,14.012,19.013,17]icosane-1,6-dicarboxylate

> <PUBCHEM_IUPAC_CAS_NAME>
undecacyclo[9.9.0.02,9.03,7.04,20.05,18.06,16.08,15.010,14.012,19.013,17]eicosane-1,6-dicarboxylic acid dimethyl ester

> <PUBCHEM_IUPAC_NAME_MARKUP>
dimethyl undecacyclo[9.9.0.0<SUP>2,9</SUP>.0<SUP>3,7</SUP>.0<SUP>4,20</SUP>.0<SUP>5,18</SUP>.0<SUP>6,16</SUP>.0<SUP>8,15</SUP>.0<SUP>10,14</SUP>.0<SUP>12,19</SUP>.0<SUP>13,17</SUP>]icosane-1,6-dicarboxylate

> <PUBCHEM_IUPAC_NAME>
dimethyl undecacyclo[9.9.0.02,9.03,7.04,20.05,18.06,16.08,15.010,14.012,19.013,17]icosane-1,6-dicarboxylate

> <PUBCHEM_IUPAC_SYSTEMATIC_NAME>
dimethyl undecacyclo[9.9.0.02,9.03,7.04,20.05,18.06,16.08,15.010,14.012,19.013,17]icosane-1,6-dicarboxylate

> <PUBCHEM_IUPAC_TRADITIONAL_NAME>
undecacyclo[9.9.0.02,9.03,7.04,20.05,18.06,16.08,15.010,14.012,19.013,17]eicosane-1,6-dicarboxylic acid dimethyl ester

> <PUBCHEM_IUPAC_INCHI>
InChI=1S/C24H24O4/c1-27-21(25)23-15-5-3-4-6(15)10-12-8(4)16-7(3)11-9(5)17(23)13-14(18(10)23)20(12)24(16,19(11)13)22(26)28-2/h3-20H,1-2H3

> <PUBCHEM_IUPAC_INCHIKEY>
RUVUIHUJFLEYKU-UHFFFAOYSA-N

> <PUBCHEM_XLOGP3_AA>
1.7

> <PUBCHEM_EXACT_MASS>
376.16745924

> <PUBCHEM_MOLECULAR_FORMULA>
C24H24O4

> <PUBCHEM_MOLECULAR_WEIGHT>
376.4

> <PUBCHEM_OPENEYE_CAN_SMILES>
COC(=O)C12C3C4C5C6C3C7C1C8C9C2C4C1C5C2C6C7C8C2(C19)C(=O)OC

> <PUBCHEM_OPENEYE_ISO_SMILES>
COC(=O)C12C3C4C5C6C3C7C1C8C9C2C4C1C5C2C6C7C8C2(C19)C(=O)OC

> <PUBCHEM_CACTVS_TPSA>
52.6

> <PUBCHEM_MONOISOTOPIC_WEIGHT>
376.16745924

> <PUBCHEM_TOTAL_CHARGE>
0

> <PUBCHEM_HEAVY_ATOM_COUNT>
28

> <PUBCHEM_ATOM_DEF_STEREO_COUNT>
0

> <PUBCHEM_ATOM_UDEF_STEREO_COUNT>
12

> <PUBCHEM_BOND_DEF_STEREO_COUNT>
0

> <PUBCHEM_BOND_UDEF_STEREO_COUNT>
0

> <PUBCHEM_ISOTOPIC_ATOM_COUNT>
0

> <PUBCHEM_COMPONENT_COUNT>
1

> <PUBCHEM_CACTVS_TAUTO_COUNT>
-1

> <PUBCHEM_COORDINATE_TYPE>
1
5
255

> <PUBCHEM_BONDANNOTATIONS>
10  13  3
15  19  3
16  21  3
17  22  3
18  20  3
19  23  3
20  24  3
21  24  3
22  23  3
7  5  3
8  6  3
9  14  3

$$$$
