140778
  -OEChem-10312421002D

 31 30  0     0  0  0  0  0  0999 V2000
    7.2105   -1.1094    0.0000 O   0  5  0  0  0  0  0  0  0  0  0  0
    5.8837   -2.2227    0.0000 O   0  0  0  0  0  0  0  0  0  0  0  0
    6.7909    2.9227    0.0000 O   0  5  0  0  0  0  0  0  0  0  0  0
    7.4249    0.5567    0.0000 O   0  5  0  0  0  0  0  0  0  0  0  0
    4.4249    2.2887    0.0000 O   0  5  0  0  0  0  0  0  0  0  0  0
    2.0000   -1.1906    0.0000 O   0  5  0  0  0  0  0  0  0  0  0  0
    3.7320    0.5414    0.0000 O   0  5  0  0  0  0  0  0  0  0  0  0
    3.7320   -2.9227    0.0000 O   0  5  0  0  0  0  0  0  0  0  0  0
    5.0589    2.9227    0.0000 O   0  0  0  0  0  0  0  0  0  0  0  0
    7.4249    2.2887    0.0000 O   0  0  0  0  0  0  0  0  0  0  0  0
    4.4249    0.5567    0.0000 O   0  0  0  0  0  0  0  0  0  0  0  0
    2.8660   -2.6906    0.0000 O   0  0  0  0  0  0  0  0  0  0  0  0
    2.2320   -0.3246    0.0000 O   0  0  0  0  0  0  0  0  0  0  0  0
    5.2320   -2.0567    0.0000 O   0  0  0  0  0  0  0  0  0  0  0  0
    6.2257   -1.2830    0.0000 N   0  3  0  0  0  0  0  0  0  0  0  0
    5.9249    2.4227    0.0000 N   0  3  0  0  0  0  0  0  0  0  0  0
    6.9249    1.4227    0.0000 N   0  3  0  0  0  0  0  0  0  0  0  0
    4.9249    1.4227    0.0000 N   0  3  0  0  0  0  0  0  0  0  0  0
    2.8660   -1.6906    0.0000 N   0  3  0  0  0  0  0  0  0  0  0  0
    3.2320   -0.3246    0.0000 N   0  3  0  0  0  0  0  0  0  0  0  0
    4.2320   -2.0567    0.0000 N   0  3  0  0  0  0  0  0  0  0  0  0
    5.5829   -0.5170    0.0000 C   0  0  0  0  0  0  0  0  0  0  0  0
    5.9249    0.4227    0.0000 C   0  0  0  0  0  0  0  0  0  0  0  0
    4.5981   -0.6906    0.0000 C   0  0  0  0  0  0  0  0  0  0  0  0
    5.9249    1.4227    0.0000 C   0  0  0  0  0  0  0  0  0  0  0  0
    3.7320   -1.1906    0.0000 C   0  0  0  0  0  0  0  0  0  0  0  0
    5.3708   -1.0996    0.0000 H   0  0  0  0  0  0  0  0  0  0  0  0
    6.3759   -0.0028    0.0000 H   0  0  0  0  0  0  0  0  0  0  0  0
    5.3143    0.5304    0.0000 H   0  0  0  0  0  0  0  0  0  0  0  0
    4.7411   -0.0874    0.0000 H   0  0  0  0  0  0  0  0  0  0  0  0
    4.8101   -1.2732    0.0000 H   0  0  0  0  0  0  0  0  0  0  0  0
  1 15  1  0  0  0  0
  2 15  2  0  0  0  0
  3 16  1  0  0  0  0
  4 17  1  0  0  0  0
  5 18  1  0  0  0  0
  6 19  1  0  0  0  0
  7 20  1  0  0  0  0
  8 21  1  0  0  0  0
  9 16  2  0  0  0  0
 10 17  2  0  0  0  0
 11 18  2  0  0  0  0
 12 19  2  0  0  0  0
 13 20  2  0  0  0  0
 14 21  2  0  0  0  0
 15 22  1  0  0  0  0
 16 25  1  0  0  0  0
 17 25  1  0  0  0  0
 18 25  1  0  0  0  0
 19 26  1  0  0  0  0
 20 26  1  0  0  0  0
 21 26  1  0  0  0  0
 22 23  1  0  0  0  0
 22 24  1  0  0  0  0
 22 27  1  0  0  0  0
 23 25  1  0  0  0  0
 23 28  1  0  0  0  0
 23 29  1  0  0  0  0
 24 26  1  0  0  0  0
 24 30  1  0  0  0  0
 24 31  1  0  0  0  0
M  CHG  8   1  -1   3  -1   4  -1   5  -1   6  -1   7  -1   8  -1  15   1
M  CHG  6  16   1  17   1  18   1  19   1  20   1  21   1
M  END
> <PUBCHEM_COMPOUND_CID>
140778

> <PUBCHEM_COMPOUND_CANONICALIZED>
1

> <PUBCHEM_CACTVS_COMPLEXITY>
537

> <PUBCHEM_CACTVS_HBOND_ACCEPTOR>
14

> <PUBCHEM_CACTVS_HBOND_DONOR>
0

> <PUBCHEM_CACTVS_ROTATABLE_BOND>
4

> <PUBCHEM_CACTVS_SUBSKEYS>
AAADcYBjvAAAAAAAAAAAAAAAAAAAAAAAAAAAAAAAAAAAAAAAAAAAHAAEAAAACCjBAAQBAAAQQAABAAAAAwAAAAAAAAAgAAAAAAAAAAIAwAAAAAAAAAAAAAAQAAAAAAAAAAAAAAAAAAAAAAAAAAAAAAAAAA==

> <PUBCHEM_IUPAC_OPENEYE_NAME>
1,1,1,3,5,5,5-heptanitropentane

> <PUBCHEM_IUPAC_CAS_NAME>
1,1,1,3,5,5,5-heptanitropentane

> <PUBCHEM_IUPAC_NAME_MARKUP>
1,1,1,3,5,5,5-heptanitropentane

> <PUBCHEM_IUPAC_NAME>
1,1,1,3,5,5,5-heptanitropentane

> <PUBCHEM_IUPAC_SYSTEMATIC_NAME>
1,1,1,3,5,5,5-heptanitropentane

> <PUBCHEM_IUPAC_TRADITIONAL_NAME>
1,1,1,3,5,5,5-heptanitropentane

> <PUBCHEM_IUPAC_INCHI>
InChI=1S/C5H5N7O14/c13-6(14)3(1-4(7(15)16,8(17)18)9(19)20)2-5(10(21)22,11(23)24)12(25)26/h3H,1-2H2

> <PUBCHEM_IUPAC_INCHIKEY>
QCCFVJPIRFTNPO-UHFFFAOYSA-N

> <PUBCHEM_XLOGP3_AA>
0.3

> <PUBCHEM_EXACT_MASS>
386.98944786

> <PUBCHEM_MOLECULAR_FORMULA>
C5H5N7O14

> <PUBCHEM_MOLECULAR_WEIGHT>
387.13

> <PUBCHEM_OPENEYE_CAN_SMILES>
C(C(CC([N+](=O)[O-])([N+](=O)[O-])[N+](=O)[O-])[N+](=O)[O-])C([N+](=O)[O-])([N+](=O)[O-])[N+](=O)[O-]

> <PUBCHEM_OPENEYE_ISO_SMILES>
C(C(CC([N+](=O)[O-])([N+](=O)[O-])[N+](=O)[O-])[N+](=O)[O-])C([N+](=O)[O-])([N+](=O)[O-])[N+](=O)[O-]

> <PUBCHEM_CACTVS_TPSA>
321

> <PUBCHEM_MONOISOTOPIC_WEIGHT>
386.98944786

> <PUBCHEM_TOTAL_CHARGE>
0

> <PUBCHEM_HEAVY_ATOM_COUNT>
26

> <PUBCHEM_ATOM_DEF_STEREO_COUNT>
0

> <PUBCHEM_ATOM_UDEF_STEREO_COUNT>
0

> <PUBCHEM_BOND_DEF_STEREO_COUNT>
0

> <PUBCHEM_BOND_UDEF_STEREO_COUNT>
0

> <PUBCHEM_ISOTOPIC_ATOM_COUNT>
0

> <PUBCHEM_COMPONENT_COUNT>
1

> <PUBCHEM_CACTVS_TAUTO_COUNT>
-1

> <PUBCHEM_COORDINATE_TYPE>
1
5
255

$$$$
