136804
  -OEChem-11012401203D

 21 22  0     0  0  0  0  0  0999 V2000
    1.2079   -1.2257    0.0002 O   0  0  0  0  0  0  0  0  0  0  0  0
    2.5918   -1.0994    0.0002 N   0  0  0  0  0  0  0  0  0  0  0  0
   -0.7888    0.0395    0.0001 C   0  0  0  0  0  0  0  0  0  0  0  0
    0.6537    0.0095    0.0000 C   0  0  0  0  0  0  0  0  0  0  0  0
    1.6279    0.9639   -0.0002 C   0  0  0  0  0  0  0  0  0  0  0  0
    2.8187    0.2173   -0.0001 C   0  0  0  0  0  0  0  0  0  0  0  0
   -1.4610    1.2617    0.0004 C   0  0  0  0  0  0  0  0  0  0  0  0
   -1.5112   -1.1537    0.0000 C   0  0  0  0  0  0  0  0  0  0  0  0
   -2.8556    1.2907    0.0001 C   0  0  0  0  0  0  0  0  0  0  0  0
   -2.9058   -1.1247   -0.0003 C   0  0  0  0  0  0  0  0  0  0  0  0
    4.2003    0.7236   -0.0003 C   0  0  0  0  0  0  0  0  0  0  0  0
   -3.5780    0.0975   -0.0003 C   0  0  0  0  0  0  0  0  0  0  0  0
    1.5120    2.0380   -0.0004 H   0  0  0  0  0  0  0  0  0  0  0  0
   -0.9258    2.2076    0.0006 H   0  0  0  0  0  0  0  0  0  0  0  0
   -1.0240   -2.1254   -0.0001 H   0  0  0  0  0  0  0  0  0  0  0  0
   -3.3793    2.2421    0.0002 H   0  0  0  0  0  0  0  0  0  0  0  0
   -3.4688   -2.0535   -0.0005 H   0  0  0  0  0  0  0  0  0  0  0  0
    4.7399    0.3774    0.8873 H   0  0  0  0  0  0  0  0  0  0  0  0
    4.7397    0.3770   -0.8878 H   0  0  0  0  0  0  0  0  0  0  0  0
    4.2238    1.8183   -0.0006 H   0  0  0  0  0  0  0  0  0  0  0  0
   -4.6639    0.1201   -0.0005 H   0  0  0  0  0  0  0  0  0  0  0  0
  1  2  1  0  0  0  0
  1  4  1  0  0  0  0
  2  6  2  0  0  0  0
  3  4  1  0  0  0  0
  3  7  2  0  0  0  0
  3  8  1  0  0  0  0
  4  5  2  0  0  0  0
  5  6  1  0  0  0  0
  5 13  1  0  0  0  0
  6 11  1  0  0  0  0
  7  9  1  0  0  0  0
  7 14  1  0  0  0  0
  8 10  2  0  0  0  0
  8 15  1  0  0  0  0
  9 12  2  0  0  0  0
  9 16  1  0  0  0  0
 10 12  1  0  0  0  0
 10 17  1  0  0  0  0
 11 18  1  0  0  0  0
 11 19  1  0  0  0  0
 11 20  1  0  0  0  0
 12 21  1  0  0  0  0
M  END
> <PUBCHEM_COMPOUND_CID>
136804

> <PUBCHEM_CONFORMER_RMSD>
0.4

> <PUBCHEM_CONFORMER_DIVERSEORDER>
1
2

> <PUBCHEM_MMFF94_PARTIAL_CHARGES>
18
1 -0.02
10 -0.15
11 0.18
12 -0.15
13 0.15
14 0.15
15 0.15
16 0.15
17 0.15
2 -0.41
21 0.15
3 0.05
4 0.09
5 -0.15
6 0.11
7 -0.15
8 -0.15
9 -0.15

> <PUBCHEM_EFFECTIVE_ROTOR_COUNT>
1

> <PUBCHEM_PHARMACOPHORE_FEATURES>
3
1 2 acceptor
5 1 2 4 5 6 rings
6 3 7 8 9 10 12 rings

> <PUBCHEM_HEAVY_ATOM_COUNT>
12

> <PUBCHEM_ATOM_DEF_STEREO_COUNT>
0

> <PUBCHEM_ATOM_UDEF_STEREO_COUNT>
0

> <PUBCHEM_BOND_DEF_STEREO_COUNT>
0

> <PUBCHEM_BOND_UDEF_STEREO_COUNT>
0

> <PUBCHEM_ISOTOPIC_ATOM_COUNT>
0

> <PUBCHEM_COMPONENT_COUNT>
1

> <PUBCHEM_CACTVS_TAUTO_COUNT>
1

> <PUBCHEM_CONFORMER_ID>
0002166400000001

> <PUBCHEM_MMFF94_ENERGY>
20.9933

> <PUBCHEM_FEATURE_SELFOVERLAP>
15.223

> <PUBCHEM_SHAPE_FINGERPRINT>
10608611 8 18411696573681174304
11062470 55 18410011048088212961
12932764 1 17346306111756022646
13024252 1 15357696388470421129
13380535 76 18409729564585287018
14144814 61 18409729538778157337
14325111 11 18410855438663972256
14445660 50 18342748403122004465
14897335 6 18410289194481087044
15219456 202 18201445735387611951
15442244 35 18122624951154314874
15669948 3 18342730849353470647
15775835 57 18410296891152295225
16945 1 18410575119270769607
200 152 18131340934720720709
20201158 50 18413107260094944795
20510252 161 18271810077714550993
20528008 55 18412257346365394125
20645477 70 18270397179107598071
20871998 184 18201162156425818847
21501502 16 18338795615580300219
23402539 116 18337662105001900359
23402655 69 18270670983794736605
23463225 33 18335700499117386882
23552423 10 18260830410222878343
23559900 14 18270960138325790482
2748010 2 18339082575309343375
3312278 4 18411984680266328987
369184 2 18411981347624836729
5104073 3 18410575063209381418
57096353 35 18337953501300252606
6333449 129 18412542124240455733
69090 78 18341889684751668879
7364860 26 18269273461397582218

> <PUBCHEM_SHAPE_MULTIPOLES>
236.1
6.63
1.41
0.6
2.79
0.04
0
-0.73
0
-0.46
0
-0.03
-0.02
0

> <PUBCHEM_SHAPE_SELFOVERLAP>
510.402

> <PUBCHEM_SHAPE_VOLUME>
131.4

> <PUBCHEM_COORDINATE_TYPE>
2
5
10

$$$$
