6796
  -OEChem-11012401053D

 23 25  0     0  0  0  0  0  0999 V2000
   -2.7846    0.8792    0.0000 N   0  0  0  0  0  0  0  0  0  0  0  0
    0.7179   -0.3936   -0.0002 C   0  0  0  0  0  0  0  0  0  0  0  0
   -0.7223   -0.4018   -0.0001 C   0  0  0  0  0  0  0  0  0  0  0  0
    1.3957    0.8496    0.0000 C   0  0  0  0  0  0  0  0  0  0  0  0
   -1.4402    0.8169    0.0000 C   0  0  0  0  0  0  0  0  0  0  0  0
    0.6591    2.0346    0.0000 C   0  0  0  0  0  0  0  0  0  0  0  0
   -0.7335    2.0080    0.0000 C   0  0  0  0  0  0  0  0  0  0  0  0
    1.5237   -1.5598   -0.0001 C   0  0  0  0  0  0  0  0  0  0  0  0
   -1.5115   -1.5750    0.0000 C   0  0  0  0  0  0  0  0  0  0  0  0
    2.8004    0.9000    0.0000 C   0  0  0  0  0  0  0  0  0  0  0  0
    2.9198   -1.4976    0.0000 C   0  0  0  0  0  0  0  0  0  0  0  0
    3.5585   -0.2669    0.0001 C   0  0  0  0  0  0  0  0  0  0  0  0
   -2.8998   -1.5192    0.0001 C   0  0  0  0  0  0  0  0  0  0  0  0
   -3.4835   -0.2743    0.0001 C   0  0  0  0  0  0  0  0  0  0  0  0
    1.1597    3.0010    0.0001 H   0  0  0  0  0  0  0  0  0  0  0  0
   -1.2685    2.9564    0.0000 H   0  0  0  0  0  0  0  0  0  0  0  0
    1.0767   -2.5506   -0.0002 H   0  0  0  0  0  0  0  0  0  0  0  0
   -1.0557   -2.5615    0.0000 H   0  0  0  0  0  0  0  0  0  0  0  0
    3.3195    1.8568    0.0001 H   0  0  0  0  0  0  0  0  0  0  0  0
    3.5028   -2.4139    0.0001 H   0  0  0  0  0  0  0  0  0  0  0  0
    4.6429   -0.2132    0.0002 H   0  0  0  0  0  0  0  0  0  0  0  0
   -3.4973   -2.4231    0.0002 H   0  0  0  0  0  0  0  0  0  0  0  0
   -4.5623   -0.1622    0.0001 H   0  0  0  0  0  0  0  0  0  0  0  0
  1  5  1  0  0  0  0
  1 14  2  0  0  0  0
  2  3  1  0  0  0  0
  2  4  1  0  0  0  0
  2  8  2  0  0  0  0
  3  5  2  0  0  0  0
  3  9  1  0  0  0  0
  4  6  1  0  0  0  0
  4 10  2  0  0  0  0
  5  7  1  0  0  0  0
  6  7  2  0  0  0  0
  6 15  1  0  0  0  0
  7 16  1  0  0  0  0
  8 11  1  0  0  0  0
  8 17  1  0  0  0  0
  9 13  2  0  0  0  0
  9 18  1  0  0  0  0
 10 12  1  0  0  0  0
 10 19  1  0  0  0  0
 11 12  2  0  0  0  0
 11 20  1  0  0  0  0
 12 21  1  0  0  0  0
 13 14  1  0  0  0  0
 13 22  1  0  0  0  0
 14 23  1  0  0  0  0
M  END
> <PUBCHEM_COMPOUND_CID>
6796

> <PUBCHEM_CONFORMER_RMSD>
0.4

> <PUBCHEM_CONFORMER_DIVERSEORDER>
1

> <PUBCHEM_MMFF94_PARTIAL_CHARGES>
20
1 -0.62
10 -0.15
11 -0.15
12 -0.15
13 -0.15
14 0.16
15 0.15
16 0.15
17 0.15
18 0.15
19 0.15
20 0.15
21 0.15
22 0.15
23 0.15
5 0.31
6 -0.15
7 -0.15
8 -0.15
9 -0.15

> <PUBCHEM_EFFECTIVE_ROTOR_COUNT>
0

> <PUBCHEM_PHARMACOPHORE_FEATURES>
4
1 1 acceptor
6 1 3 5 9 13 14 rings
6 2 3 4 5 6 7 rings
6 2 4 8 10 11 12 rings

> <PUBCHEM_HEAVY_ATOM_COUNT>
14

> <PUBCHEM_ATOM_DEF_STEREO_COUNT>
0

> <PUBCHEM_ATOM_UDEF_STEREO_COUNT>
0

> <PUBCHEM_BOND_DEF_STEREO_COUNT>
0

> <PUBCHEM_BOND_UDEF_STEREO_COUNT>
0

> <PUBCHEM_ISOTOPIC_ATOM_COUNT>
0

> <PUBCHEM_COMPONENT_COUNT>
1

> <PUBCHEM_CACTVS_TAUTO_COUNT>
1

> <PUBCHEM_CONFORMER_ID>
00001A8C00000001

> <PUBCHEM_MMFF94_ENERGY>
47.581

> <PUBCHEM_FEATURE_SELFOVERLAP>
20.35

> <PUBCHEM_SHAPE_FINGERPRINT>
10608611 8 18410851066403375008
10967382 1 18266458895891589030
11132069 177 18411694387727001904
11471102 20 18410288146793923047
11769659 78 18410569591431718242
12032990 46 18410580590827216994
12382932 28 18413388722086423066
13140716 1 18410573937933263082
13221675 6 18410575088979301122
14144814 61 18411419509651402211
14325111 11 18410855468733979104
15196674 1 18410856568235031398
15375462 189 18259987045954607131
15442244 35 18267022743762298130
15536298 74 18271526485308173120
16945 1 18410575084689706020
17844478 74 17967821539462510477
17990270 104 18336826514771925898
193761 8 17473825022345960711
200 152 18059846299257946623
20201158 50 18409165528010226179
20510252 161 18128816352432935832
20645477 70 18119801671941257319
20871998 184 18201999880673777359
21267235 1 18410583885067340902
21501502 16 18411140229371220712
21501925 9 18338788000729800634
22721475 48 18410578391798452836
2334 1 18411136973791369538
23402539 116 18342163441128810343
23463225 33 18409730664217818382
23552423 10 18262238935888576741
23559900 14 18268705014302506618
238 59 14240756800930213222
2748010 2 18411133649491827422
3312278 4 18410014338070078568
335352 9 18122343480161276949
34934 24 18410845568823773350
5104073 3 18410573989451726666
528886 8 18411695504350005018
53812653 166 18271521013351156696
63268167 104 18410859888429491225
7364860 26 18197779010285832744
8809292 202 18260834820890885346

> <PUBCHEM_SHAPE_MULTIPOLES>
283.13
5.41
2.13
0.61
0.09
0.36
0
-1.56
0
-0.01
0
-0.02
-0.01
0

> <PUBCHEM_SHAPE_SELFOVERLAP>
642.157

> <PUBCHEM_SHAPE_VOLUME>
146.4

> <PUBCHEM_COORDINATE_TYPE>
2
5
10

$$$$
