93177
  -OEChem-11012400403D

 18 19  0     0  0  0  0  0  0999 V2000
    0.0696    1.7325    0.0000 N   0  0  0  0  0  0  0  0  0  0  0  0
    4.2864   -0.6057   -0.0004 N   0  0  0  0  0  0  0  0  0  0  0  0
   -0.5661   -0.5920    0.0001 C   0  0  0  0  0  0  0  0  0  0  0  0
   -0.8845    0.7823   -0.0001 C   0  0  0  0  0  0  0  0  0  0  0  0
    0.7872   -0.9557    0.0002 C   0  0  0  0  0  0  0  0  0  0  0  0
   -1.5875   -1.5570    0.0001 C   0  0  0  0  0  0  0  0  0  0  0  0
   -2.2290    1.1431   -0.0001 C   0  0  0  0  0  0  0  0  0  0  0  0
    1.7725    0.0212    0.0003 C   0  0  0  0  0  0  0  0  0  0  0  0
   -2.9240   -1.1680    0.0000 C   0  0  0  0  0  0  0  0  0  0  0  0
   -3.2447    0.1838   -0.0002 C   0  0  0  0  0  0  0  0  0  0  0  0
    1.3639    1.3394    0.0002 C   0  0  0  0  0  0  0  0  0  0  0  0
    3.1562   -0.3239   -0.0001 C   0  0  0  0  0  0  0  0  0  0  0  0
    1.0665   -2.0082    0.0002 H   0  0  0  0  0  0  0  0  0  0  0  0
   -1.3475   -2.6180    0.0002 H   0  0  0  0  0  0  0  0  0  0  0  0
   -2.5066    2.1956   -0.0002 H   0  0  0  0  0  0  0  0  0  0  0  0
   -3.7104   -1.9164   -0.0001 H   0  0  0  0  0  0  0  0  0  0  0  0
   -4.2849    0.4964   -0.0002 H   0  0  0  0  0  0  0  0  0  0  0  0
    2.0798    2.1566    0.0001 H   0  0  0  0  0  0  0  0  0  0  0  0
  1  4  1  0  0  0  0
  1 11  2  0  0  0  0
  2 12  3  0  0  0  0
  3  4  1  0  0  0  0
  3  5  1  0  0  0  0
  3  6  2  0  0  0  0
  4  7  2  0  0  0  0
  5  8  2  0  0  0  0
  5 13  1  0  0  0  0
  6  9  1  0  0  0  0
  6 14  1  0  0  0  0
  7 10  1  0  0  0  0
  7 15  1  0  0  0  0
  8 11  1  0  0  0  0
  8 12  1  0  0  0  0
  9 10  2  0  0  0  0
  9 16  1  0  0  0  0
 10 17  1  0  0  0  0
 11 18  1  0  0  0  0
M  END
> <PUBCHEM_COMPOUND_CID>
93177

> <PUBCHEM_CONFORMER_RMSD>
0.4

> <PUBCHEM_CONFORMER_DIVERSEORDER>
1

> <PUBCHEM_MMFF94_PARTIAL_CHARGES>
17
1 -0.62
10 -0.15
11 0.16
12 0.48
13 0.15
14 0.15
15 0.15
16 0.15
17 0.15
18 0.15
2 -0.56
4 0.31
5 -0.15
6 -0.15
7 -0.15
8 0.07
9 -0.15

> <PUBCHEM_EFFECTIVE_ROTOR_COUNT>
0

> <PUBCHEM_PHARMACOPHORE_FEATURES>
4
1 1 acceptor
1 2 acceptor
6 1 3 4 5 8 11 rings
6 3 4 6 7 9 10 rings

> <PUBCHEM_HEAVY_ATOM_COUNT>
12

> <PUBCHEM_ATOM_DEF_STEREO_COUNT>
0

> <PUBCHEM_ATOM_UDEF_STEREO_COUNT>
0

> <PUBCHEM_BOND_DEF_STEREO_COUNT>
0

> <PUBCHEM_BOND_UDEF_STEREO_COUNT>
0

> <PUBCHEM_ISOTOPIC_ATOM_COUNT>
0

> <PUBCHEM_COMPONENT_COUNT>
1

> <PUBCHEM_CACTVS_TAUTO_COUNT>
1

> <PUBCHEM_CONFORMER_ID>
00016BF900000001

> <PUBCHEM_MMFF94_ENERGY>
30.1155

> <PUBCHEM_FEATURE_SELFOVERLAP>
20.329

> <PUBCHEM_SHAPE_FINGERPRINT>
10130415 120 18408322198444240056
10465860 71 18267327416126309460
11132069 177 18411412904244746128
11769659 78 18340763853047377199
12032990 46 18411142445664204618
12932764 1 17168411735973008301
13024252 1 16153712007500662259
14128692 85 18337956791240023501
14144814 61 18409164394217975010
14325111 11 18410574011026964320
14911166 2 18409157797490898493
15536298 74 18342176730369754936
16945 1 18410575076358032901
17804303 29 18342179972626633464
193761 8 17834394905461903142
200 152 17917981807220784007
20201158 50 18413671296590838991
20871998 184 18202002118335998767
21501502 16 18267308809948278381
21501925 9 18339632460088145290
23402539 116 18130780149552239821
23402655 69 18123733281015244445
23463225 33 18408322159947958662
23552423 10 18116432733436626277
23559900 14 18341609271096006418
2748010 2 18266454497982299525
5084963 1 18271526489360326635
528886 8 18411694361899227787
6333449 129 18342173341202357743
7364860 26 18197779019092168552
8809292 202 18188495786431202971

> <PUBCHEM_SHAPE_MULTIPOLES>
236.99
5.56
1.6
0.6
3.36
0.21
0
-1.29
0
-0.49
0
-0.03
-0.01
0

> <PUBCHEM_SHAPE_SELFOVERLAP>
522.192

> <PUBCHEM_SHAPE_VOLUME>
125.4

> <PUBCHEM_COORDINATE_TYPE>
2
5
10

$$$$
