638055
  -OEChem-11012400453D

 25 26  0     1  0  0  0  0  0999 V2000
    0.2676   -0.7009   -0.3021 C   0  0  1  0  0  0  0  0  0  0  0  0
    0.2675    0.7010    0.3023 C   0  0  1  0  0  0  0  0  0  0  0  0
    1.6327   -1.2269    0.1150 C   0  0  0  0  0  0  0  0  0  0  0  0
    1.6330    1.2270   -0.1142 C   0  0  0  0  0  0  0  0  0  0  0  0
   -0.9500   -1.4843    0.1629 C   0  0  0  0  0  0  0  0  0  0  0  0
   -0.9498    1.4842   -0.1634 C   0  0  0  0  0  0  0  0  0  0  0  0
    2.5519   -0.0002   -0.0006 C   0  0  0  0  0  0  0  0  0  0  0  0
   -2.2266   -0.7310   -0.2338 C   0  0  0  0  0  0  0  0  0  0  0  0
   -2.2264    0.7312    0.2339 C   0  0  0  0  0  0  0  0  0  0  0  0
    0.2428   -0.6340   -1.4002 H   0  0  0  0  0  0  0  0  0  0  0  0
    0.2423    0.6340    1.4004 H   0  0  0  0  0  0  0  0  0  0  0  0
    1.9712   -2.0523   -0.5186 H   0  0  0  0  0  0  0  0  0  0  0  0
    1.6178   -1.5838    1.1518 H   0  0  0  0  0  0  0  0  0  0  0  0
    1.9718    2.0513    0.5207 H   0  0  0  0  0  0  0  0  0  0  0  0
    1.6181    1.5857   -1.1504 H   0  0  0  0  0  0  0  0  0  0  0  0
   -0.9278   -1.6178    1.2514 H   0  0  0  0  0  0  0  0  0  0  0  0
   -0.9531   -2.4841   -0.2850 H   0  0  0  0  0  0  0  0  0  0  0  0
   -0.9275    1.6171   -1.2519 H   0  0  0  0  0  0  0  0  0  0  0  0
   -0.9528    2.4844    0.2839 H   0  0  0  0  0  0  0  0  0  0  0  0
    3.2008    0.0721    0.8789 H   0  0  0  0  0  0  0  0  0  0  0  0
    3.1984   -0.0727   -0.8819 H   0  0  0  0  0  0  0  0  0  0  0  0
   -3.1009   -1.2479    0.1778 H   0  0  0  0  0  0  0  0  0  0  0  0
   -2.3299   -0.7536   -1.3260 H   0  0  0  0  0  0  0  0  0  0  0  0
   -3.1007    1.2482   -0.1775 H   0  0  0  0  0  0  0  0  0  0  0  0
   -2.3294    0.7539    1.3261 H   0  0  0  0  0  0  0  0  0  0  0  0
  1  2  1  0  0  0  0
  1  3  1  0  0  0  0
  1  5  1  0  0  0  0
  1 10  1  0  0  0  0
  2  4  1  0  0  0  0
  2  6  1  0  0  0  0
  2 11  1  0  0  0  0
  3  7  1  0  0  0  0
  3 12  1  0  0  0  0
  3 13  1  0  0  0  0
  4  7  1  0  0  0  0
  4 14  1  0  0  0  0
  4 15  1  0  0  0  0
  5  8  1  0  0  0  0
  5 16  1  0  0  0  0
  5 17  1  0  0  0  0
  6  9  1  0  0  0  0
  6 18  1  0  0  0  0
  6 19  1  0  0  0  0
  7 20  1  0  0  0  0
  7 21  1  0  0  0  0
  8  9  1  0  0  0  0
  8 22  1  0  0  0  0
  8 23  1  0  0  0  0
  9 24  1  0  0  0  0
  9 25  1  0  0  0  0
M  END
> <PUBCHEM_COMPOUND_CID>
638055

> <PUBCHEM_CONFORMER_RMSD>
0.4

> <PUBCHEM_CONFORMER_DIVERSEORDER>
1

> <PUBCHEM_MMFF94_PARTIAL_CHARGES>
0

> <PUBCHEM_EFFECTIVE_ROTOR_COUNT>
1.4

> <PUBCHEM_PHARMACOPHORE_FEATURES>
2
5 1 2 3 4 7 rings
6 1 2 5 6 8 9 rings

> <PUBCHEM_HEAVY_ATOM_COUNT>
9

> <PUBCHEM_ATOM_DEF_STEREO_COUNT>
2

> <PUBCHEM_ATOM_UDEF_STEREO_COUNT>
0

> <PUBCHEM_BOND_DEF_STEREO_COUNT>
0

> <PUBCHEM_BOND_UDEF_STEREO_COUNT>
0

> <PUBCHEM_ISOTOPIC_ATOM_COUNT>
0

> <PUBCHEM_COMPONENT_COUNT>
1

> <PUBCHEM_CACTVS_TAUTO_COUNT>
1

> <PUBCHEM_CONFORMER_ID>
0009BC6700000001

> <PUBCHEM_MMFF94_ENERGY>
13.2993

> <PUBCHEM_FEATURE_SELFOVERLAP>
10.216

> <PUBCHEM_SHAPE_FINGERPRINT>
12897270 3 18410011078168847436
14325111 11 18411419496713824112
16945 1 18409448085302630790
18185500 45 18266739267098634447
21040471 1 18411137991777707504
23235685 24 18341046320203757193
23552423 10 18333733541471442934
241688 4 18409444829896911689
2748010 2 17834113426169035317
29004967 10 18260834846681352786
369184 2 18409444773856504387
5084963 1 18343298145739565697
66348 1 18194964264702449359

> <PUBCHEM_SHAPE_MULTIPOLES>
185.22
3.25
1.67
0.66
0.18
0
0
0
0
-0.15
0
-0.02
0
-0.07

> <PUBCHEM_SHAPE_SELFOVERLAP>
375.225

> <PUBCHEM_SHAPE_VOLUME>
104.7

> <PUBCHEM_COORDINATE_TYPE>
2
5
10

$$$$
