23171
  -OEChem-10312420342D

 78 78  0     0  0  0  0  0  0999 V2000
    2.8090   -7.2306    0.0000 C   0  0  0  0  0  0  0  0  0  0  0  0
    2.0000   -7.8184    0.0000 C   0  0  0  0  0  0  0  0  0  0  0  0
    3.6180   -7.8184    0.0000 C   0  0  0  0  0  0  0  0  0  0  0  0
    2.3090   -8.7694    0.0000 C   0  0  0  0  0  0  0  0  0  0  0  0
    3.3090   -8.7694    0.0000 C   0  0  0  0  0  0  0  0  0  0  0  0
    2.8090   -6.2306    0.0000 C   0  0  0  0  0  0  0  0  0  0  0  0
    3.6750   -5.7306    0.0000 C   0  0  0  0  0  0  0  0  0  0  0  0
    3.6750   -4.7306    0.0000 C   0  0  0  0  0  0  0  0  0  0  0  0
    4.5411   -4.2306    0.0000 C   0  0  0  0  0  0  0  0  0  0  0  0
    4.5411   -3.2306    0.0000 C   0  0  0  0  0  0  0  0  0  0  0  0
    5.4071   -2.7306    0.0000 C   0  0  0  0  0  0  0  0  0  0  0  0
    5.4071   -1.7306    0.0000 C   0  0  0  0  0  0  0  0  0  0  0  0
    6.2731   -1.2306    0.0000 C   0  0  0  0  0  0  0  0  0  0  0  0
    6.2731   -0.2306    0.0000 C   0  0  0  0  0  0  0  0  0  0  0  0
    7.1391    0.2694    0.0000 C   0  0  0  0  0  0  0  0  0  0  0  0
    7.1391    1.2694    0.0000 C   0  0  0  0  0  0  0  0  0  0  0  0
    8.0052    1.7694    0.0000 C   0  0  0  0  0  0  0  0  0  0  0  0
    8.0052    2.7694    0.0000 C   0  0  0  0  0  0  0  0  0  0  0  0
    8.8712    3.2694    0.0000 C   0  0  0  0  0  0  0  0  0  0  0  0
    8.8712    4.2694    0.0000 C   0  0  0  0  0  0  0  0  0  0  0  0
    9.7372    4.7694    0.0000 C   0  0  0  0  0  0  0  0  0  0  0  0
    9.7372    5.7694    0.0000 C   0  0  0  0  0  0  0  0  0  0  0  0
   10.6032    6.2694    0.0000 C   0  0  0  0  0  0  0  0  0  0  0  0
   10.6032    7.2694    0.0000 C   0  0  0  0  0  0  0  0  0  0  0  0
   11.4693    7.7694    0.0000 C   0  0  0  0  0  0  0  0  0  0  0  0
   11.4693    8.7694    0.0000 C   0  0  0  0  0  0  0  0  0  0  0  0
    3.3614   -6.9491    0.0000 H   0  0  0  0  0  0  0  0  0  0  0  0
    1.6900   -7.2814    0.0000 H   0  0  0  0  0  0  0  0  0  0  0  0
    1.4336   -8.0705    0.0000 H   0  0  0  0  0  0  0  0  0  0  0  0
    4.1844   -8.0705    0.0000 H   0  0  0  0  0  0  0  0  0  0  0  0
    3.9280   -7.2814    0.0000 H   0  0  0  0  0  0  0  0  0  0  0  0
    1.7026   -8.8983    0.0000 H   0  0  0  0  0  0  0  0  0  0  0  0
    2.3738   -9.3860    0.0000 H   0  0  0  0  0  0  0  0  0  0  0  0
    3.2442   -9.3860    0.0000 H   0  0  0  0  0  0  0  0  0  0  0  0
    3.9155   -8.8983    0.0000 H   0  0  0  0  0  0  0  0  0  0  0  0
    2.5970   -5.6480    0.0000 H   0  0  0  0  0  0  0  0  0  0  0  0
    2.1984   -6.3382    0.0000 H   0  0  0  0  0  0  0  0  0  0  0  0
    3.8871   -6.3132    0.0000 H   0  0  0  0  0  0  0  0  0  0  0  0
    4.2856   -5.6229    0.0000 H   0  0  0  0  0  0  0  0  0  0  0  0
    3.4630   -4.1480    0.0000 H   0  0  0  0  0  0  0  0  0  0  0  0
    3.0645   -4.8382    0.0000 H   0  0  0  0  0  0  0  0  0  0  0  0
    4.7531   -4.8132    0.0000 H   0  0  0  0  0  0  0  0  0  0  0  0
    5.1516   -4.1229    0.0000 H   0  0  0  0  0  0  0  0  0  0  0  0
    4.3290   -2.6480    0.0000 H   0  0  0  0  0  0  0  0  0  0  0  0
    3.9305   -3.3382    0.0000 H   0  0  0  0  0  0  0  0  0  0  0  0
    5.6192   -3.3132    0.0000 H   0  0  0  0  0  0  0  0  0  0  0  0
    6.0177   -2.6229    0.0000 H   0  0  0  0  0  0  0  0  0  0  0  0
    5.1950   -1.1480    0.0000 H   0  0  0  0  0  0  0  0  0  0  0  0
    4.7965   -1.8382    0.0000 H   0  0  0  0  0  0  0  0  0  0  0  0
    6.4852   -1.8132    0.0000 H   0  0  0  0  0  0  0  0  0  0  0  0
    6.8837   -1.1229    0.0000 H   0  0  0  0  0  0  0  0  0  0  0  0
    6.0611    0.3520    0.0000 H   0  0  0  0  0  0  0  0  0  0  0  0
    5.6625   -0.3382    0.0000 H   0  0  0  0  0  0  0  0  0  0  0  0
    7.3512   -0.3132    0.0000 H   0  0  0  0  0  0  0  0  0  0  0  0
    7.7497    0.3771    0.0000 H   0  0  0  0  0  0  0  0  0  0  0  0
    6.9271    1.8520    0.0000 H   0  0  0  0  0  0  0  0  0  0  0  0
    6.5286    1.1618    0.0000 H   0  0  0  0  0  0  0  0  0  0  0  0
    8.2172    1.1868    0.0000 H   0  0  0  0  0  0  0  0  0  0  0  0
    8.6158    1.8771    0.0000 H   0  0  0  0  0  0  0  0  0  0  0  0
    7.7931    3.3520    0.0000 H   0  0  0  0  0  0  0  0  0  0  0  0
    7.3946    2.6618    0.0000 H   0  0  0  0  0  0  0  0  0  0  0  0
    9.0832    2.6868    0.0000 H   0  0  0  0  0  0  0  0  0  0  0  0
    9.4818    3.3771    0.0000 H   0  0  0  0  0  0  0  0  0  0  0  0
    8.6591    4.8520    0.0000 H   0  0  0  0  0  0  0  0  0  0  0  0
    8.2606    4.1618    0.0000 H   0  0  0  0  0  0  0  0  0  0  0  0
    9.9493    4.1868    0.0000 H   0  0  0  0  0  0  0  0  0  0  0  0
   10.3478    4.8771    0.0000 H   0  0  0  0  0  0  0  0  0  0  0  0
    9.5252    6.3520    0.0000 H   0  0  0  0  0  0  0  0  0  0  0  0
    9.1266    5.6618    0.0000 H   0  0  0  0  0  0  0  0  0  0  0  0
   10.8153    5.6868    0.0000 H   0  0  0  0  0  0  0  0  0  0  0  0
   11.2138    6.3771    0.0000 H   0  0  0  0  0  0  0  0  0  0  0  0
   10.3912    7.8520    0.0000 H   0  0  0  0  0  0  0  0  0  0  0  0
    9.9927    7.1618    0.0000 H   0  0  0  0  0  0  0  0  0  0  0  0
   11.6813    7.1868    0.0000 H   0  0  0  0  0  0  0  0  0  0  0  0
   12.0799    7.8771    0.0000 H   0  0  0  0  0  0  0  0  0  0  0  0
   12.0893    8.7694    0.0000 H   0  0  0  0  0  0  0  0  0  0  0  0
   11.4693    9.3894    0.0000 H   0  0  0  0  0  0  0  0  0  0  0  0
   10.8493    8.7694    0.0000 H   0  0  0  0  0  0  0  0  0  0  0  0
  1  2  1  0  0  0  0
  1  3  1  0  0  0  0
  1  6  1  0  0  0  0
  1 27  1  0  0  0  0
  2  4  1  0  0  0  0
  2 28  1  0  0  0  0
  2 29  1  0  0  0  0
  3  5  1  0  0  0  0
  3 30  1  0  0  0  0
  3 31  1  0  0  0  0
  4  5  1  0  0  0  0
  4 32  1  0  0  0  0
  4 33  1  0  0  0  0
  5 34  1  0  0  0  0
  5 35  1  0  0  0  0
  6  7  1  0  0  0  0
  6 36  1  0  0  0  0
  6 37  1  0  0  0  0
  7  8  1  0  0  0  0
  7 38  1  0  0  0  0
  7 39  1  0  0  0  0
  8  9  1  0  0  0  0
  8 40  1  0  0  0  0
  8 41  1  0  0  0  0
  9 10  1  0  0  0  0
  9 42  1  0  0  0  0
  9 43  1  0  0  0  0
 10 11  1  0  0  0  0
 10 44  1  0  0  0  0
 10 45  1  0  0  0  0
 11 12  1  0  0  0  0
 11 46  1  0  0  0  0
 11 47  1  0  0  0  0
 12 13  1  0  0  0  0
 12 48  1  0  0  0  0
 12 49  1  0  0  0  0
 13 14  1  0  0  0  0
 13 50  1  0  0  0  0
 13 51  1  0  0  0  0
 14 15  1  0  0  0  0
 14 52  1  0  0  0  0
 14 53  1  0  0  0  0
 15 16  1  0  0  0  0
 15 54  1  0  0  0  0
 15 55  1  0  0  0  0
 16 17  1  0  0  0  0
 16 56  1  0  0  0  0
 16 57  1  0  0  0  0
 17 18  1  0  0  0  0
 17 58  1  0  0  0  0
 17 59  1  0  0  0  0
 18 19  1  0  0  0  0
 18 60  1  0  0  0  0
 18 61  1  0  0  0  0
 19 20  1  0  0  0  0
 19 62  1  0  0  0  0
 19 63  1  0  0  0  0
 20 21  1  0  0  0  0
 20 64  1  0  0  0  0
 20 65  1  0  0  0  0
 21 22  1  0  0  0  0
 21 66  1  0  0  0  0
 21 67  1  0  0  0  0
 22 23  1  0  0  0  0
 22 68  1  0  0  0  0
 22 69  1  0  0  0  0
 23 24  1  0  0  0  0
 23 70  1  0  0  0  0
 23 71  1  0  0  0  0
 24 25  1  0  0  0  0
 24 72  1  0  0  0  0
 24 73  1  0  0  0  0
 25 26  1  0  0  0  0
 25 74  1  0  0  0  0
 25 75  1  0  0  0  0
 26 76  1  0  0  0  0
 26 77  1  0  0  0  0
 26 78  1  0  0  0  0
M  END
> <PUBCHEM_COMPOUND_CID>
23171

> <PUBCHEM_COMPOUND_CANONICALIZED>
1

> <PUBCHEM_CACTVS_COMPLEXITY>
251

> <PUBCHEM_CACTVS_HBOND_ACCEPTOR>
0

> <PUBCHEM_CACTVS_HBOND_DONOR>
0

> <PUBCHEM_CACTVS_ROTATABLE_BOND>
20

> <PUBCHEM_CACTVS_SUBSKEYS>
AAADcfB4AAAAAAAAAAAAAAAAAAAAAYAAAAAAAAAAAAAAAAAAAAAAGAAAAAAADQCAAAACAAAAAAAAAAAAAAAAAAAAAAAAAAAAAAAAAAIAAAAAAAAAAAAAAAEAgMAOAAAAAAAAAAAAAAAAAAAAAAAAAAAAAA==

> <PUBCHEM_IUPAC_OPENEYE_NAME>
henicosylcyclopentane

> <PUBCHEM_IUPAC_CAS_NAME>
heneicosylcyclopentane

> <PUBCHEM_IUPAC_NAME_MARKUP>
henicosylcyclopentane

> <PUBCHEM_IUPAC_NAME>
henicosylcyclopentane

> <PUBCHEM_IUPAC_SYSTEMATIC_NAME>
henicosylcyclopentane

> <PUBCHEM_IUPAC_TRADITIONAL_NAME>
heneicosylcyclopentane

> <PUBCHEM_IUPAC_INCHI>
InChI=1S/C26H52/c1-2-3-4-5-6-7-8-9-10-11-12-13-14-15-16-17-18-19-20-23-26-24-21-22-25-26/h26H,2-25H2,1H3

> <PUBCHEM_IUPAC_INCHIKEY>
GNECQVKDNNGLCG-UHFFFAOYSA-N

> <PUBCHEM_XLOGP3_AA>
13.8

> <PUBCHEM_EXACT_MASS>
364.406901659

> <PUBCHEM_MOLECULAR_FORMULA>
C26H52

> <PUBCHEM_MOLECULAR_WEIGHT>
364.7

> <PUBCHEM_OPENEYE_CAN_SMILES>
CCCCCCCCCCCCCCCCCCCCCC1CCCC1

> <PUBCHEM_OPENEYE_ISO_SMILES>
CCCCCCCCCCCCCCCCCCCCCC1CCCC1

> <PUBCHEM_CACTVS_TPSA>
0

> <PUBCHEM_MONOISOTOPIC_WEIGHT>
364.406901659

> <PUBCHEM_TOTAL_CHARGE>
0

> <PUBCHEM_HEAVY_ATOM_COUNT>
26

> <PUBCHEM_ATOM_DEF_STEREO_COUNT>
0

> <PUBCHEM_ATOM_UDEF_STEREO_COUNT>
0

> <PUBCHEM_BOND_DEF_STEREO_COUNT>
0

> <PUBCHEM_BOND_UDEF_STEREO_COUNT>
0

> <PUBCHEM_ISOTOPIC_ATOM_COUNT>
0

> <PUBCHEM_COMPONENT_COUNT>
1

> <PUBCHEM_CACTVS_TAUTO_COUNT>
-1

> <PUBCHEM_COORDINATE_TYPE>
1
5
255

$$$$
