24142
  -OEChem-11012400373D

 17 16  0     0  0  0  0  0  0999 V2000
    1.7932    1.1413    1.6408 Cl  0  0  0  0  0  0  0  0  0  0  0  0
    2.9893   -1.4072   -0.0334 Cl  0  0  0  0  0  0  0  0  0  0  0  0
    1.7502    1.1677   -1.6343 Cl  0  0  0  0  0  0  0  0  0  0  0  0
    1.5260   -0.0092   -0.0029 Si  0  0  0  0  0  0  0  0  0  0  0  0
   -1.3508    0.1563    0.0363 C   0  0  0  0  0  0  0  0  0  0  0  0
   -0.1631   -0.8123    0.0128 C   0  0  0  0  0  0  0  0  0  0  0  0
   -2.6817   -0.5968   -0.0003 C   0  0  0  0  0  0  0  0  0  0  0  0
   -3.8630    0.3602   -0.0189 C   0  0  0  0  0  0  0  0  0  0  0  0
   -1.3126    0.7810    0.9377 H   0  0  0  0  0  0  0  0  0  0  0  0
   -1.3001    0.8365   -0.8234 H   0  0  0  0  0  0  0  0  0  0  0  0
   -0.2254   -1.4743    0.8850 H   0  0  0  0  0  0  0  0  0  0  0  0
   -0.2440   -1.4558   -0.8717 H   0  0  0  0  0  0  0  0  0  0  0  0
   -2.7619   -1.2529    0.8741 H   0  0  0  0  0  0  0  0  0  0  0  0
   -2.7248   -1.2349   -0.8906 H   0  0  0  0  0  0  0  0  0  0  0  0
   -3.8300    1.0076   -0.9010 H   0  0  0  0  0  0  0  0  0  0  0  0
   -4.8035   -0.1991   -0.0431 H   0  0  0  0  0  0  0  0  0  0  0  0
   -3.8678    0.9946    0.8732 H   0  0  0  0  0  0  0  0  0  0  0  0
  1  4  1  0  0  0  0
  2  4  1  0  0  0  0
  3  4  1  0  0  0  0
  4  6  1  0  0  0  0
  5  6  1  0  0  0  0
  5  7  1  0  0  0  0
  5  9  1  0  0  0  0
  5 10  1  0  0  0  0
  6 11  1  0  0  0  0
  6 12  1  0  0  0  0
  7  8  1  0  0  0  0
  7 13  1  0  0  0  0
  7 14  1  0  0  0  0
  8 15  1  0  0  0  0
  8 16  1  0  0  0  0
  8 17  1  0  0  0  0
M  END
> <PUBCHEM_COMPOUND_CID>
24142

> <PUBCHEM_CONFORMER_RMSD>
0.6

> <PUBCHEM_CONFORMER_DIVERSEORDER>
1
7
6
5
4
2
3

> <PUBCHEM_MMFF94_PARTIAL_CHARGES>
5
1 -0.37
2 -0.37
3 -0.37
4 1.19
6 -0.08

> <PUBCHEM_EFFECTIVE_ROTOR_COUNT>
3

> <PUBCHEM_PHARMACOPHORE_FEATURES>
1
1 8 hydrophobe

> <PUBCHEM_HEAVY_ATOM_COUNT>
8

> <PUBCHEM_ATOM_DEF_STEREO_COUNT>
0

> <PUBCHEM_ATOM_UDEF_STEREO_COUNT>
0

> <PUBCHEM_BOND_DEF_STEREO_COUNT>
0

> <PUBCHEM_BOND_UDEF_STEREO_COUNT>
0

> <PUBCHEM_ISOTOPIC_ATOM_COUNT>
0

> <PUBCHEM_COMPONENT_COUNT>
1

> <PUBCHEM_CACTVS_TAUTO_COUNT>
1

> <PUBCHEM_CONFORMER_ID>
00005E4E00000001

> <PUBCHEM_MMFF94_ENERGY>
-0.778

> <PUBCHEM_FEATURE_SELFOVERLAP>
5.074

> <PUBCHEM_SHAPE_FINGERPRINT>
12932741 1 17631743801603996215
12932764 1 18059582450626668823
14325111 11 18130500920537580051
14344429 50 17917994983890264928
14390081 3 18131347536053909977
14648413 74 17677629703164945358
15775835 57 18201719591107975134
170605 34 17023757869036185692
20339313 130 18187093818852952654
20711985 327 16845578573849709210
21524375 3 16448144947688180268
23380061 81 18040725761606336037
23552449 11 17418093234708016738
3248919 1 18041553758471313443
5084963 1 18334858294484782987

> <PUBCHEM_SHAPE_MULTIPOLES>
188.46
5.56
1.38
1.34
6.2
0.05
0
0.54
-0.03
-1.06
-0.01
-1.11
-0.74
0.02

> <PUBCHEM_SHAPE_SELFOVERLAP>
302.663

> <PUBCHEM_SHAPE_VOLUME>
132.6

> <PUBCHEM_COORDINATE_TYPE>
2
5
10

$$$$
