11802
  -OEChem-11012401163D

 23 24  0     0  0  0  0  0  0999 V2000
   -1.6927   -2.3524   -0.0009 O   0  0  0  0  0  0  0  0  0  0  0  0
    0.4734    3.4996   -0.0002 O   0  5  0  0  0  0  0  0  0  0  0  0
    2.4054    2.4573   -0.0001 O   0  0  0  0  0  0  0  0  0  0  0  0
   -3.6253    1.1971   -0.0010 O   0  5  0  0  0  0  0  0  0  0  0  0
   -3.7034   -0.9967    0.0001 O   0  0  0  0  0  0  0  0  0  0  0  0
    1.1537    2.4488   -0.0002 N   0  3  0  0  0  0  0  0  0  0  0  0
   -3.0592    0.0787    0.0001 N   0  3  0  0  0  0  0  0  0  0  0  0
    1.1704   -0.0275    0.0002 C   0  0  0  0  0  0  0  0  0  0  0  0
    0.4392   -1.2392    0.0003 C   0  0  0  0  0  0  0  0  0  0  0  0
    0.4765    1.1936    0.0002 C   0  0  0  0  0  0  0  0  0  0  0  0
   -0.9645   -1.1940    0.0005 C   0  0  0  0  0  0  0  0  0  0  0  0
   -1.6377    0.0281    0.0010 C   0  0  0  0  0  0  0  0  0  0  0  0
   -0.9185    1.2197    0.0005 C   0  0  0  0  0  0  0  0  0  0  0  0
    2.5741   -0.0724   -0.0002 C   0  0  0  0  0  0  0  0  0  0  0  0
    1.1332   -2.4601    0.0000 C   0  0  0  0  0  0  0  0  0  0  0  0
    3.2473   -1.2944   -0.0002 C   0  0  0  0  0  0  0  0  0  0  0  0
    2.5281   -2.4860   -0.0001 C   0  0  0  0  0  0  0  0  0  0  0  0
   -1.4505    2.1681    0.0005 H   0  0  0  0  0  0  0  0  0  0  0  0
    3.2899    0.7299   -0.0009 H   0  0  0  0  0  0  0  0  0  0  0  0
    0.6248   -3.4199   -0.0172 H   0  0  0  0  0  0  0  0  0  0  0  0
    4.3335   -1.3201   -0.0014 H   0  0  0  0  0  0  0  0  0  0  0  0
    3.0533   -3.4368   -0.0042 H   0  0  0  0  0  0  0  0  0  0  0  0
   -1.2220   -3.0408    0.4951 H   0  0  0  0  0  0  0  0  0  0  0  0
  1 11  1  0  0  0  0
  1 23  1  0  0  0  0
  2  6  1  0  0  0  0
  3  6  2  0  0  0  0
  4  7  1  0  0  0  0
  5  7  2  0  0  0  0
  6 10  1  0  0  0  0
  7 12  1  0  0  0  0
  8  9  1  0  0  0  0
  8 10  1  0  0  0  0
  8 14  2  0  0  0  0
  9 11  1  0  0  0  0
  9 15  2  0  0  0  0
 10 13  2  0  0  0  0
 11 12  2  0  0  0  0
 12 13  1  0  0  0  0
 13 18  1  0  0  0  0
 14 16  1  0  0  0  0
 14 19  1  0  0  0  0
 15 17  1  0  0  0  0
 15 20  1  0  0  0  0
 16 17  2  0  0  0  0
 16 21  1  0  0  0  0
 17 22  1  0  0  0  0
M  CHG  4   2  -1   4  -1   6   1   7   1
M  END
> <PUBCHEM_COMPOUND_CID>
11802

> <PUBCHEM_CONFORMER_RMSD>
0.6

> <PUBCHEM_CONFORMER_DIVERSEORDER>
1

> <PUBCHEM_MMFF94_PARTIAL_CHARGES>
21
1 -0.53
10 0.13
11 0.08
12 0.13
13 -0.15
14 -0.15
15 -0.15
16 -0.15
17 -0.15
18 0.15
19 0.15
2 -0.52
20 0.15
21 0.15
22 0.15
23 0.45
3 -0.52
4 -0.52
5 -0.52
6 0.91
7 0.91

> <PUBCHEM_EFFECTIVE_ROTOR_COUNT>
2

> <PUBCHEM_PHARMACOPHORE_FEATURES>
9
1 1 donor
1 2 acceptor
1 2 anion
1 3 acceptor
1 4 acceptor
1 4 anion
1 5 acceptor
6 8 9 10 11 12 13 rings
6 8 9 14 15 16 17 rings

> <PUBCHEM_HEAVY_ATOM_COUNT>
17

> <PUBCHEM_ATOM_DEF_STEREO_COUNT>
0

> <PUBCHEM_ATOM_UDEF_STEREO_COUNT>
0

> <PUBCHEM_BOND_DEF_STEREO_COUNT>
0

> <PUBCHEM_BOND_UDEF_STEREO_COUNT>
0

> <PUBCHEM_ISOTOPIC_ATOM_COUNT>
0

> <PUBCHEM_COMPONENT_COUNT>
1

> <PUBCHEM_CACTVS_TAUTO_COUNT>
6

> <PUBCHEM_CONFORMER_ID>
00002E1A00000001

> <PUBCHEM_MMFF94_ENERGY>
78.5997

> <PUBCHEM_FEATURE_SELFOVERLAP>
45.861

> <PUBCHEM_SHAPE_FINGERPRINT>
10967382 1 18338797921967006724
11471102 20 18410006598787061047
11680986 33 18338519758515719466
116883 192 17837212567275118862
12032990 46 18338803286371149111
12553582 1 18338799992189073486
13132413 78 18341613689652094012
13140716 1 18338516459896329890
13380535 76 18120649399036166418
13897977 150 18265612263474835071
14648413 74 18336548334066916347
14790565 3 18267042578043285324
15442244 35 18412263909017341739
15490181 7 17762629786065106086
15490181 8 17834103522248822266
16945 1 18410575088968790598
193761 8 18194682802621566854
19591789 44 17257660439245961555
20510252 161 17910105812009900578
20511035 2 18058721536958404366
20645477 70 18336255851790782327
21029758 11 18339635629526213253
21267235 1 18339089180937935015
21501502 16 18267301122004336735
221490 88 18336270145162608867
2334 1 18050567644599568778
23402539 116 18126552440853751638
23419403 2 14141069106418669483
23463225 33 18337955567285295774
2748010 2 18120939665853233886
3071541 12 18411141376212183604
3071541 158 18261674783333958196
3091708 16 9358992956772622312
335352 9 18338797788923358215
34934 24 18338507539339316218
54173680 148 17473543551865112682
589210 1 18193839468660529419
7364860 26 18339643450677360004
7832392 63 18413105052466144815
81228 2 17834968472706284336

> <PUBCHEM_SHAPE_MULTIPOLES>
310.54
4.88
3.38
0.58
2.34
2.25
0
-1.88
0
-1.02
0
-0.06
-0.03
0

> <PUBCHEM_SHAPE_SELFOVERLAP>
690.197

> <PUBCHEM_SHAPE_VOLUME>
166

> <PUBCHEM_COORDINATE_TYPE>
2
5
10

$$$$
