7370
  -OEChem-11012401073D

 17 17  0     0  0  0  0  0  0999 V2000
    1.7572   -0.0002   -0.1096 S   0  0  0  0  0  0  0  0  0  0  0  0
    2.1983   -1.2605   -0.6910 O   0  0  0  0  0  0  0  0  0  0  0  0
    2.2019    1.2590   -0.6903 O   0  0  0  0  0  0  0  0  0  0  0  0
    2.1354    0.0004    1.5566 N   0  0  0  0  0  0  0  0  0  0  0  0
    0.0121    0.0000   -0.0547 C   0  0  0  0  0  0  0  0  0  0  0  0
   -0.6849    1.2081   -0.0334 C   0  0  0  0  0  0  0  0  0  0  0  0
   -0.6851   -1.2079   -0.0323 C   0  0  0  0  0  0  0  0  0  0  0  0
   -2.0791    1.2083    0.0104 C   0  0  0  0  0  0  0  0  0  0  0  0
   -2.0794   -1.2077    0.0115 C   0  0  0  0  0  0  0  0  0  0  0  0
   -2.7764    0.0004    0.0328 C   0  0  0  0  0  0  0  0  0  0  0  0
   -0.1623    2.1604   -0.0436 H   0  0  0  0  0  0  0  0  0  0  0  0
   -0.1629   -2.1604   -0.0416 H   0  0  0  0  0  0  0  0  0  0  0  0
   -2.6219    2.1488    0.0287 H   0  0  0  0  0  0  0  0  0  0  0  0
   -2.6224   -2.1481    0.0307 H   0  0  0  0  0  0  0  0  0  0  0  0
   -3.8619    0.0005    0.0678 H   0  0  0  0  0  0  0  0  0  0  0  0
    2.5282   -0.8604    1.9567 H   0  0  0  0  0  0  0  0  0  0  0  0
    2.5284    0.8615    1.9559 H   0  0  0  0  0  0  0  0  0  0  0  0
  1  2  2  0  0  0  0
  1  3  2  0  0  0  0
  1  4  1  0  0  0  0
  1  5  1  0  0  0  0
  4 16  1  0  0  0  0
  4 17  1  0  0  0  0
  5  6  2  0  0  0  0
  5  7  1  0  0  0  0
  6  8  1  0  0  0  0
  6 11  1  0  0  0  0
  7  9  2  0  0  0  0
  7 12  1  0  0  0  0
  8 10  2  0  0  0  0
  8 13  1  0  0  0  0
  9 10  1  0  0  0  0
  9 14  1  0  0  0  0
 10 15  1  0  0  0  0
M  END
> <PUBCHEM_COMPOUND_CID>
7370

> <PUBCHEM_CONFORMER_RMSD>
0.4

> <PUBCHEM_CONFORMER_DIVERSEORDER>
1

> <PUBCHEM_MMFF94_PARTIAL_CHARGES>
17
1 1.45
10 -0.15
11 0.15
12 0.15
13 0.15
14 0.15
15 0.15
16 0.42
17 0.42
2 -0.65
3 -0.65
4 -0.98
5 -0.01
6 -0.15
7 -0.15
8 -0.15
9 -0.15

> <PUBCHEM_EFFECTIVE_ROTOR_COUNT>
1

> <PUBCHEM_PHARMACOPHORE_FEATURES>
4
1 2 acceptor
1 3 acceptor
1 4 donor
6 5 6 7 8 9 10 rings

> <PUBCHEM_HEAVY_ATOM_COUNT>
10

> <PUBCHEM_ATOM_DEF_STEREO_COUNT>
0

> <PUBCHEM_ATOM_UDEF_STEREO_COUNT>
0

> <PUBCHEM_BOND_DEF_STEREO_COUNT>
0

> <PUBCHEM_BOND_UDEF_STEREO_COUNT>
0

> <PUBCHEM_ISOTOPIC_ATOM_COUNT>
0

> <PUBCHEM_COMPONENT_COUNT>
1

> <PUBCHEM_CACTVS_TAUTO_COUNT>
1

> <PUBCHEM_CONFORMER_ID>
00001CCA00000001

> <PUBCHEM_MMFF94_ENERGY>
5.5753

> <PUBCHEM_FEATURE_SELFOVERLAP>
20.315

> <PUBCHEM_SHAPE_FINGERPRINT>
10857977 72 18341887545599310787
12524768 44 18336550507420510325
12716758 59 18342174410765311035
12897270 3 18339371880064169212
12932764 1 17275106154104785855
14325111 11 18410579461593638149
16945 1 18411135844541862429
19973954 147 18411707568770799093
20645464 45 17774991410385777354
21040471 1 18339641114442062769
23552423 10 18334298655956675047
2748010 2 18412267207594436239
29004967 10 16200435753701068687
3248919 1 18411412916992497917
369184 2 17095517413871179465
5084963 1 18271248205380805889

> <PUBCHEM_SHAPE_MULTIPOLES>
192.93
3.92
1.46
0.87
0.23
0
-0.25
0
-0.06
-0.24
0.17
0.58
0
0

> <PUBCHEM_SHAPE_SELFOVERLAP>
386.065

> <PUBCHEM_SHAPE_VOLUME>
113.9

> <PUBCHEM_COORDINATE_TYPE>
2
5
10

$$$$
