25717
  -OEChem-11012400583D

 11 10  0     0  0  0  0  0  0999 V2000
   -1.0395   -1.5456   -1.0063 Cl  0  0  0  0  0  0  0  0  0  0  0  0
    1.0390   -1.5460    1.0061 Cl  0  0  0  0  0  0  0  0  0  0  0  0
   -2.0407    1.4203    0.1001 Cl  0  0  0  0  0  0  0  0  0  0  0  0
    2.0411    1.4200   -0.1000 Cl  0  0  0  0  0  0  0  0  0  0  0  0
    0.0000   -0.4630    0.0000 C   0  0  0  0  0  0  0  0  0  0  0  0
   -0.8864    0.3572    0.9493 C   0  0  0  0  0  0  0  0  0  0  0  0
    0.8865    0.3571   -0.9493 C   0  0  0  0  0  0  0  0  0  0  0  0
   -0.2894    0.9977    1.6062 H   0  0  0  0  0  0  0  0  0  0  0  0
   -1.4847   -0.2974    1.5932 H   0  0  0  0  0  0  0  0  0  0  0  0
    0.2896    0.9978   -1.6061 H   0  0  0  0  0  0  0  0  0  0  0  0
    1.4847   -0.2976   -1.5932 H   0  0  0  0  0  0  0  0  0  0  0  0
  1  5  1  0  0  0  0
  2  5  1  0  0  0  0
  3  6  1  0  0  0  0
  4  7  1  0  0  0  0
  5  6  1  0  0  0  0
  5  7  1  0  0  0  0
  6  8  1  0  0  0  0
  6  9  1  0  0  0  0
  7 10  1  0  0  0  0
  7 11  1  0  0  0  0
M  END
> <PUBCHEM_COMPOUND_CID>
25717

> <PUBCHEM_CONFORMER_RMSD>
0.4

> <PUBCHEM_CONFORMER_DIVERSEORDER>
1
4
3
2
5
6

> <PUBCHEM_MMFF94_PARTIAL_CHARGES>
7
1 -0.29
2 -0.29
3 -0.29
4 -0.29
5 0.58
6 0.29
7 0.29

> <PUBCHEM_EFFECTIVE_ROTOR_COUNT>
2

> <PUBCHEM_PHARMACOPHORE_FEATURES>
0

> <PUBCHEM_HEAVY_ATOM_COUNT>
7

> <PUBCHEM_ATOM_DEF_STEREO_COUNT>
0

> <PUBCHEM_ATOM_UDEF_STEREO_COUNT>
0

> <PUBCHEM_BOND_DEF_STEREO_COUNT>
0

> <PUBCHEM_BOND_UDEF_STEREO_COUNT>
0

> <PUBCHEM_ISOTOPIC_ATOM_COUNT>
0

> <PUBCHEM_COMPONENT_COUNT>
1

> <PUBCHEM_CACTVS_TAUTO_COUNT>
1

> <PUBCHEM_CONFORMER_ID>
0000647500000001

> <PUBCHEM_MMFF94_ENERGY>
9.7479

> <PUBCHEM_FEATURE_SELFOVERLAP>
0

> <PUBCHEM_SHAPE_FINGERPRINT>
137420 1 9100503755639553472
20096714 4 18338815428243415568
21040471 1 18342187651854306308
23552449 1 17842565311949068204
23552449 11 17900268498434498665
24536 1 14761302598182746364
29004967 10 12472066483339838675
5084963 1 17903398979552631933
54338 74 17758669336391929956
5943 1 14464358308464863395

> <PUBCHEM_SHAPE_MULTIPOLES>
151.54
2.41
2.01
1.19
0
0.24
0
-1.32
0
0
0
0
0.35
-0.68

> <PUBCHEM_SHAPE_SELFOVERLAP>
240.565

> <PUBCHEM_SHAPE_VOLUME>
108.8

> <PUBCHEM_COORDINATE_TYPE>
2
5
10

$$$$
