16679
  -OEChem-11012401103D

 26 28  0     0  0  0  0  0  0999 V2000
    0.0003    2.0163    1.4040 O   0  0  0  0  0  0  0  0  0  0  0  0
   -1.2810    0.4926    0.1757 C   0  0  0  0  0  0  0  0  0  0  0  0
    1.2807    0.4925    0.1751 C   0  0  0  0  0  0  0  0  0  0  0  0
   -1.5648   -0.8783    0.1551 C   0  0  0  0  0  0  0  0  0  0  0  0
    1.5648   -0.8784    0.1547 C   0  0  0  0  0  0  0  0  0  0  0  0
   -0.0001    1.0420    0.6593 C   0  0  0  0  0  0  0  0  0  0  0  0
   -0.6693   -1.9181    0.6715 C   0  0  0  0  0  0  0  0  0  0  0  0
    0.6694   -1.9181    0.6711 C   0  0  0  0  0  0  0  0  0  0  0  0
   -2.2370    1.4259   -0.2560 C   0  0  0  0  0  0  0  0  0  0  0  0
    2.2363    1.4259   -0.2571 C   0  0  0  0  0  0  0  0  0  0  0  0
   -2.8285   -1.2885   -0.3066 C   0  0  0  0  0  0  0  0  0  0  0  0
    2.8288   -1.2883   -0.3061 C   0  0  0  0  0  0  0  0  0  0  0  0
   -3.4777    0.9975   -0.7219 C   0  0  0  0  0  0  0  0  0  0  0  0
    3.4775    0.9976   -0.7221 C   0  0  0  0  0  0  0  0  0  0  0  0
   -3.7734   -0.3605   -0.7488 C   0  0  0  0  0  0  0  0  0  0  0  0
    3.7739   -0.3602   -0.7479 C   0  0  0  0  0  0  0  0  0  0  0  0
   -1.1651   -2.8002    1.0742 H   0  0  0  0  0  0  0  0  0  0  0  0
    1.1652   -2.8003    1.0735 H   0  0  0  0  0  0  0  0  0  0  0  0
   -2.0224    2.4919   -0.2430 H   0  0  0  0  0  0  0  0  0  0  0  0
    2.0215    2.4919   -0.2446 H   0  0  0  0  0  0  0  0  0  0  0  0
   -3.0946   -2.3441   -0.3254 H   0  0  0  0  0  0  0  0  0  0  0  0
    3.0953   -2.3437   -0.3243 H   0  0  0  0  0  0  0  0  0  0  0  0
   -4.2120    1.7221   -1.0605 H   0  0  0  0  0  0  0  0  0  0  0  0
    4.2118    1.7224   -1.0607 H   0  0  0  0  0  0  0  0  0  0  0  0
   -4.7413   -0.6999   -1.1057 H   0  0  0  0  0  0  0  0  0  0  0  0
    4.7422   -0.6995   -1.1040 H   0  0  0  0  0  0  0  0  0  0  0  0
  1  6  2  0  0  0  0
  2  4  1  0  0  0  0
  2  6  1  0  0  0  0
  2  9  2  0  0  0  0
  3  5  1  0  0  0  0
  3  6  1  0  0  0  0
  3 10  2  0  0  0  0
  4  7  1  0  0  0  0
  4 11  2  0  0  0  0
  5  8  1  0  0  0  0
  5 12  2  0  0  0  0
  7  8  2  0  0  0  0
  7 17  1  0  0  0  0
  8 18  1  0  0  0  0
  9 13  1  0  0  0  0
  9 19  1  0  0  0  0
 10 14  1  0  0  0  0
 10 20  1  0  0  0  0
 11 15  1  0  0  0  0
 11 21  1  0  0  0  0
 12 16  1  0  0  0  0
 12 22  1  0  0  0  0
 13 15  2  0  0  0  0
 13 23  1  0  0  0  0
 14 16  2  0  0  0  0
 14 24  1  0  0  0  0
 15 25  1  0  0  0  0
 16 26  1  0  0  0  0
M  END
> <PUBCHEM_COMPOUND_CID>
16679

> <PUBCHEM_CONFORMER_RMSD>
0.4

> <PUBCHEM_CONFORMER_DIVERSEORDER>
1

> <PUBCHEM_MMFF94_PARTIAL_CHARGES>
26
1 -0.57
10 -0.15
11 -0.15
12 -0.15
13 -0.15
14 -0.15
15 -0.15
16 -0.15
17 0.15
18 0.15
19 0.15
2 0.09
20 0.15
21 0.15
22 0.15
23 0.15
24 0.15
25 0.15
26 0.15
3 0.09
4 0.03
5 0.03
6 0.4
7 -0.18
8 -0.18
9 -0.15

> <PUBCHEM_EFFECTIVE_ROTOR_COUNT>
0

> <PUBCHEM_PHARMACOPHORE_FEATURES>
4
1 1 acceptor
6 2 4 9 11 13 15 rings
6 3 5 10 12 14 16 rings
7 2 3 4 5 6 7 8 rings

> <PUBCHEM_HEAVY_ATOM_COUNT>
16

> <PUBCHEM_ATOM_DEF_STEREO_COUNT>
0

> <PUBCHEM_ATOM_UDEF_STEREO_COUNT>
0

> <PUBCHEM_BOND_DEF_STEREO_COUNT>
0

> <PUBCHEM_BOND_UDEF_STEREO_COUNT>
0

> <PUBCHEM_ISOTOPIC_ATOM_COUNT>
0

> <PUBCHEM_COMPONENT_COUNT>
1

> <PUBCHEM_CACTVS_TAUTO_COUNT>
1

> <PUBCHEM_CONFORMER_ID>
0000412700000001

> <PUBCHEM_MMFF94_ENERGY>
62.018

> <PUBCHEM_FEATURE_SELFOVERLAP>
20.313

> <PUBCHEM_SHAPE_FINGERPRINT>
10062212 137 18339349769493784651
10498660 4 17821995507151953397
10608611 8 18335702814094242524
10967382 1 18335983081995102418
11206711 2 18409727378652278583
13004483 165 15659116217987949491
13299463 15 18411138056202242969
14617773 55 17916880001510779408
15775835 57 18186805733805632983
16752209 62 17773303548937989265
16945 1 18334012791486295843
17357779 13 17829326140216803939
17844478 74 17897464975617081979
1813 80 13758086203379015720
18186145 218 18335421240143269676
19862831 5 18412265008360138612
200 152 18131915953358228814
20201158 50 18413673521542134398
20361792 2 16415477164209579513
20645476 183 17603866753549523882
21501502 16 18263072245886490715
21634736 98 18342459244453965604
22802520 49 18194123147039599283
2334 1 18410012169069428658
23402539 116 18341608192668818750
23402655 69 18410854330588926981
23419403 2 12023886195173130138
23493267 7 17530966916355876155
23559900 14 18342457067559790960
25 1 18260547779731205495
2748010 2 17257933126613862387
2871803 45 18335973272896719959
3323516 105 18341890848471346225
353137 74 18338520741978801752
5262128 65 17987537939074715364
528886 8 18113896065469150652
549884 4 18342729741388733401
9709674 26 18338804510774328422

> <PUBCHEM_SHAPE_MULTIPOLES>
323.4
6.19
2.08
0.95
0
0.24
-0.1
-0.51
2.66
0
-0.41
0
-0.17
0

> <PUBCHEM_SHAPE_SELFOVERLAP>
725.772

> <PUBCHEM_SHAPE_VOLUME>
168.4

> <PUBCHEM_COORDINATE_TYPE>
2
5
10

$$$$
