23880
  -OEChem-11012401133D

 36 38  0     0  0  0  0  0  0999 V2000
   -0.7199    0.0343    0.0034 C   0  0  0  0  0  0  0  0  0  0  0  0
    0.7200    0.0341   -0.0035 C   0  0  0  0  0  0  0  0  0  0  0  0
   -1.4121   -1.2049    0.0067 C   0  0  0  0  0  0  0  0  0  0  0  0
    1.4124   -1.2050   -0.0069 C   0  0  0  0  0  0  0  0  0  0  0  0
   -1.5155    1.2076    0.0073 C   0  0  0  0  0  0  0  0  0  0  0  0
    1.5152    1.2074   -0.0073 C   0  0  0  0  0  0  0  0  0  0  0  0
   -0.6954   -2.4043    0.0031 C   0  0  0  0  0  0  0  0  0  0  0  0
    0.6956   -2.4043   -0.0037 C   0  0  0  0  0  0  0  0  0  0  0  0
   -2.8171   -1.2390    0.0137 C   0  0  0  0  0  0  0  0  0  0  0  0
    2.8174   -1.2389   -0.0135 C   0  0  0  0  0  0  0  0  0  0  0  0
   -3.5629   -0.0643    0.0174 C   0  0  0  0  0  0  0  0  0  0  0  0
    3.5631   -0.0642   -0.0169 C   0  0  0  0  0  0  0  0  0  0  0  0
   -2.9120    1.1595    0.0140 C   0  0  0  0  0  0  0  0  0  0  0  0
    2.9119    1.1596   -0.0139 C   0  0  0  0  0  0  0  0  0  0  0  0
   -1.1509    2.6346   -0.2174 C   0  0  0  0  0  0  0  0  0  0  0  0
    1.1503    2.6346    0.2167 C   0  0  0  0  0  0  0  0  0  0  0  0
   -5.0526   -0.1236    0.0171 C   0  0  0  0  0  0  0  0  0  0  0  0
    5.0527   -0.1231   -0.0162 C   0  0  0  0  0  0  0  0  0  0  0  0
   -1.2136   -3.3615    0.0055 H   0  0  0  0  0  0  0  0  0  0  0  0
    1.2137   -3.3616   -0.0064 H   0  0  0  0  0  0  0  0  0  0  0  0
   -3.3352   -2.1973    0.0129 H   0  0  0  0  0  0  0  0  0  0  0  0
    3.3355   -2.1970   -0.0127 H   0  0  0  0  0  0  0  0  0  0  0  0
   -3.5335    2.0533    0.0134 H   0  0  0  0  0  0  0  0  0  0  0  0
    3.5331    2.0535   -0.0132 H   0  0  0  0  0  0  0  0  0  0  0  0
   -0.6106    2.7367   -1.1597 H   0  0  0  0  0  0  0  0  0  0  0  0
   -2.0338    3.1912   -0.5886 H   0  0  0  0  0  0  0  0  0  0  0  0
   -1.0051    3.2418    0.6758 H   0  0  0  0  0  0  0  0  0  0  0  0
    2.0331    3.1916    0.5877 H   0  0  0  0  0  0  0  0  0  0  0  0
    1.0046    3.2413   -0.6769 H   0  0  0  0  0  0  0  0  0  0  0  0
    0.6099    2.7369    1.1590 H   0  0  0  0  0  0  0  0  0  0  0  0
   -5.4314   -0.0529   -1.0075 H   0  0  0  0  0  0  0  0  0  0  0  0
   -5.4149   -1.0583    0.4585 H   0  0  0  0  0  0  0  0  0  0  0  0
   -5.4786    0.6944    0.6081 H   0  0  0  0  0  0  0  0  0  0  0  0
    5.4152   -1.0587   -0.4557 H   0  0  0  0  0  0  0  0  0  0  0  0
    5.4785    0.6937   -0.6089 H   0  0  0  0  0  0  0  0  0  0  0  0
    5.4313   -0.0501    1.0082 H   0  0  0  0  0  0  0  0  0  0  0  0
  1  2  1  0  0  0  0
  1  3  1  0  0  0  0
  1  5  2  0  0  0  0
  2  4  1  0  0  0  0
  2  6  2  0  0  0  0
  3  7  1  0  0  0  0
  3  9  2  0  0  0  0
  4  8  1  0  0  0  0
  4 10  2  0  0  0  0
  5 13  1  0  0  0  0
  5 15  1  0  0  0  0
  6 14  1  0  0  0  0
  6 16  1  0  0  0  0
  7  8  2  0  0  0  0
  7 19  1  0  0  0  0
  8 20  1  0  0  0  0
  9 11  1  0  0  0  0
  9 21  1  0  0  0  0
 10 12  1  0  0  0  0
 10 22  1  0  0  0  0
 11 13  2  0  0  0  0
 11 17  1  0  0  0  0
 12 14  2  0  0  0  0
 12 18  1  0  0  0  0
 13 23  1  0  0  0  0
 14 24  1  0  0  0  0
 15 25  1  0  0  0  0
 15 26  1  0  0  0  0
 15 27  1  0  0  0  0
 16 28  1  0  0  0  0
 16 29  1  0  0  0  0
 16 30  1  0  0  0  0
 17 31  1  0  0  0  0
 17 32  1  0  0  0  0
 17 33  1  0  0  0  0
 18 34  1  0  0  0  0
 18 35  1  0  0  0  0
 18 36  1  0  0  0  0
M  END
> <PUBCHEM_COMPOUND_CID>
23880

> <PUBCHEM_CONFORMER_RMSD>
0.4

> <PUBCHEM_CONFORMER_DIVERSEORDER>
1

> <PUBCHEM_MMFF94_PARTIAL_CHARGES>
20
10 -0.15
11 -0.14
12 -0.14
13 -0.15
14 -0.15
15 0.14
16 0.14
17 0.14
18 0.14
19 0.15
20 0.15
21 0.15
22 0.15
23 0.15
24 0.15
5 -0.14
6 -0.14
7 -0.15
8 -0.15
9 -0.15

> <PUBCHEM_EFFECTIVE_ROTOR_COUNT>
0

> <PUBCHEM_PHARMACOPHORE_FEATURES>
3
6 1 2 3 4 7 8 rings
6 1 3 5 9 11 13 rings
6 2 4 6 10 12 14 rings

> <PUBCHEM_HEAVY_ATOM_COUNT>
18

> <PUBCHEM_ATOM_DEF_STEREO_COUNT>
0

> <PUBCHEM_ATOM_UDEF_STEREO_COUNT>
0

> <PUBCHEM_BOND_DEF_STEREO_COUNT>
0

> <PUBCHEM_BOND_UDEF_STEREO_COUNT>
0

> <PUBCHEM_ISOTOPIC_ATOM_COUNT>
0

> <PUBCHEM_COMPONENT_COUNT>
1

> <PUBCHEM_CACTVS_TAUTO_COUNT>
1

> <PUBCHEM_CONFORMER_ID>
00005D4800000001

> <PUBCHEM_MMFF94_ENERGY>
126.2377

> <PUBCHEM_FEATURE_SELFOVERLAP>
15.272

> <PUBCHEM_SHAPE_FINGERPRINT>
10411042 1 17689999355323766378
10608611 8 18410852165888525089
10967382 1 18410573993746686467
1100329 8 18338516464138536411
11132069 177 18413102879127998282
11471102 20 18410852166252262247
11680986 33 18121500421252453409
12011746 2 18409729551636672686
12403259 226 18410569587105193380
12838862 33 18338778079176355905
13140716 1 18266177420883184763
13221675 6 18410575088958254086
13380535 76 18410576188470161187
13862211 1 18410568487593695527
14115302 16 18114753723446632158
14178342 30 18124306108660015496
14790565 3 18410586079780227140
15042514 8 18337392750413057434
15099037 51 18410856581146398174
15196674 1 18410856559639796069
15442244 35 18121779426665374666
15536298 74 18271805773777355984
16945 1 18410572889934933575
17802600 8 18410570686616749696
17804303 29 18411422851447129780
1813 80 16879065236373648634
18522853 276 18413107260142476144
193761 8 12501851862541615683
19591789 44 18266179615965322819
200 152 18131627885691101701
20028762 73 18058168504702499575
20510252 161 18271526386244578184
20905425 154 18124596379708304822
21029758 11 18343017800371233672
21267235 1 18410583880756334982
21524375 3 18410576188470161186
2334 1 17978511167226738053
23402539 116 18343012315697867015
23463225 33 18408322185353603148
23493267 7 17603577526541673529
23559900 14 18271245032355210992
23566358 2 18196652895498334703
2748010 2 18122626325232567615
2871803 45 18337105674993353165
335352 9 18410856568235025334
34934 24 18410848867369505010
350125 39 18410014329475531733
43471831 8 18263079924993071810
5104073 3 18338517559355178200
53812653 166 18413386540506865202
69090 78 18343016713802491071
7364860 26 18342176669617363302
7832392 63 18268987755735471854
8809292 202 18261395597611733002
9709674 26 18412832403594791894

> <PUBCHEM_SHAPE_MULTIPOLES>
370.43
7.42
2.68
0.62
0
0.45
0
-0.14
0
0
0
0
0.01
0.08

> <PUBCHEM_SHAPE_SELFOVERLAP>
829.184

> <PUBCHEM_SHAPE_VOLUME>
186.1

> <PUBCHEM_COORDINATE_TYPE>
2
5
10

$$$$
