123382
  -OEChem-11012400543D

 31 32  0     0  0  0  0  0  0999 V2000
    0.8874   -1.7923    0.0005 C   0  0  0  0  0  0  0  0  0  0  0  0
    1.3350   -0.3656   -0.0001 C   0  0  0  0  0  0  0  0  0  0  0  0
    0.4161    0.6856   -0.0003 C   0  0  0  0  0  0  0  0  0  0  0  0
    1.3431   -2.5480    1.2614 C   0  0  0  0  0  0  0  0  0  0  0  0
    1.3434   -2.5491   -1.2596 C   0  0  0  0  0  0  0  0  0  0  0  0
   -1.0087    0.4346   -0.0005 C   0  0  0  0  0  0  0  0  0  0  0  0
    2.7039   -0.0979    0.0001 C   0  0  0  0  0  0  0  0  0  0  0  0
    0.8713    2.0055   -0.0008 C   0  0  0  0  0  0  0  0  0  0  0  0
    3.1565    1.2216    0.0000 C   0  0  0  0  0  0  0  0  0  0  0  0
    2.2401    2.2732   -0.0006 C   0  0  0  0  0  0  0  0  0  0  0  0
   -1.6958    0.3130   -1.2083 C   0  0  0  0  0  0  0  0  0  0  0  0
   -1.6957    0.3162    1.2076 C   0  0  0  0  0  0  0  0  0  0  0  0
   -3.0699    0.0730   -1.2078 C   0  0  0  0  0  0  0  0  0  0  0  0
   -3.0697    0.0759    1.2081 C   0  0  0  0  0  0  0  0  0  0  0  0
   -3.7568   -0.0457    0.0004 C   0  0  0  0  0  0  0  0  0  0  0  0
   -0.2041   -1.8694    0.0004 H   0  0  0  0  0  0  0  0  0  0  0  0
    2.4330   -2.6409    1.3154 H   0  0  0  0  0  0  0  0  0  0  0  0
    0.9241   -3.5602    1.2746 H   0  0  0  0  0  0  0  0  0  0  0  0
    1.0041   -2.0331    2.1673 H   0  0  0  0  0  0  0  0  0  0  0  0
    1.0046   -2.0352   -2.1661 H   0  0  0  0  0  0  0  0  0  0  0  0
    0.9244   -3.5614   -1.2720 H   0  0  0  0  0  0  0  0  0  0  0  0
    2.4333   -2.6420   -1.3133 H   0  0  0  0  0  0  0  0  0  0  0  0
    3.4386   -0.8982    0.0005 H   0  0  0  0  0  0  0  0  0  0  0  0
    0.1721    2.8386   -0.0012 H   0  0  0  0  0  0  0  0  0  0  0  0
    4.2223    1.4304    0.0002 H   0  0  0  0  0  0  0  0  0  0  0  0
    2.5927    3.3004   -0.0009 H   0  0  0  0  0  0  0  0  0  0  0  0
   -1.1754    0.4020   -2.1590 H   0  0  0  0  0  0  0  0  0  0  0  0
   -1.1752    0.4076    2.1581 H   0  0  0  0  0  0  0  0  0  0  0  0
   -3.6049   -0.0220   -2.1482 H   0  0  0  0  0  0  0  0  0  0  0  0
   -3.6046   -0.0167    2.1488 H   0  0  0  0  0  0  0  0  0  0  0  0
   -4.8266   -0.2330    0.0007 H   0  0  0  0  0  0  0  0  0  0  0  0
  1  2  1  0  0  0  0
  1  4  1  0  0  0  0
  1  5  1  0  0  0  0
  1 16  1  0  0  0  0
  2  3  1  0  0  0  0
  2  7  2  0  0  0  0
  3  6  1  0  0  0  0
  3  8  2  0  0  0  0
  4 17  1  0  0  0  0
  4 18  1  0  0  0  0
  4 19  1  0  0  0  0
  5 20  1  0  0  0  0
  5 21  1  0  0  0  0
  5 22  1  0  0  0  0
  6 11  2  0  0  0  0
  6 12  1  0  0  0  0
  7  9  1  0  0  0  0
  7 23  1  0  0  0  0
  8 10  1  0  0  0  0
  8 24  1  0  0  0  0
  9 10  2  0  0  0  0
  9 25  1  0  0  0  0
 10 26  1  0  0  0  0
 11 13  1  0  0  0  0
 11 27  1  0  0  0  0
 12 14  2  0  0  0  0
 12 28  1  0  0  0  0
 13 15  2  0  0  0  0
 13 29  1  0  0  0  0
 14 15  1  0  0  0  0
 14 30  1  0  0  0  0
 15 31  1  0  0  0  0
M  END
> <PUBCHEM_COMPOUND_CID>
123382

> <PUBCHEM_CONFORMER_RMSD>
0.6

> <PUBCHEM_CONFORMER_DIVERSEORDER>
1

> <PUBCHEM_MMFF94_PARTIAL_CHARGES>
20
1 0.14
10 -0.15
11 -0.15
12 -0.15
13 -0.15
14 -0.15
15 -0.15
2 -0.14
23 0.15
24 0.15
25 0.15
26 0.15
27 0.15
28 0.15
29 0.15
30 0.15
31 0.15
7 -0.15
8 -0.15
9 -0.15

> <PUBCHEM_EFFECTIVE_ROTOR_COUNT>
2

> <PUBCHEM_PHARMACOPHORE_FEATURES>
3
3 1 4 5 hydrophobe
6 2 3 7 8 9 10 rings
6 6 11 12 13 14 15 rings

> <PUBCHEM_HEAVY_ATOM_COUNT>
15

> <PUBCHEM_ATOM_DEF_STEREO_COUNT>
0

> <PUBCHEM_ATOM_UDEF_STEREO_COUNT>
0

> <PUBCHEM_BOND_DEF_STEREO_COUNT>
0

> <PUBCHEM_BOND_UDEF_STEREO_COUNT>
0

> <PUBCHEM_ISOTOPIC_ATOM_COUNT>
0

> <PUBCHEM_COMPONENT_COUNT>
1

> <PUBCHEM_CACTVS_TAUTO_COUNT>
1

> <PUBCHEM_CONFORMER_ID>
0001E1F600000001

> <PUBCHEM_MMFF94_ENERGY>
48.6337

> <PUBCHEM_FEATURE_SELFOVERLAP>
15.223

> <PUBCHEM_SHAPE_FINGERPRINT>
1 1 18335977661989046092
107287 299 18260838106535176101
10980938 120 18342179946825291633
116883 192 17765424349322813725
12202030 40 17314249794746078347
12326174 3 18409729526072733330
12423570 1 12046944487374045166
12553582 1 17834404414609868947
13538477 17 17275097345432810437
14251717 144 18411979178339330695
14817 1 15336258144610825110
15207287 21 17676481787192427411
15219456 202 17967809444776641117
15279307 12 17918274277008044839
15309172 13 18263646327994521976
15502708 68 18409448115451921448
15775835 57 18337669844585799724
15852999 172 17095516297153478043
16945 1 18410575080489573828
17990270 104 18196653995010156887
18175812 5 17676767677263818053
18186145 218 18271529809354728812
19049666 15 17823410492606810637
19422 9 17704359883039831653
20201158 50 18113898238965156763
20279233 1 17748826311189986883
20361792 2 18053098428472853295
204376 136 18264768951221177880
20645477 70 18411692158987265103
21501502 16 18191299377873228757
21524375 3 18267018547626553676
21639500 275 18339352067280013621
21730867 7 18407760339238425495
22445834 79 17988649553878133001
22802520 49 17823688664706321661
23236772 104 17774725358842432777
2334 1 17978510059230794188
23419403 2 15580847663158459650
23557571 272 16588023485755163095
23559900 14 16660634125562438192
25 1 18411423946495134668
257057 1 17613417966394493218
2748010 2 18121511403578664160
3060560 45 18410850005778399604
528862 383 18412543193460647519
633830 44 18200330916523175948
7364860 26 18272376325759399310
77492 1 17703792535103416837
81228 2 17114934497075479672
81539 233 18261109694650152286
8272917 22 18342465798901015773
9981440 41 16336362033078136440

> <PUBCHEM_SHAPE_MULTIPOLES>
308.69
5.23
2.48
1.22
3.37
1.12
0
-1.08
0
-2.66
0
0.64
0.46
0

> <PUBCHEM_SHAPE_SELFOVERLAP>
660.945

> <PUBCHEM_SHAPE_VOLUME>
163.6

> <PUBCHEM_COORDINATE_TYPE>
2
5
10

$$$$
