138250
  -OEChem-10312420192D

 78 78  0     1  0  0  0  0  0999 V2000
    2.8660   -5.7500    0.0000 C   0  0  0  0  0  0  0  0  0  0  0  0
    2.8660   -4.7500    0.0000 C   0  0  3  0  0  0  0  0  0  0  0  0
    2.0000   -6.2500    0.0000 C   0  0  0  0  0  0  0  0  0  0  0  0
    3.7320   -6.2500    0.0000 C   0  0  0  0  0  0  0  0  0  0  0  0
    2.0000   -7.2500    0.0000 C   0  0  0  0  0  0  0  0  0  0  0  0
    3.7320   -7.2500    0.0000 C   0  0  0  0  0  0  0  0  0  0  0  0
    3.7320   -4.2500    0.0000 C   0  0  0  0  0  0  0  0  0  0  0  0
    2.8660   -7.7500    0.0000 C   0  0  0  0  0  0  0  0  0  0  0  0
    2.0000   -4.2500    0.0000 C   0  0  0  0  0  0  0  0  0  0  0  0
    3.7320   -3.2500    0.0000 C   0  0  0  0  0  0  0  0  0  0  0  0
    4.5981   -2.7500    0.0000 C   0  0  0  0  0  0  0  0  0  0  0  0
    2.0000   -3.2500    0.0000 C   0  0  0  0  0  0  0  0  0  0  0  0
    4.5981   -1.7500    0.0000 C   0  0  0  0  0  0  0  0  0  0  0  0
    5.4641   -1.2500    0.0000 C   0  0  0  0  0  0  0  0  0  0  0  0
    5.4641   -0.2500    0.0000 C   0  0  0  0  0  0  0  0  0  0  0  0
    6.3301    0.2500    0.0000 C   0  0  0  0  0  0  0  0  0  0  0  0
    6.3301    1.2500    0.0000 C   0  0  0  0  0  0  0  0  0  0  0  0
    7.1962    1.7500    0.0000 C   0  0  0  0  0  0  0  0  0  0  0  0
    7.1962    2.7500    0.0000 C   0  0  0  0  0  0  0  0  0  0  0  0
    8.0622    3.2500    0.0000 C   0  0  0  0  0  0  0  0  0  0  0  0
    8.0622    4.2500    0.0000 C   0  0  0  0  0  0  0  0  0  0  0  0
    8.9282    4.7500    0.0000 C   0  0  0  0  0  0  0  0  0  0  0  0
    8.9282    5.7500    0.0000 C   0  0  0  0  0  0  0  0  0  0  0  0
    9.7942    6.2500    0.0000 C   0  0  0  0  0  0  0  0  0  0  0  0
    9.7942    7.2500    0.0000 C   0  0  0  0  0  0  0  0  0  0  0  0
   10.6603    7.7500    0.0000 C   0  0  0  0  0  0  0  0  0  0  0  0
    3.4030   -5.4400    0.0000 H   0  0  0  0  0  0  0  0  0  0  0  0
    2.8660   -3.9000    0.0000 H   0  0  0  0  0  0  0  0  0  0  0  0
    1.7880   -5.6674    0.0000 H   0  0  0  0  0  0  0  0  0  0  0  0
    1.3894   -6.3577    0.0000 H   0  0  0  0  0  0  0  0  0  0  0  0
    4.3426   -6.3577    0.0000 H   0  0  0  0  0  0  0  0  0  0  0  0
    3.9441   -5.6674    0.0000 H   0  0  0  0  0  0  0  0  0  0  0  0
    1.3894   -7.1423    0.0000 H   0  0  0  0  0  0  0  0  0  0  0  0
    1.7880   -7.8326    0.0000 H   0  0  0  0  0  0  0  0  0  0  0  0
    3.9441   -7.8326    0.0000 H   0  0  0  0  0  0  0  0  0  0  0  0
    4.3426   -7.1423    0.0000 H   0  0  0  0  0  0  0  0  0  0  0  0
    3.9441   -4.8326    0.0000 H   0  0  0  0  0  0  0  0  0  0  0  0
    4.3426   -4.1423    0.0000 H   0  0  0  0  0  0  0  0  0  0  0  0
    2.4675   -8.2250    0.0000 H   0  0  0  0  0  0  0  0  0  0  0  0
    3.2646   -8.2250    0.0000 H   0  0  0  0  0  0  0  0  0  0  0  0
    1.3894   -4.1423    0.0000 H   0  0  0  0  0  0  0  0  0  0  0  0
    1.7880   -4.8326    0.0000 H   0  0  0  0  0  0  0  0  0  0  0  0
    3.5200   -2.6674    0.0000 H   0  0  0  0  0  0  0  0  0  0  0  0
    3.1215   -3.3577    0.0000 H   0  0  0  0  0  0  0  0  0  0  0  0
    4.8101   -3.3326    0.0000 H   0  0  0  0  0  0  0  0  0  0  0  0
    5.2087   -2.6423    0.0000 H   0  0  0  0  0  0  0  0  0  0  0  0
    2.6200   -3.2500    0.0000 H   0  0  0  0  0  0  0  0  0  0  0  0
    2.0000   -2.6300    0.0000 H   0  0  0  0  0  0  0  0  0  0  0  0
    1.3800   -3.2500    0.0000 H   0  0  0  0  0  0  0  0  0  0  0  0
    4.3860   -1.1674    0.0000 H   0  0  0  0  0  0  0  0  0  0  0  0
    3.9875   -1.8577    0.0000 H   0  0  0  0  0  0  0  0  0  0  0  0
    5.6762   -1.8326    0.0000 H   0  0  0  0  0  0  0  0  0  0  0  0
    6.0747   -1.1423    0.0000 H   0  0  0  0  0  0  0  0  0  0  0  0
    5.2520    0.3326    0.0000 H   0  0  0  0  0  0  0  0  0  0  0  0
    4.8535   -0.3577    0.0000 H   0  0  0  0  0  0  0  0  0  0  0  0
    6.5422   -0.3326    0.0000 H   0  0  0  0  0  0  0  0  0  0  0  0
    6.9407    0.3577    0.0000 H   0  0  0  0  0  0  0  0  0  0  0  0
    6.1181    1.8326    0.0000 H   0  0  0  0  0  0  0  0  0  0  0  0
    5.7196    1.1423    0.0000 H   0  0  0  0  0  0  0  0  0  0  0  0
    7.4082    1.1674    0.0000 H   0  0  0  0  0  0  0  0  0  0  0  0
    7.8067    1.8577    0.0000 H   0  0  0  0  0  0  0  0  0  0  0  0
    6.9841    3.3326    0.0000 H   0  0  0  0  0  0  0  0  0  0  0  0
    6.5856    2.6423    0.0000 H   0  0  0  0  0  0  0  0  0  0  0  0
    8.2742    2.6674    0.0000 H   0  0  0  0  0  0  0  0  0  0  0  0
    8.6728    3.3577    0.0000 H   0  0  0  0  0  0  0  0  0  0  0  0
    7.8501    4.8326    0.0000 H   0  0  0  0  0  0  0  0  0  0  0  0
    7.4516    4.1423    0.0000 H   0  0  0  0  0  0  0  0  0  0  0  0
    9.1403    4.1674    0.0000 H   0  0  0  0  0  0  0  0  0  0  0  0
    9.5388    4.8577    0.0000 H   0  0  0  0  0  0  0  0  0  0  0  0
    8.7162    6.3326    0.0000 H   0  0  0  0  0  0  0  0  0  0  0  0
    8.3176    5.6423    0.0000 H   0  0  0  0  0  0  0  0  0  0  0  0
   10.0063    5.6674    0.0000 H   0  0  0  0  0  0  0  0  0  0  0  0
   10.4048    6.3577    0.0000 H   0  0  0  0  0  0  0  0  0  0  0  0
    9.5822    7.8326    0.0000 H   0  0  0  0  0  0  0  0  0  0  0  0
    9.1836    7.1423    0.0000 H   0  0  0  0  0  0  0  0  0  0  0  0
   10.9703    7.2131    0.0000 H   0  0  0  0  0  0  0  0  0  0  0  0
   11.1972    8.0600    0.0000 H   0  0  0  0  0  0  0  0  0  0  0  0
   10.3503    8.2869    0.0000 H   0  0  0  0  0  0  0  0  0  0  0  0
  1  2  1  0  0  0  0
  1  3  1  0  0  0  0
  1  4  1  0  0  0  0
  1 27  1  0  0  0  0
  2  7  1  0  0  0  0
  2  9  1  0  0  0  0
  2 28  1  0  0  0  0
  3  5  1  0  0  0  0
  3 29  1  0  0  0  0
  3 30  1  0  0  0  0
  4  6  1  0  0  0  0
  4 31  1  0  0  0  0
  4 32  1  0  0  0  0
  5  8  1  0  0  0  0
  5 33  1  0  0  0  0
  5 34  1  0  0  0  0
  6  8  1  0  0  0  0
  6 35  1  0  0  0  0
  6 36  1  0  0  0  0
  7 10  1  0  0  0  0
  7 37  1  0  0  0  0
  7 38  1  0  0  0  0
  8 39  1  0  0  0  0
  8 40  1  0  0  0  0
  9 12  1  0  0  0  0
  9 41  1  0  0  0  0
  9 42  1  0  0  0  0
 10 11  1  0  0  0  0
 10 43  1  0  0  0  0
 10 44  1  0  0  0  0
 11 13  1  0  0  0  0
 11 45  1  0  0  0  0
 11 46  1  0  0  0  0
 12 47  1  0  0  0  0
 12 48  1  0  0  0  0
 12 49  1  0  0  0  0
 13 14  1  0  0  0  0
 13 50  1  0  0  0  0
 13 51  1  0  0  0  0
 14 15  1  0  0  0  0
 14 52  1  0  0  0  0
 14 53  1  0  0  0  0
 15 16  1  0  0  0  0
 15 54  1  0  0  0  0
 15 55  1  0  0  0  0
 16 17  1  0  0  0  0
 16 56  1  0  0  0  0
 16 57  1  0  0  0  0
 17 18  1  0  0  0  0
 17 58  1  0  0  0  0
 17 59  1  0  0  0  0
 18 19  1  0  0  0  0
 18 60  1  0  0  0  0
 18 61  1  0  0  0  0
 19 20  1  0  0  0  0
 19 62  1  0  0  0  0
 19 63  1  0  0  0  0
 20 21  1  0  0  0  0
 20 64  1  0  0  0  0
 20 65  1  0  0  0  0
 21 22  1  0  0  0  0
 21 66  1  0  0  0  0
 21 67  1  0  0  0  0
 22 23  1  0  0  0  0
 22 68  1  0  0  0  0
 22 69  1  0  0  0  0
 23 24  1  0  0  0  0
 23 70  1  0  0  0  0
 23 71  1  0  0  0  0
 24 25  1  0  0  0  0
 24 72  1  0  0  0  0
 24 73  1  0  0  0  0
 25 26  1  0  0  0  0
 25 74  1  0  0  0  0
 25 75  1  0  0  0  0
 26 76  1  0  0  0  0
 26 77  1  0  0  0  0
 26 78  1  0  0  0  0
M  END
> <PUBCHEM_COMPOUND_CID>
138250

> <PUBCHEM_COMPOUND_CANONICALIZED>
1

> <PUBCHEM_CACTVS_COMPLEXITY>
263

> <PUBCHEM_CACTVS_HBOND_ACCEPTOR>
0

> <PUBCHEM_CACTVS_HBOND_DONOR>
0

> <PUBCHEM_CACTVS_ROTATABLE_BOND>
18

> <PUBCHEM_CACTVS_SUBSKEYS>
AAADcfB4AAAAAAAAAAAAAAAAAAAAAAAAAAAwAAAAAAAAAAAAAAAAGAAAAAAADQCAAAACAAAAAAAAAAAAAAAAAAAAAAAAAAAAAAAAAAIAAAAAAAAAAAAAAAEAgMAOgAAAAAAAAAAAAAAAAAAAAAAAAAAAAA==

> <PUBCHEM_IUPAC_OPENEYE_NAME>
1-ethyloctadecylcyclohexane

> <PUBCHEM_IUPAC_CAS_NAME>
eicosan-3-ylcyclohexane

> <PUBCHEM_IUPAC_NAME_MARKUP>
icosan-3-ylcyclohexane

> <PUBCHEM_IUPAC_NAME>
icosan-3-ylcyclohexane

> <PUBCHEM_IUPAC_SYSTEMATIC_NAME>
icosan-3-ylcyclohexane

> <PUBCHEM_IUPAC_TRADITIONAL_NAME>
1-ethyloctadecylcyclohexane

> <PUBCHEM_IUPAC_INCHI>
InChI=1S/C26H52/c1-3-5-6-7-8-9-10-11-12-13-14-15-16-17-19-22-25(4-2)26-23-20-18-21-24-26/h25-26H,3-24H2,1-2H3

> <PUBCHEM_IUPAC_INCHIKEY>
PANSPXWYXYRKGU-UHFFFAOYSA-N

> <PUBCHEM_XLOGP3_AA>
13.5

> <PUBCHEM_EXACT_MASS>
364.406901659

> <PUBCHEM_MOLECULAR_FORMULA>
C26H52

> <PUBCHEM_MOLECULAR_WEIGHT>
364.7

> <PUBCHEM_OPENEYE_CAN_SMILES>
CCCCCCCCCCCCCCCCCC(CC)C1CCCCC1

> <PUBCHEM_OPENEYE_ISO_SMILES>
CCCCCCCCCCCCCCCCCC(CC)C1CCCCC1

> <PUBCHEM_CACTVS_TPSA>
0

> <PUBCHEM_MONOISOTOPIC_WEIGHT>
364.406901659

> <PUBCHEM_TOTAL_CHARGE>
0

> <PUBCHEM_HEAVY_ATOM_COUNT>
26

> <PUBCHEM_ATOM_DEF_STEREO_COUNT>
0

> <PUBCHEM_ATOM_UDEF_STEREO_COUNT>
1

> <PUBCHEM_BOND_DEF_STEREO_COUNT>
0

> <PUBCHEM_BOND_UDEF_STEREO_COUNT>
0

> <PUBCHEM_ISOTOPIC_ATOM_COUNT>
0

> <PUBCHEM_COMPONENT_COUNT>
1

> <PUBCHEM_CACTVS_TAUTO_COUNT>
1

> <PUBCHEM_COORDINATE_TYPE>
1
5
255

> <PUBCHEM_BONDANNOTATIONS>
2  28  3

$$$$
