77696
  -OEChem-11012401043D

 36 39  0     0  0  0  0  0  0999 V2000
    0.0000   -0.5810    0.0000 C   0  0  0  0  0  0  0  0  0  0  0  0
    1.3200    0.0608   -0.0311 C   0  0  0  0  0  0  0  0  0  0  0  0
   -1.3200    0.0609    0.0311 C   0  0  0  0  0  0  0  0  0  0  0  0
   -0.0001   -2.0046   -0.0001 C   0  0  0  0  0  0  0  0  0  0  0  0
    2.4952   -0.7195    0.1620 C   0  0  0  0  0  0  0  0  0  0  0  0
   -2.4953   -0.7194   -0.1618 C   0  0  0  0  0  0  0  0  0  0  0  0
    1.5637    1.4321   -0.3072 C   0  0  0  0  0  0  0  0  0  0  0  0
   -1.5635    1.4322    0.3074 C   0  0  0  0  0  0  0  0  0  0  0  0
    1.1800   -2.7352    0.1505 C   0  0  0  0  0  0  0  0  0  0  0  0
   -1.1803   -2.7351   -0.1508 C   0  0  0  0  0  0  0  0  0  0  0  0
    2.4047   -2.1014    0.2757 C   0  0  0  0  0  0  0  0  0  0  0  0
   -2.4050   -2.1012   -0.2758 C   0  0  0  0  0  0  0  0  0  0  0  0
    3.7726   -0.1333    0.2063 C   0  0  0  0  0  0  0  0  0  0  0  0
   -3.7727   -0.1331   -0.2058 C   0  0  0  0  0  0  0  0  0  0  0  0
    2.8386    2.0100   -0.2766 C   0  0  0  0  0  0  0  0  0  0  0  0
   -2.8386    2.0101    0.2770 C   0  0  0  0  0  0  0  0  0  0  0  0
    0.6246    2.2495   -1.1666 C   0  0  0  0  0  0  0  0  0  0  0  0
   -0.6239    2.2500    1.1651 C   0  0  0  0  0  0  0  0  0  0  0  0
    3.9440    1.2290    0.0036 C   0  0  0  0  0  0  0  0  0  0  0  0
   -3.9440    1.2292   -0.0029 C   0  0  0  0  0  0  0  0  0  0  0  0
    1.1623   -3.8237    0.1837 H   0  0  0  0  0  0  0  0  0  0  0  0
   -1.1627   -3.8236   -0.1841 H   0  0  0  0  0  0  0  0  0  0  0  0
    3.2943   -2.7136    0.4109 H   0  0  0  0  0  0  0  0  0  0  0  0
   -3.2946   -2.7133   -0.4109 H   0  0  0  0  0  0  0  0  0  0  0  0
    4.6577   -0.7444    0.3761 H   0  0  0  0  0  0  0  0  0  0  0  0
   -4.6579   -0.7441   -0.3754 H   0  0  0  0  0  0  0  0  0  0  0  0
    2.9873    3.0547   -0.5397 H   0  0  0  0  0  0  0  0  0  0  0  0
   -2.9871    3.0550    0.5399 H   0  0  0  0  0  0  0  0  0  0  0  0
    0.4631    3.2747   -0.8310 H   0  0  0  0  0  0  0  0  0  0  0  0
    1.1627    2.3979   -2.1198 H   0  0  0  0  0  0  0  0  0  0  0  0
   -0.2674    1.7604   -1.5491 H   0  0  0  0  0  0  0  0  0  0  0  0
    0.2674    1.7606    1.5489 H   0  0  0  0  0  0  0  0  0  0  0  0
   -0.4615    3.2747    0.8282 H   0  0  0  0  0  0  0  0  0  0  0  0
   -1.1618    2.4006    2.1182 H   0  0  0  0  0  0  0  0  0  0  0  0
    4.9379    1.6649    0.0165 H   0  0  0  0  0  0  0  0  0  0  0  0
   -4.9378    1.6651   -0.0156 H   0  0  0  0  0  0  0  0  0  0  0  0
  1  2  1  0  0  0  0
  1  3  1  0  0  0  0
  1  4  2  0  0  0  0
  2  5  1  0  0  0  0
  2  7  2  0  0  0  0
  3  6  1  0  0  0  0
  3  8  2  0  0  0  0
  4  9  1  0  0  0  0
  4 10  1  0  0  0  0
  5 11  1  0  0  0  0
  5 13  2  0  0  0  0
  6 12  1  0  0  0  0
  6 14  2  0  0  0  0
  7 15  1  0  0  0  0
  7 17  1  0  0  0  0
  8 16  1  0  0  0  0
  8 18  1  0  0  0  0
  9 11  2  0  0  0  0
  9 21  1  0  0  0  0
 10 12  2  0  0  0  0
 10 22  1  0  0  0  0
 11 23  1  0  0  0  0
 12 24  1  0  0  0  0
 13 19  1  0  0  0  0
 13 25  1  0  0  0  0
 14 20  1  0  0  0  0
 14 26  1  0  0  0  0
 15 19  2  0  0  0  0
 15 27  1  0  0  0  0
 16 20  2  0  0  0  0
 16 28  1  0  0  0  0
 17 29  1  0  0  0  0
 17 30  1  0  0  0  0
 17 31  1  0  0  0  0
 18 32  1  0  0  0  0
 18 33  1  0  0  0  0
 18 34  1  0  0  0  0
 19 35  1  0  0  0  0
 20 36  1  0  0  0  0
M  END
> <PUBCHEM_COMPOUND_CID>
77696

> <PUBCHEM_CONFORMER_RMSD>
0.6

> <PUBCHEM_CONFORMER_DIVERSEORDER>
1

> <PUBCHEM_MMFF94_PARTIAL_CHARGES>
24
10 -0.15
11 -0.15
12 -0.15
13 -0.15
14 -0.15
15 -0.15
16 -0.15
17 0.14
18 0.14
19 -0.15
20 -0.15
21 0.15
22 0.15
23 0.15
24 0.15
25 0.15
26 0.15
27 0.15
28 0.15
35 0.15
36 0.15
7 -0.14
8 -0.14
9 -0.15

> <PUBCHEM_EFFECTIVE_ROTOR_COUNT>
0

> <PUBCHEM_PHARMACOPHORE_FEATURES>
4
6 1 2 4 5 9 11 rings
6 1 3 4 6 10 12 rings
6 2 5 7 13 15 19 rings
6 3 6 8 14 16 20 rings

> <PUBCHEM_HEAVY_ATOM_COUNT>
20

> <PUBCHEM_ATOM_DEF_STEREO_COUNT>
0

> <PUBCHEM_ATOM_UDEF_STEREO_COUNT>
0

> <PUBCHEM_BOND_DEF_STEREO_COUNT>
0

> <PUBCHEM_BOND_UDEF_STEREO_COUNT>
0

> <PUBCHEM_ISOTOPIC_ATOM_COUNT>
0

> <PUBCHEM_COMPONENT_COUNT>
1

> <PUBCHEM_CACTVS_TAUTO_COUNT>
1

> <PUBCHEM_CONFORMER_ID>
00012F8000000001

> <PUBCHEM_MMFF94_ENERGY>
127.4648

> <PUBCHEM_FEATURE_SELFOVERLAP>
20.369

> <PUBCHEM_SHAPE_FINGERPRINT>
10062212 137 18337663221646047843
10411042 1 16825308325905820218
10616163 171 18339081595967304310
10863032 1 18412261744095309648
10967382 1 18410573955091961318
1100329 8 18410854318004724834
11370993 70 18410566288575760208
11680986 33 18336558126624246475
13132413 78 18411698828522810437
13140716 1 18409162203974642738
13583140 156 17095515189252180777
138480 1 17690280413123815623
14178342 30 18337378444208531024
14223421 5 18410013191287488671
15196674 1 18410855455833246470
15442244 35 18338514119445439618
15536298 74 18343021047619418142
16752209 62 18266743678346493662
16945 1 18410859858174711878
17492 89 18410292510334061507
19591789 44 18410858767258546795
20510252 161 18126009509816282320
20715895 44 17903625290634661365
20739085 24 17904794109854163969
20905425 154 18270123559557194615
21267235 1 18410864256221580262
23184049 59 18262239906556512265
2334 1 18338800138138521930
23402539 116 18270674381008067260
23419403 2 16754294966490543611
23463225 33 18336546010463079288
23559900 14 18201720704422857392
2748010 2 15744726297517405206
335352 9 18338516322784631910
34934 24 18410848863058401632
350125 39 18120378906438596045
474 4 18186523223784066732
5104073 3 18409729564548013906
57005193 9 18410002230536321485
7064713 232 18270390586511952024
7364860 26 18269275673057482110
7832392 63 18410573985415344750
9709674 26 18341899605714997430
9981440 41 18191862551586586106

> <PUBCHEM_SHAPE_MULTIPOLES>
411.59
6.2
3.34
0.79
0
0.99
0
-1.75
0
0
0
0
-0.31
-0.62

> <PUBCHEM_SHAPE_SELFOVERLAP>
944.266

> <PUBCHEM_SHAPE_VOLUME>
197

> <PUBCHEM_COORDINATE_TYPE>
2
5
10

$$$$
