15192
  -OEChem-11012401073D

 42 41  0     0  0  0  0  0  0999 V2000
    6.2963    0.2647    0.0181 S   0  0  0  0  0  0  0  0  0  0  0  0
    7.3385   -0.9163    0.4426 O   0  0  0  0  0  0  0  0  0  0  0  0
    6.2678    1.2622    1.0733 O   0  0  0  0  0  0  0  0  0  0  0  0
    6.5474    0.6318   -1.3644 O   0  0  0  0  0  0  0  0  0  0  0  0
   -1.5636    0.2762   -0.1053 C   0  0  0  0  0  0  0  0  0  0  0  0
   -0.3228   -0.6201   -0.0746 C   0  0  0  0  0  0  0  0  0  0  0  0
   -2.8799   -0.5048   -0.0518 C   0  0  0  0  0  0  0  0  0  0  0  0
    0.9608    0.2136   -0.1025 C   0  0  0  0  0  0  0  0  0  0  0  0
   -4.1208    0.3891   -0.1081 C   0  0  0  0  0  0  0  0  0  0  0  0
    2.2357   -0.6266    0.0178 C   0  0  0  0  0  0  0  0  0  0  0  0
   -5.4037   -0.4352    0.0222 C   0  0  0  0  0  0  0  0  0  0  0  0
    3.5579    0.1427   -0.0847 C   0  0  0  0  0  0  0  0  0  0  0  0
   -6.6441    0.4598    0.0047 C   0  0  0  0  0  0  0  0  0  0  0  0
    4.8179   -0.6930    0.0938 C   0  0  0  0  0  0  0  0  0  0  0  0
   -7.9266   -0.3659    0.1010 C   0  0  0  0  0  0  0  0  0  0  0  0
   -9.1608    0.5218    0.1178 C   0  0  0  0  0  0  0  0  0  0  0  0
   -1.5291    0.9731    0.7413 H   0  0  0  0  0  0  0  0  0  0  0  0
   -1.5457    0.8854   -1.0176 H   0  0  0  0  0  0  0  0  0  0  0  0
   -0.3377   -1.3042   -0.9312 H   0  0  0  0  0  0  0  0  0  0  0  0
   -0.3404   -1.2357    0.8327 H   0  0  0  0  0  0  0  0  0  0  0  0
   -2.9017   -1.0983    0.8708 H   0  0  0  0  0  0  0  0  0  0  0  0
   -2.9103   -1.2163   -0.8863 H   0  0  0  0  0  0  0  0  0  0  0  0
    0.9971    0.7875   -1.0367 H   0  0  0  0  0  0  0  0  0  0  0  0
    0.9423    0.9434    0.7162 H   0  0  0  0  0  0  0  0  0  0  0  0
   -4.1301    0.9456   -1.0529 H   0  0  0  0  0  0  0  0  0  0  0  0
   -4.0752    1.1269    0.7021 H   0  0  0  0  0  0  0  0  0  0  0  0
    2.2250   -1.3980   -0.7627 H   0  0  0  0  0  0  0  0  0  0  0  0
    2.2138   -1.1587    0.9773 H   0  0  0  0  0  0  0  0  0  0  0  0
   -5.3803   -1.0091    0.9565 H   0  0  0  0  0  0  0  0  0  0  0  0
   -5.4587   -1.1584   -0.8006 H   0  0  0  0  0  0  0  0  0  0  0  0
    3.5494    0.9427    0.6665 H   0  0  0  0  0  0  0  0  0  0  0  0
    3.5973    0.6469   -1.0585 H   0  0  0  0  0  0  0  0  0  0  0  0
   -6.6583    1.0522   -0.9183 H   0  0  0  0  0  0  0  0  0  0  0  0
   -6.5971    1.1670    0.8418 H   0  0  0  0  0  0  0  0  0  0  0  0
    4.8817   -1.4646   -0.6800 H   0  0  0  0  0  0  0  0  0  0  0  0
    4.8001   -1.1817    1.0739 H   0  0  0  0  0  0  0  0  0  0  0  0
   -7.9900   -1.0559   -0.7485 H   0  0  0  0  0  0  0  0  0  0  0  0
   -7.9105   -0.9744    1.0127 H   0  0  0  0  0  0  0  0  0  0  0  0
   -9.1440    1.2010    0.9762 H   0  0  0  0  0  0  0  0  0  0  0  0
  -10.0663   -0.0893    0.1859 H   0  0  0  0  0  0  0  0  0  0  0  0
   -9.2242    1.1226   -0.7951 H   0  0  0  0  0  0  0  0  0  0  0  0
    7.4738   -1.6246   -0.2301 H   0  0  0  0  0  0  0  0  0  0  0  0
  1  2  1  0  0  0  0
  1  3  2  0  0  0  0
  1  4  2  0  0  0  0
  1 14  1  0  0  0  0
  2 42  1  0  0  0  0
  5  6  1  0  0  0  0
  5  7  1  0  0  0  0
  5 17  1  0  0  0  0
  5 18  1  0  0  0  0
  6  8  1  0  0  0  0
  6 19  1  0  0  0  0
  6 20  1  0  0  0  0
  7  9  1  0  0  0  0
  7 21  1  0  0  0  0
  7 22  1  0  0  0  0
  8 10  1  0  0  0  0
  8 23  1  0  0  0  0
  8 24  1  0  0  0  0
  9 11  1  0  0  0  0
  9 25  1  0  0  0  0
  9 26  1  0  0  0  0
 10 12  1  0  0  0  0
 10 27  1  0  0  0  0
 10 28  1  0  0  0  0
 11 13  1  0  0  0  0
 11 29  1  0  0  0  0
 11 30  1  0  0  0  0
 12 14  1  0  0  0  0
 12 31  1  0  0  0  0
 12 32  1  0  0  0  0
 13 15  1  0  0  0  0
 13 33  1  0  0  0  0
 13 34  1  0  0  0  0
 14 35  1  0  0  0  0
 14 36  1  0  0  0  0
 15 16  1  0  0  0  0
 15 37  1  0  0  0  0
 15 38  1  0  0  0  0
 16 39  1  0  0  0  0
 16 40  1  0  0  0  0
 16 41  1  0  0  0  0
M  END
> <PUBCHEM_COMPOUND_CID>
15192

> <PUBCHEM_CONFORMER_RMSD>
1.4

> <PUBCHEM_CONFORMER_DIVERSEORDER>
1
20
18
7
5
12
13
4
19
2
3
11
6
8
14
9
15
10
17
16

> <PUBCHEM_MMFF94_PARTIAL_CHARGES>
6
1 1.38
14 0.11
2 -0.68
3 -0.65
4 -0.65
42 0.5

> <PUBCHEM_EFFECTIVE_ROTOR_COUNT>
11

> <PUBCHEM_PHARMACOPHORE_FEATURES>
5
1 16 hydrophobe
1 2 acceptor
1 3 acceptor
1 4 acceptor
4 1 2 3 4 anion

> <PUBCHEM_HEAVY_ATOM_COUNT>
16

> <PUBCHEM_ATOM_DEF_STEREO_COUNT>
0

> <PUBCHEM_ATOM_UDEF_STEREO_COUNT>
0

> <PUBCHEM_BOND_DEF_STEREO_COUNT>
0

> <PUBCHEM_BOND_UDEF_STEREO_COUNT>
0

> <PUBCHEM_ISOTOPIC_ATOM_COUNT>
0

> <PUBCHEM_COMPONENT_COUNT>
1

> <PUBCHEM_CACTVS_TAUTO_COUNT>
1

> <PUBCHEM_CONFORMER_ID>
00003B5800000001

> <PUBCHEM_MMFF94_ENERGY>
-0.2701

> <PUBCHEM_FEATURE_SELFOVERLAP>
25.425

> <PUBCHEM_SHAPE_FINGERPRINT>
11315181 36 17632298995785445595
11638347 137 16877939413153303370
12091667 2 18272369777052604791
13533116 47 18260823753530420650
14123256 10 17561082501544624755
14251764 18 18335139787216388741
14251764 46 16343984706569160718
15716309 27 17749107798745910603
17834076 25 18410573985151477135
18006028 8 18272369772267403873
20281389 69 18409444782752686376
20621476 8 17703792505096466925
21150785 3 15985385586397943053
22224240 67 18334011705366303355
23521765 1 18341894087151039479
246663 6 9943805599938624389
33532 11 11458416938326902073
33684 2 18342738507886469915
42788 4 18412543211088721154
59567204 34 18058733499819879201
59682541 35 17240206564539722513
8209 1 18410856560024904967

> <PUBCHEM_SHAPE_MULTIPOLES>
315.51
28.82
0.91
0.76
20.11
0.03
0.05
3.3
-1.51
-0.66
-0.07
-0.92
0.12
-0.03

> <PUBCHEM_SHAPE_SELFOVERLAP>
562.353

> <PUBCHEM_SHAPE_VOLUME>
203.9

> <PUBCHEM_COORDINATE_TYPE>
2
5
10

$$$$
