15091568
  -OEChem-10312420412D

 31 30  0     0  0  0  0  0  0999 V2000
    6.8301   -0.8660    0.0000 F   0  0  0  0  0  0  0  0  0  0  0  0
    5.8301    0.8660    0.0000 F   0  0  0  0  0  0  0  0  0  0  0  0
    5.4641   -0.5000    0.0000 O   0  0  0  0  0  0  0  0  0  0  0  0
    7.1962    0.5000    0.0000 O   0  0  0  0  0  0  0  0  0  0  0  0
    2.0000   -0.5000    0.0000 O   0  5  0  0  0  0  0  0  0  0  0  0
    3.7320    1.2320    0.0000 O   0  5  0  0  0  0  0  0  0  0  0  0
    5.2320   -1.3660    0.0000 O   0  5  0  0  0  0  0  0  0  0  0  0
   10.6603    0.5000    0.0000 O   0  5  0  0  0  0  0  0  0  0  0  0
    8.9282   -1.2320    0.0000 O   0  5  0  0  0  0  0  0  0  0  0  0
    8.9282    2.2320    0.0000 O   0  5  0  0  0  0  0  0  0  0  0  0
    2.8660   -2.0000    0.0000 O   0  0  0  0  0  0  0  0  0  0  0  0
    2.2320    0.3660    0.0000 O   0  0  0  0  0  0  0  0  0  0  0  0
    3.7320   -2.2320    0.0000 O   0  0  0  0  0  0  0  0  0  0  0  0
    9.7942    2.0000    0.0000 O   0  0  0  0  0  0  0  0  0  0  0  0
   10.4282   -0.3660    0.0000 O   0  0  0  0  0  0  0  0  0  0  0  0
    7.4282    1.3660    0.0000 O   0  0  0  0  0  0  0  0  0  0  0  0
    2.8660   -1.0000    0.0000 N   0  3  0  0  0  0  0  0  0  0  0  0
    3.2320    0.3660    0.0000 N   0  3  0  0  0  0  0  0  0  0  0  0
    4.2320   -1.3660    0.0000 N   0  3  0  0  0  0  0  0  0  0  0  0
    9.7942    1.0000    0.0000 N   0  3  0  0  0  0  0  0  0  0  0  0
    9.4282   -0.3660    0.0000 N   0  3  0  0  0  0  0  0  0  0  0  0
    8.4282    1.3660    0.0000 N   0  3  0  0  0  0  0  0  0  0  0  0
    3.7320   -0.5000    0.0000 C   0  0  0  0  0  0  0  0  0  0  0  0
    8.9282    0.5000    0.0000 C   0  0  0  0  0  0  0  0  0  0  0  0
    4.5981    0.0000    0.0000 C   0  0  0  0  0  0  0  0  0  0  0  0
    8.0622   -0.0000    0.0000 C   0  0  0  0  0  0  0  0  0  0  0  0
    6.3301    0.0000    0.0000 C   0  0  0  0  0  0  0  0  0  0  0  0
    4.9966    0.4749    0.0000 H   0  0  0  0  0  0  0  0  0  0  0  0
    4.1996    0.4749    0.0000 H   0  0  0  0  0  0  0  0  0  0  0  0
    7.6636   -0.4749    0.0000 H   0  0  0  0  0  0  0  0  0  0  0  0
    8.4607   -0.4749    0.0000 H   0  0  0  0  0  0  0  0  0  0  0  0
  1 27  1  0  0  0  0
  2 27  1  0  0  0  0
  3 25  1  0  0  0  0
  3 27  1  0  0  0  0
  4 26  1  0  0  0  0
  4 27  1  0  0  0  0
  5 17  1  0  0  0  0
  6 18  1  0  0  0  0
  7 19  1  0  0  0  0
  8 20  1  0  0  0  0
  9 21  1  0  0  0  0
 10 22  1  0  0  0  0
 11 17  2  0  0  0  0
 12 18  2  0  0  0  0
 13 19  2  0  0  0  0
 14 20  2  0  0  0  0
 15 21  2  0  0  0  0
 16 22  2  0  0  0  0
 17 23  1  0  0  0  0
 18 23  1  0  0  0  0
 19 23  1  0  0  0  0
 20 24  1  0  0  0  0
 21 24  1  0  0  0  0
 22 24  1  0  0  0  0
 23 25  1  0  0  0  0
 24 26  1  0  0  0  0
 25 28  1  0  0  0  0
 25 29  1  0  0  0  0
 26 30  1  0  0  0  0
 26 31  1  0  0  0  0
M  CHG  8   5  -1   6  -1   7  -1   8  -1   9  -1  10  -1  17   1  18   1
M  CHG  4  19   1  20   1  21   1  22   1
M  END
> <PUBCHEM_COMPOUND_CID>
15091568

> <PUBCHEM_COMPOUND_CANONICALIZED>
1

> <PUBCHEM_CACTVS_COMPLEXITY>
532

> <PUBCHEM_CACTVS_HBOND_ACCEPTOR>
16

> <PUBCHEM_CACTVS_HBOND_DONOR>
0

> <PUBCHEM_CACTVS_ROTATABLE_BOND>
6

> <PUBCHEM_CACTVS_SUBSKEYS>
AAADcYBjvYAAAAAAAAAAAAAAAAAAAAAAAAAAAAAAAAAAAAAAAAAAHwAEAAAAAAChgBIBCAAQRAABAAAAAwAAAAAAAAAgAAAAAAASAAAAAAAhAAAAAAAEAAAAAAAAAAAAAAAAAAAAAAAAAAAAAAAAAAAAAA==

> <PUBCHEM_IUPAC_OPENEYE_NAME>
2-[difluoro(2,2,2-trinitroethoxy)methoxy]-1,1,1-trinitro-ethane

> <PUBCHEM_IUPAC_CAS_NAME>
2-[difluoro(2,2,2-trinitroethoxy)methoxy]-1,1,1-trinitroethane

> <PUBCHEM_IUPAC_NAME_MARKUP>
2-[difluoro(2,2,2-trinitroethoxy)methoxy]-1,1,1-trinitroethane

> <PUBCHEM_IUPAC_NAME>
2-[difluoro(2,2,2-trinitroethoxy)methoxy]-1,1,1-trinitroethane

> <PUBCHEM_IUPAC_SYSTEMATIC_NAME>
2-[bis(fluoranyl)-(2,2,2-trinitroethoxy)methoxy]-1,1,1-trinitro-ethane

> <PUBCHEM_IUPAC_TRADITIONAL_NAME>
2-[difluoro(2,2,2-trinitroethoxy)methoxy]-1,1,1-trinitro-ethane

> <PUBCHEM_IUPAC_INCHI>
InChI=1S/C5H4F2N6O14/c6-5(7,26-1-3(8(14)15,9(16)17)10(18)19)27-2-4(11(20)21,12(22)23)13(24)25/h1-2H2

> <PUBCHEM_IUPAC_INCHIKEY>
IXGNWIXAXWFAHK-UHFFFAOYSA-N

> <PUBCHEM_XLOGP3_AA>
0.4

> <PUBCHEM_EXACT_MASS>
409.97535515

> <PUBCHEM_MOLECULAR_FORMULA>
C5H4F2N6O14

> <PUBCHEM_MOLECULAR_WEIGHT>
410.11

> <PUBCHEM_OPENEYE_CAN_SMILES>
C(C([N+](=O)[O-])([N+](=O)[O-])[N+](=O)[O-])OC(OCC([N+](=O)[O-])([N+](=O)[O-])[N+](=O)[O-])(F)F

> <PUBCHEM_OPENEYE_ISO_SMILES>
C(C([N+](=O)[O-])([N+](=O)[O-])[N+](=O)[O-])OC(OCC([N+](=O)[O-])([N+](=O)[O-])[N+](=O)[O-])(F)F

> <PUBCHEM_CACTVS_TPSA>
293

> <PUBCHEM_MONOISOTOPIC_WEIGHT>
409.97535515

> <PUBCHEM_TOTAL_CHARGE>
0

> <PUBCHEM_HEAVY_ATOM_COUNT>
27

> <PUBCHEM_ATOM_DEF_STEREO_COUNT>
0

> <PUBCHEM_ATOM_UDEF_STEREO_COUNT>
0

> <PUBCHEM_BOND_DEF_STEREO_COUNT>
0

> <PUBCHEM_BOND_UDEF_STEREO_COUNT>
0

> <PUBCHEM_ISOTOPIC_ATOM_COUNT>
0

> <PUBCHEM_COMPONENT_COUNT>
1

> <PUBCHEM_CACTVS_TAUTO_COUNT>
-1

> <PUBCHEM_COORDINATE_TYPE>
1
5
255

$$$$
