57370890
  -OEChem-11012401273D

 37 37  0     1  0  0  0  0  0999 V2000
   -2.0992   -0.4048    1.3926 O   0  0  0  0  0  0  0  0  0  0  0  0
   -2.9317    1.5168   -1.5918 O   0  0  0  0  0  0  0  0  0  0  0  0
   -4.8535   -0.4159    0.6099 O   0  0  0  0  0  0  0  0  0  0  0  0
   -1.0953    2.0854    1.5032 O   0  0  0  0  0  0  0  0  0  0  0  0
   -2.7364   -3.0910   -0.6816 O   0  0  0  0  0  0  0  0  0  0  0  0
    0.8647    1.0742   -0.0629 N   0  0  0  0  0  0  0  0  0  0  0  0
    1.8143    0.6211   -0.9038 N   0  0  0  0  0  0  0  0  0  0  0  0
   -2.5112   -0.2028    0.0351 C   0  0  2  0  0  0  0  0  0  0  0  0
   -2.6280    1.3174   -0.2036 C   0  0  1  0  0  0  0  0  0  0  0  0
   -3.8187   -0.9855   -0.1886 C   0  0  1  0  0  0  0  0  0  0  0  0
   -1.3507    2.1066    0.1122 C   0  0  2  0  0  0  0  0  0  0  0  0
   -3.7042   -2.4723    0.1505 C   0  0  0  0  0  0  0  0  0  0  0  0
   -0.1806    1.5376   -0.6647 C   0  0  0  0  0  0  0  0  0  0  0  0
    3.0134    0.0850   -0.4093 C   0  0  0  0  0  0  0  0  0  0  0  0
    3.9891   -0.3745   -1.2938 C   0  0  0  0  0  0  0  0  0  0  0  0
    3.2293    0.0118    0.9667 C   0  0  0  0  0  0  0  0  0  0  0  0
    5.1809   -0.9074   -0.8023 C   0  0  0  0  0  0  0  0  0  0  0  0
    4.4209   -0.5210    1.4583 C   0  0  0  0  0  0  0  0  0  0  0  0
    5.3967   -0.9807    0.5738 C   0  0  0  0  0  0  0  0  0  0  0  0
   -1.7448   -0.6343   -0.6197 H   0  0  0  0  0  0  0  0  0  0  0  0
   -3.4491    1.7244    0.3985 H   0  0  0  0  0  0  0  0  0  0  0  0
   -4.1098   -0.8773   -1.2403 H   0  0  0  0  0  0  0  0  0  0  0  0
   -1.4715    3.1481   -0.2080 H   0  0  0  0  0  0  0  0  0  0  0  0
   -3.4306   -2.6245    1.2002 H   0  0  0  0  0  0  0  0  0  0  0  0
   -4.6681   -2.9695   -0.0054 H   0  0  0  0  0  0  0  0  0  0  0  0
   -0.2642    1.5584   -1.7673 H   0  0  0  0  0  0  0  0  0  0  0  0
   -1.1807   -0.0971    1.4728 H   0  0  0  0  0  0  0  0  0  0  0  0
   -3.0727    2.4696   -1.7256 H   0  0  0  0  0  0  0  0  0  0  0  0
   -5.6763   -0.8940    0.4100 H   0  0  0  0  0  0  0  0  0  0  0  0
   -0.3357    2.6692    1.6704 H   0  0  0  0  0  0  0  0  0  0  0  0
   -2.7056   -4.0309   -0.4344 H   0  0  0  0  0  0  0  0  0  0  0  0
    1.6850    0.6587   -1.9088 H   0  0  0  0  0  0  0  0  0  0  0  0
    3.8333   -0.3230   -2.3684 H   0  0  0  0  0  0  0  0  0  0  0  0
    2.4916    0.3598    1.6848 H   0  0  0  0  0  0  0  0  0  0  0  0
    5.9407   -1.2654   -1.4909 H   0  0  0  0  0  0  0  0  0  0  0  0
    4.5895   -0.5784    2.5298 H   0  0  0  0  0  0  0  0  0  0  0  0
    6.3245   -1.3956    0.9567 H   0  0  0  0  0  0  0  0  0  0  0  0
  1  8  1  0  0  0  0
  1 27  1  0  0  0  0
  2  9  1  0  0  0  0
  2 28  1  0  0  0  0
  3 10  1  0  0  0  0
  3 29  1  0  0  0  0
  4 11  1  0  0  0  0
  4 30  1  0  0  0  0
  5 12  1  0  0  0  0
  5 31  1  0  0  0  0
  6  7  1  0  0  0  0
  6 13  2  3  0  0  0
  7 14  1  0  0  0  0
  7 32  1  0  0  0  0
  8  9  1  0  0  0  0
  8 10  1  0  0  0  0
  8 20  1  0  0  0  0
  9 11  1  0  0  0  0
  9 21  1  0  0  0  0
 10 12  1  0  0  0  0
 10 22  1  0  0  0  0
 11 13  1  0  0  0  0
 11 23  1  0  0  0  0
 12 24  1  0  0  0  0
 12 25  1  0  0  0  0
 13 26  1  0  0  0  0
 14 15  2  0  0  0  0
 14 16  1  0  0  0  0
 15 17  1  0  0  0  0
 15 33  1  0  0  0  0
 16 18  2  0  0  0  0
 16 34  1  0  0  0  0
 17 19  2  0  0  0  0
 17 35  1  0  0  0  0
 18 19  1  0  0  0  0
 18 36  1  0  0  0  0
 19 37  1  0  0  0  0
M  END
> <PUBCHEM_COMPOUND_CID>
57370890

> <PUBCHEM_CONFORMER_RMSD>
0.8

> <PUBCHEM_CONFORMER_DIVERSEORDER>
1
121
127
159
134
82
96
64
51
120
37
83
68
115
36
26
90
4
153
113
71
40
95
89
66
29
56
79
156
154
91
59
93
165
78
17
117
11
58
20
131
3
46
67
105
35
161
72
136
77
160
84
133
61
143
125
135
21
28
116
155
54
55
111
25
74
129
130
114
106
147
109
19
48
7
42
101
150
139
75
60
151
45
69
86
65
15
62
41
126
32
12
10
76
118
38
163
33
97
70
2
16
140
8
162
138
92
128
87
148
88
104
149
145
63
102
43
98
94
158
144
34
124
47
119
85
112
141
27
23
52
132
99
31
80
107
81
142
39
50
22
103
9
146
14
6
137
167
110
73
57
152
44
49
30
100
53
13
5
122
164
108
166
24
18
157
123

> <PUBCHEM_MMFF94_PARTIAL_CHARGES>
31
1 -0.68
10 0.28
11 0.34
12 0.28
13 0.33
14 0.1
15 -0.15
16 -0.15
17 -0.15
18 -0.15
19 -0.15
2 -0.68
26 0.06
27 0.4
28 0.4
29 0.4
3 -0.68
30 0.4
31 0.4
32 0.4
33 0.15
34 0.15
35 0.15
36 0.15
37 0.15
4 -0.68
5 -0.68
6 -0.49
7 -0.46
8 0.28
9 0.28

> <PUBCHEM_EFFECTIVE_ROTOR_COUNT>
7

> <PUBCHEM_PHARMACOPHORE_FEATURES>
13
1 1 acceptor
1 1 donor
1 2 acceptor
1 2 donor
1 3 acceptor
1 3 donor
1 4 acceptor
1 4 donor
1 5 acceptor
1 5 donor
1 6 acceptor
1 7 donor
6 14 15 16 17 18 19 rings

> <PUBCHEM_HEAVY_ATOM_COUNT>
19

> <PUBCHEM_ATOM_DEF_STEREO_COUNT>
4

> <PUBCHEM_ATOM_UDEF_STEREO_COUNT>
0

> <PUBCHEM_BOND_DEF_STEREO_COUNT>
0

> <PUBCHEM_BOND_UDEF_STEREO_COUNT>
1

> <PUBCHEM_ISOTOPIC_ATOM_COUNT>
0

> <PUBCHEM_COMPONENT_COUNT>
1

> <PUBCHEM_CACTVS_TAUTO_COUNT>
1

> <PUBCHEM_CONFORMER_ID>
036B690A00000001

> <PUBCHEM_MMFF94_ENERGY>
50.3725

> <PUBCHEM_FEATURE_SELFOVERLAP>
66.004

> <PUBCHEM_SHAPE_FINGERPRINT>
11046707 91 18335421261755314532
11370993 144 16701751449193524734
12410352 35 18187640310697813770
12523318 42 18339626863941061224
12633257 1 18200891659337614931
13167823 11 17894912902018321876
14178342 30 18199480861043633140
1420 369 18409168835182568914
14251752 14 17312814949489089549
14251757 5 18262811790533169494
14251764 30 17532104963195506483
15537594 2 18113904848719833283
16752209 62 18040709268858118682
18186145 218 12829500220713815964
200 152 17240485780284481564
20374829 77 18335420183966293607
20403669 9 18341051899487821615
20621476 91 18270100435980826186
20645477 70 15213297487803126128
20775530 9 17762341714082790135
21054139 6 17967533476618190010
22646028 28 18113057121349779112
23557571 272 18201727218964650518
23559900 14 18410564111275566472
339767 52 18334847329692174358
351380 3 18113902675424085786
559249 180 17896029958170751097
602551 16 18341894087256885286
633830 44 15285924589935644840

> <PUBCHEM_SHAPE_MULTIPOLES>
351.7
11.65
2.39
1.31
8.54
0.83
-0.13
6.4
-0.35
-3.5
0.19
0.69
-0.17
-0.06

> <PUBCHEM_SHAPE_SELFOVERLAP>
710.982

> <PUBCHEM_SHAPE_VOLUME>
203.7

> <PUBCHEM_COORDINATE_TYPE>
2
5
10

$$$$
