78008
  -OEChem-11012400433D

 26 26  0     0  0  0  0  0  0999 V2000
    1.6281    1.2593   -0.3908 O   0  0  0  0  0  0  0  0  0  0  0  0
    1.7539   -1.1113   -0.0704 O   0  0  0  0  0  0  0  0  0  0  0  0
    1.1231    0.1181    0.3322 C   0  0  0  0  0  0  0  0  0  0  0  0
   -0.3976   -0.0109    0.1622 C   0  0  0  0  0  0  0  0  0  0  0  0
    1.3829    0.3971    1.8253 C   0  0  0  0  0  0  0  0  0  0  0  0
   -1.1860    1.0617    0.5006 C   0  0  0  0  0  0  0  0  0  0  0  0
   -0.9032   -1.1927   -0.3213 C   0  0  0  0  0  0  0  0  0  0  0  0
   -2.5673    0.9448    0.3460 C   0  0  0  0  0  0  0  0  0  0  0  0
   -2.2846   -1.3094   -0.4760 C   0  0  0  0  0  0  0  0  0  0  0  0
   -3.1166   -0.2406   -0.1423 C   0  0  0  0  0  0  0  0  0  0  0  0
    1.3964    1.2328   -1.7953 C   0  0  0  0  0  0  0  0  0  0  0  0
    3.1707   -1.1488    0.0298 C   0  0  0  0  0  0  0  0  0  0  0  0
    0.9074    1.3169    2.1815 H   0  0  0  0  0  0  0  0  0  0  0  0
    2.4532    0.5378    2.0142 H   0  0  0  0  0  0  0  0  0  0  0  0
    1.0517   -0.4397    2.4508 H   0  0  0  0  0  0  0  0  0  0  0  0
   -0.7761    1.9987    0.8626 H   0  0  0  0  0  0  0  0  0  0  0  0
   -0.2906   -2.0452   -0.5925 H   0  0  0  0  0  0  0  0  0  0  0  0
   -3.2149    1.7785    0.6010 H   0  0  0  0  0  0  0  0  0  0  0  0
   -2.7130   -2.2320   -0.8568 H   0  0  0  0  0  0  0  0  0  0  0  0
   -4.1920   -0.3311   -0.2640 H   0  0  0  0  0  0  0  0  0  0  0  0
    1.9489    2.0644   -2.2418 H   0  0  0  0  0  0  0  0  0  0  0  0
    0.3371    1.3737   -2.0253 H   0  0  0  0  0  0  0  0  0  0  0  0
    1.7598    0.3023   -2.2407 H   0  0  0  0  0  0  0  0  0  0  0  0
    3.6338   -0.2857   -0.4557 H   0  0  0  0  0  0  0  0  0  0  0  0
    3.5199   -2.0540   -0.4751 H   0  0  0  0  0  0  0  0  0  0  0  0
    3.4823   -1.2098    1.0757 H   0  0  0  0  0  0  0  0  0  0  0  0
  1  3  1  0  0  0  0
  1 11  1  0  0  0  0
  2  3  1  0  0  0  0
  2 12  1  0  0  0  0
  3  4  1  0  0  0  0
  3  5  1  0  0  0  0
  4  6  2  0  0  0  0
  4  7  1  0  0  0  0
  5 13  1  0  0  0  0
  5 14  1  0  0  0  0
  5 15  1  0  0  0  0
  6  8  1  0  0  0  0
  6 16  1  0  0  0  0
  7  9  2  0  0  0  0
  7 17  1  0  0  0  0
  8 10  2  0  0  0  0
  8 18  1  0  0  0  0
  9 10  1  0  0  0  0
  9 19  1  0  0  0  0
 10 20  1  0  0  0  0
 11 21  1  0  0  0  0
 11 22  1  0  0  0  0
 11 23  1  0  0  0  0
 12 24  1  0  0  0  0
 12 25  1  0  0  0  0
 12 26  1  0  0  0  0
M  END
> <PUBCHEM_COMPOUND_CID>
78008

> <PUBCHEM_CONFORMER_RMSD>
0.6

> <PUBCHEM_CONFORMER_DIVERSEORDER>
1
3
6
2
4
5

> <PUBCHEM_MMFF94_PARTIAL_CHARGES>
16
1 -0.56
10 -0.15
11 0.28
12 0.28
16 0.15
17 0.15
18 0.15
19 0.15
2 -0.56
20 0.15
3 0.7
4 -0.14
6 -0.15
7 -0.15
8 -0.15
9 -0.15

> <PUBCHEM_EFFECTIVE_ROTOR_COUNT>
3

> <PUBCHEM_PHARMACOPHORE_FEATURES>
3
1 1 acceptor
1 2 acceptor
6 4 6 7 8 9 10 rings

> <PUBCHEM_HEAVY_ATOM_COUNT>
12

> <PUBCHEM_ATOM_DEF_STEREO_COUNT>
0

> <PUBCHEM_ATOM_UDEF_STEREO_COUNT>
0

> <PUBCHEM_BOND_DEF_STEREO_COUNT>
0

> <PUBCHEM_BOND_UDEF_STEREO_COUNT>
0

> <PUBCHEM_ISOTOPIC_ATOM_COUNT>
0

> <PUBCHEM_COMPONENT_COUNT>
1

> <PUBCHEM_CACTVS_TAUTO_COUNT>
1

> <PUBCHEM_CONFORMER_ID>
000130B800000001

> <PUBCHEM_MMFF94_ENERGY>
42.9355

> <PUBCHEM_FEATURE_SELFOVERLAP>
15.255

> <PUBCHEM_SHAPE_FINGERPRINT>
12326174 3 17168134672265333896
12423570 1 14160370732538679292
12932764 1 17631734997005454875
14128692 85 18413113844438058654
14993402 34 18188212000603539078
15219459 52 18261118482000453903
15775835 57 18202006525220240713
16945 1 18198337355902067178
20361792 2 17604133840517466770
20645464 45 16988841687721956451
20653085 51 17603580820892320525
207724 885 18187650141571791266
21040471 1 18272650134594020057
21524375 3 16810399935563713100
232386 152 18059857259608401462
23402539 116 16844431757805777137
23552423 10 18335417993359237115
23559900 14 17702665437591808190
2748010 2 18130215060367540115
3248919 1 18188200017977085963
369184 2 17489576883834598659
5084963 1 18410291380904283867
7364860 26 18270398412016211400
8030462 33 18270400606707284151

> <PUBCHEM_SHAPE_MULTIPOLES>
235.22
4.37
1.5
1.26
0.53
0.12
-0.06
0.94
-0.1
-0.08
-0.25
-0.78
-0.5
-0.48

> <PUBCHEM_SHAPE_SELFOVERLAP>
478.837

> <PUBCHEM_SHAPE_VOLUME>
137.9

> <PUBCHEM_COORDINATE_TYPE>
2
5
10

$$$$
