5325689
  -OEChem-11012400533D

 30 30  0     1  0  0  0  0  0999 V2000
    1.3959   -0.9160    0.3012 O   0  0  0  0  0  0  0  0  0  0  0  0
   -1.3959   -0.9161   -0.3012 O   0  0  0  0  0  0  0  0  0  0  0  0
    3.1915   -0.7172   -1.1386 O   0  0  0  0  0  0  0  0  0  0  0  0
   -3.1915   -0.7172    1.1386 O   0  0  0  0  0  0  0  0  0  0  0  0
    0.7225    0.2141   -0.2511 C   0  0  1  0  0  0  0  0  0  0  0  0
   -0.7225    0.2141    0.2512 C   0  0  1  0  0  0  0  0  0  0  0  0
    1.4639    1.4850    0.1623 C   0  0  0  0  0  0  0  0  0  0  0  0
   -1.4641    1.4849   -0.1623 C   0  0  0  0  0  0  0  0  0  0  0  0
    0.7166    2.7438   -0.2616 C   0  0  0  0  0  0  0  0  0  0  0  0
   -0.7167    2.7438    0.2616 C   0  0  0  0  0  0  0  0  0  0  0  0
    2.6998   -1.0682   -0.0746 C   0  0  0  0  0  0  0  0  0  0  0  0
   -2.6997   -1.0683    0.0747 C   0  0  0  0  0  0  0  0  0  0  0  0
    3.4670   -1.7413    1.0229 C   0  0  0  0  0  0  0  0  0  0  0  0
   -3.4668   -1.7414   -1.0229 C   0  0  0  0  0  0  0  0  0  0  0  0
    0.7178    0.1097   -1.3447 H   0  0  0  0  0  0  0  0  0  0  0  0
   -0.7178    0.1096    1.3447 H   0  0  0  0  0  0  0  0  0  0  0  0
    2.4708    1.5219   -0.2667 H   0  0  0  0  0  0  0  0  0  0  0  0
    1.6069    1.4898    1.2512 H   0  0  0  0  0  0  0  0  0  0  0  0
   -2.4710    1.5218    0.2667 H   0  0  0  0  0  0  0  0  0  0  0  0
   -1.6071    1.4897   -1.2512 H   0  0  0  0  0  0  0  0  0  0  0  0
    0.7070    2.8126   -1.3563 H   0  0  0  0  0  0  0  0  0  0  0  0
    1.2438    3.6296    0.1102 H   0  0  0  0  0  0  0  0  0  0  0  0
   -0.7071    2.8125    1.3564 H   0  0  0  0  0  0  0  0  0  0  0  0
   -1.2439    3.6295   -0.1102 H   0  0  0  0  0  0  0  0  0  0  0  0
    3.0450   -2.7304    1.2176 H   0  0  0  0  0  0  0  0  0  0  0  0
    3.4388   -1.1255    1.9254 H   0  0  0  0  0  0  0  0  0  0  0  0
    4.5098   -1.8615    0.7155 H   0  0  0  0  0  0  0  0  0  0  0  0
   -3.0444   -2.7302   -1.2180 H   0  0  0  0  0  0  0  0  0  0  0  0
   -3.4390   -1.1254   -1.9252 H   0  0  0  0  0  0  0  0  0  0  0  0
   -4.5095   -1.8621   -0.7154 H   0  0  0  0  0  0  0  0  0  0  0  0
  1  5  1  0  0  0  0
  1 11  1  0  0  0  0
  2  6  1  0  0  0  0
  2 12  1  0  0  0  0
  3 11  2  0  0  0  0
  4 12  2  0  0  0  0
  5  6  1  0  0  0  0
  5  7  1  0  0  0  0
  5 15  1  0  0  0  0
  6  8  1  0  0  0  0
  6 16  1  0  0  0  0
  7  9  1  0  0  0  0
  7 17  1  0  0  0  0
  7 18  1  0  0  0  0
  8 10  1  0  0  0  0
  8 19  1  0  0  0  0
  8 20  1  0  0  0  0
  9 10  1  0  0  0  0
  9 21  1  0  0  0  0
  9 22  1  0  0  0  0
 10 23  1  0  0  0  0
 10 24  1  0  0  0  0
 11 13  1  0  0  0  0
 12 14  1  0  0  0  0
 13 25  1  0  0  0  0
 13 26  1  0  0  0  0
 13 27  1  0  0  0  0
 14 28  1  0  0  0  0
 14 29  1  0  0  0  0
 14 30  1  0  0  0  0
M  END
> <PUBCHEM_COMPOUND_CID>
5325689

> <PUBCHEM_CONFORMER_RMSD>
0.6

> <PUBCHEM_CONFORMER_DIVERSEORDER>
2
21
23
16
1
4
6
22
12
31
26
9
18
25
10
14
29
19
27
24
3
17
30
15
11
20
5
28
8
13
7

> <PUBCHEM_MMFF94_PARTIAL_CHARGES>
10
1 -0.43
11 0.66
12 0.66
13 0.06
14 0.06
2 -0.43
3 -0.57
4 -0.57
5 0.28
6 0.28

> <PUBCHEM_EFFECTIVE_ROTOR_COUNT>
5.2

> <PUBCHEM_PHARMACOPHORE_FEATURES>
3
1 3 acceptor
1 4 acceptor
6 5 6 7 8 9 10 rings

> <PUBCHEM_HEAVY_ATOM_COUNT>
14

> <PUBCHEM_ATOM_DEF_STEREO_COUNT>
2

> <PUBCHEM_ATOM_UDEF_STEREO_COUNT>
0

> <PUBCHEM_BOND_DEF_STEREO_COUNT>
0

> <PUBCHEM_BOND_UDEF_STEREO_COUNT>
0

> <PUBCHEM_ISOTOPIC_ATOM_COUNT>
0

> <PUBCHEM_COMPONENT_COUNT>
1

> <PUBCHEM_CACTVS_TAUTO_COUNT>
1

> <PUBCHEM_CONFORMER_ID>
0051437900000002

> <PUBCHEM_MMFF94_ENERGY>
23.9615

> <PUBCHEM_FEATURE_SELFOVERLAP>
15.223

> <PUBCHEM_SHAPE_FINGERPRINT>
1 1 17689993857364051501
10989021 7 18412263964662057929
11357001 24 18191587436939514681
12553582 1 18410862061493590818
13083527 12 18124002849693114120
13538477 17 17972321711837750132
14251717 144 18123744520173913655
15375462 189 18334869328261216778
15442244 35 18413392059935583289
15669948 3 18119816807231499822
161256 15 18340207491763880380
16945 1 18123190091525525040
193761 8 18410575088958851716
20339313 130 18269285701790222579
20361792 2 18412541028791966191
20645477 70 18123743416868985431
20671657 53 18410002265149378007
20871998 184 18199467653860604830
20871998 22 18412260661879634656
21296965 67 18410571781870210075
21501502 16 18410859862480670412
22112679 90 18198651906416967833
2334 1 18410575119028468817
23402539 116 17981023242333303173
23419403 2 17699810095413742673
23552423 10 18264212576598793277
23557571 272 18272091540075027454
23559900 14 17767116511563205230
23598291 2 18129956701052665679
23598294 1 18265341599015354122
257057 1 18338785771462536205
2748010 2 18411407415018527220
3071541 250 18338530736336161444
3086196 2 18193256526093223066
6338986 31 18339067246470953903
7364860 26 18055636363128555424
81228 2 18194966244656181184
81539 233 17900815264967206748

> <PUBCHEM_SHAPE_MULTIPOLES>
264.64
5.44
2.9
0.93
0
2.16
0
-5.11
0
0
0
0
-0.32
-0.57

> <PUBCHEM_SHAPE_SELFOVERLAP>
524.674

> <PUBCHEM_SHAPE_VOLUME>
155.2

> <PUBCHEM_COORDINATE_TYPE>
2
5
10

$$$$
