520292
  -OEChem-11012401193D

 30 31  0     1  0  0  0  0  0999 V2000
    0.7806    0.5702    1.6377 O   0  0  0  0  0  0  0  0  0  0  0  0
    0.9694   -2.0975    0.9092 O   0  0  0  0  0  0  0  0  0  0  0  0
    0.5878    0.2178    0.2574 C   0  0  2  0  0  0  0  0  0  0  0  0
    1.3794   -1.0892   -0.0139 C   0  0  1  0  0  0  0  0  0  0  0  0
    1.1436    1.3564   -0.6327 C   0  0  0  0  0  0  0  0  0  0  0  0
    2.8964   -0.9068    0.1065 C   0  0  0  0  0  0  0  0  0  0  0  0
    2.6633    1.5183   -0.5429 C   0  0  0  0  0  0  0  0  0  0  0  0
    3.3966    0.2083   -0.8015 C   0  0  0  0  0  0  0  0  0  0  0  0
   -0.9273    0.1233    0.0420 C   0  0  0  0  0  0  0  0  0  0  0  0
   -1.4362   -0.7079   -0.9535 C   0  0  0  0  0  0  0  0  0  0  0  0
   -1.7900    0.8684    0.8430 C   0  0  0  0  0  0  0  0  0  0  0  0
   -2.8145   -0.7941   -1.1494 C   0  0  0  0  0  0  0  0  0  0  0  0
   -3.1684    0.7820    0.6471 C   0  0  0  0  0  0  0  0  0  0  0  0
   -3.6806   -0.0493   -0.3491 C   0  0  0  0  0  0  0  0  0  0  0  0
    1.1841   -1.4716   -1.0206 H   0  0  0  0  0  0  0  0  0  0  0  0
    0.6861    2.3134   -0.3497 H   0  0  0  0  0  0  0  0  0  0  0  0
    0.8746    1.1736   -1.6816 H   0  0  0  0  0  0  0  0  0  0  0  0
    3.3975   -1.8482   -0.1509 H   0  0  0  0  0  0  0  0  0  0  0  0
    3.1803   -0.7063    1.1470 H   0  0  0  0  0  0  0  0  0  0  0  0
    2.9397    1.9051    0.4451 H   0  0  0  0  0  0  0  0  0  0  0  0
    2.9910    2.2694   -1.2712 H   0  0  0  0  0  0  0  0  0  0  0  0
    3.2573   -0.0855   -1.8493 H   0  0  0  0  0  0  0  0  0  0  0  0
    4.4727    0.3518   -0.6524 H   0  0  0  0  0  0  0  0  0  0  0  0
    1.7217    0.7461    1.7947 H   0  0  0  0  0  0  0  0  0  0  0  0
    1.1239   -1.7563    1.8068 H   0  0  0  0  0  0  0  0  0  0  0  0
   -0.7975   -1.2858   -1.6117 H   0  0  0  0  0  0  0  0  0  0  0  0
   -1.4230    1.5375    1.6159 H   0  0  0  0  0  0  0  0  0  0  0  0
   -3.2137   -1.4371   -1.9285 H   0  0  0  0  0  0  0  0  0  0  0  0
   -3.8431    1.3650    1.2672 H   0  0  0  0  0  0  0  0  0  0  0  0
   -4.7538   -0.1148   -0.5030 H   0  0  0  0  0  0  0  0  0  0  0  0
  1  3  1  0  0  0  0
  1 24  1  0  0  0  0
  2  4  1  0  0  0  0
  2 25  1  0  0  0  0
  3  4  1  0  0  0  0
  3  5  1  0  0  0  0
  3  9  1  0  0  0  0
  4  6  1  0  0  0  0
  4 15  1  0  0  0  0
  5  7  1  0  0  0  0
  5 16  1  0  0  0  0
  5 17  1  0  0  0  0
  6  8  1  0  0  0  0
  6 18  1  0  0  0  0
  6 19  1  0  0  0  0
  7  8  1  0  0  0  0
  7 20  1  0  0  0  0
  7 21  1  0  0  0  0
  8 22  1  0  0  0  0
  8 23  1  0  0  0  0
  9 10  2  0  0  0  0
  9 11  1  0  0  0  0
 10 12  1  0  0  0  0
 10 26  1  0  0  0  0
 11 13  2  0  0  0  0
 11 27  1  0  0  0  0
 12 14  2  0  0  0  0
 12 28  1  0  0  0  0
 13 14  1  0  0  0  0
 13 29  1  0  0  0  0
 14 30  1  0  0  0  0
M  END
> <PUBCHEM_COMPOUND_CID>
520292

> <PUBCHEM_CONFORMER_RMSD>
0.6

> <PUBCHEM_CONFORMER_DIVERSEORDER>
1
6
13
4
9
12
11
2
10
3
8
7
5

> <PUBCHEM_MMFF94_PARTIAL_CHARGES>
17
1 -0.68
10 -0.15
11 -0.15
12 -0.15
13 -0.15
14 -0.15
2 -0.68
24 0.4
25 0.4
26 0.15
27 0.15
28 0.15
29 0.15
3 0.42
30 0.15
4 0.28
9 -0.14

> <PUBCHEM_EFFECTIVE_ROTOR_COUNT>
2.2

> <PUBCHEM_PHARMACOPHORE_FEATURES>
6
1 1 acceptor
1 1 donor
1 2 acceptor
1 2 donor
6 3 4 5 6 7 8 rings
6 9 10 11 12 13 14 rings

> <PUBCHEM_HEAVY_ATOM_COUNT>
14

> <PUBCHEM_ATOM_DEF_STEREO_COUNT>
0

> <PUBCHEM_ATOM_UDEF_STEREO_COUNT>
2

> <PUBCHEM_BOND_DEF_STEREO_COUNT>
0

> <PUBCHEM_BOND_UDEF_STEREO_COUNT>
0

> <PUBCHEM_ISOTOPIC_ATOM_COUNT>
0

> <PUBCHEM_COMPONENT_COUNT>
1

> <PUBCHEM_CACTVS_TAUTO_COUNT>
1

> <PUBCHEM_CONFORMER_ID>
0007F06400000001

> <PUBCHEM_MMFF94_ENERGY>
37.0789

> <PUBCHEM_FEATURE_SELFOVERLAP>
30.455

> <PUBCHEM_SHAPE_FINGERPRINT>
10219947 1 17967535674886759700
10465860 250 16343704288207158842
10465860 71 17274556402660075508
107287 299 17095525084403227755
11031198 65 17894920624005516886
11471102 20 18187082836553089572
11578080 2 17982695689476522008
12326174 3 17531232938124638616
12423570 1 8635587126760906010
12932764 1 18131626790437680433
13296908 3 15626506094360511596
13538477 17 18201715171998110303
13581323 91 17489867133313346575
13839132 238 14129597944697926967
14144814 61 18060419097223087773
14993402 34 18342460326474442429
15219456 202 16226044474770791274
15279307 12 18413670214480892911
15775835 57 18272940414090384473
16752209 62 17632002075652579927
16945 1 18259987054707844162
17844478 74 17168151117647780605
18175812 5 16515691064796075455
18186145 218 18335144210742534100
19422 9 18272092686198481271
20233049 118 17703227308653889697
20645464 45 16226046704270417397
20645476 183 18413386549429239407
20645477 70 18261386698909208399
21499 59 18188214320181200124
21639500 275 18187362185626698244
232386 152 17704060785606687471
23402539 116 18411136922974461812
23402655 69 18409450258698929981
23463225 33 18201721687078623423
23552423 10 18411973668139071399
23559900 14 16845580773437343892
23598291 2 18196662799682310823
25 1 18113904857493967974
2748010 2 17972054779572824450
474 4 18192432098272897300
528886 8 18333453166138170392
53748568 43 18341897385337854351
57096353 35 18271242841072343725
63268167 104 18408041814215324556
7364860 26 16915928759199640872
74978 22 17489298724598994597
77492 1 18343867701394912165
8030462 33 18272922847895436639
81228 2 14978579225192886970
8272917 22 18191591852756757779

> <PUBCHEM_SHAPE_MULTIPOLES>
276.37
5.76
1.51
1.15
1.34
0.22
0.12
-0.3
-1.14
-0.64
0.12
0.1
0.01
-0.88

> <PUBCHEM_SHAPE_SELFOVERLAP>
580.14

> <PUBCHEM_SHAPE_VOLUME>
154.6

> <PUBCHEM_COORDINATE_TYPE>
2
5
10

$$$$
