81057
  -OEChem-11012401103D

 19 19  0     0  0  0  0  0  0999 V2000
    3.0227   -0.0024    0.0010 N   0  0  0  0  0  0  0  0  0  0  0  0
   -0.2669   -1.2078   -0.0003 C   0  0  0  0  0  0  0  0  0  0  0  0
   -0.2645    1.2082   -0.0005 C   0  0  0  0  0  0  0  0  0  0  0  0
    0.4319   -0.0005   -0.0007 C   0  0  0  0  0  0  0  0  0  0  0  0
   -1.6618   -1.2064    0.0005 C   0  0  0  0  0  0  0  0  0  0  0  0
   -1.6594    1.2095    0.0002 C   0  0  0  0  0  0  0  0  0  0  0  0
   -2.3581    0.0022    0.0007 C   0  0  0  0  0  0  0  0  0  0  0  0
    0.4422   -2.5244   -0.0006 C   0  0  0  0  0  0  0  0  0  0  0  0
    0.4483    2.5231   -0.0004 C   0  0  0  0  0  0  0  0  0  0  0  0
    1.8656   -0.0015    0.0002 C   0  0  0  0  0  0  0  0  0  0  0  0
   -2.2231   -2.1370    0.0009 H   0  0  0  0  0  0  0  0  0  0  0  0
   -2.2188    2.1413    0.0005 H   0  0  0  0  0  0  0  0  0  0  0  0
   -3.4442    0.0033    0.0013 H   0  0  0  0  0  0  0  0  0  0  0  0
    1.0670   -2.6246   -0.8945 H   0  0  0  0  0  0  0  0  0  0  0  0
    1.0665   -2.6253    0.8935 H   0  0  0  0  0  0  0  0  0  0  0  0
   -0.2595   -3.3659   -0.0012 H   0  0  0  0  0  0  0  0  0  0  0  0
    1.0740    2.6217   -0.8938 H   0  0  0  0  0  0  0  0  0  0  0  0
   -0.2515    3.3662   -0.0017 H   0  0  0  0  0  0  0  0  0  0  0  0
    1.0719    2.6226    0.8942 H   0  0  0  0  0  0  0  0  0  0  0  0
  1 10  3  0  0  0  0
  2  4  2  0  0  0  0
  2  5  1  0  0  0  0
  2  8  1  0  0  0  0
  3  4  1  0  0  0  0
  3  6  2  0  0  0  0
  3  9  1  0  0  0  0
  4 10  1  0  0  0  0
  5  7  2  0  0  0  0
  5 11  1  0  0  0  0
  6  7  1  0  0  0  0
  6 12  1  0  0  0  0
  7 13  1  0  0  0  0
  8 14  1  0  0  0  0
  8 15  1  0  0  0  0
  8 16  1  0  0  0  0
  9 17  1  0  0  0  0
  9 18  1  0  0  0  0
  9 19  1  0  0  0  0
M  END
> <PUBCHEM_COMPOUND_CID>
81057

> <PUBCHEM_CONFORMER_RMSD>
0.4

> <PUBCHEM_CONFORMER_DIVERSEORDER>
1

> <PUBCHEM_MMFF94_PARTIAL_CHARGES>
13
1 -0.56
10 0.48
11 0.15
12 0.15
13 0.15
2 -0.14
3 -0.14
4 0.07
5 -0.15
6 -0.15
7 -0.15
8 0.14
9 0.14

> <PUBCHEM_EFFECTIVE_ROTOR_COUNT>
0

> <PUBCHEM_PHARMACOPHORE_FEATURES>
2
1 1 acceptor
6 2 3 4 5 6 7 rings

> <PUBCHEM_HEAVY_ATOM_COUNT>
10

> <PUBCHEM_ATOM_DEF_STEREO_COUNT>
0

> <PUBCHEM_ATOM_UDEF_STEREO_COUNT>
0

> <PUBCHEM_BOND_DEF_STEREO_COUNT>
0

> <PUBCHEM_BOND_UDEF_STEREO_COUNT>
0

> <PUBCHEM_ISOTOPIC_ATOM_COUNT>
0

> <PUBCHEM_COMPONENT_COUNT>
1

> <PUBCHEM_CACTVS_TAUTO_COUNT>
1

> <PUBCHEM_CONFORMER_ID>
00013CA100000001

> <PUBCHEM_MMFF94_ENERGY>
22.8927

> <PUBCHEM_FEATURE_SELFOVERLAP>
10.148

> <PUBCHEM_SHAPE_FINGERPRINT>
12423570 1 17677342593143812797
161256 15 17909000811012967407
16945 1 18410575089248157575
18185500 45 18411135801481478151
193761 8 17690280408865180449
21040471 1 18266741277116916165
23552423 10 17541662055011881324
241688 4 17905893578436626379
2748010 2 18121214548376781661
5084963 1 18059012920582825091
66348 1 18410570690937915472

> <PUBCHEM_SHAPE_MULTIPOLES>
200.81
2.88
2.51
0.61
0.99
0
0
0
0
0.12
0
-0.03
0
0

> <PUBCHEM_SHAPE_SELFOVERLAP>
418.294

> <PUBCHEM_SHAPE_VOLUME>
114

> <PUBCHEM_COORDINATE_TYPE>
2
5
10

$$$$
