17004
  -OEChem-11012400513D

 28 28  0     0  0  0  0  0  0999 V2000
   -1.0223   -2.2039   -0.0100 O   0  0  0  0  0  0  0  0  0  0  0  0
   -1.7057    0.5691    0.0020 C   0  0  0  0  0  0  0  0  0  0  0  0
   -0.2433    0.0619   -0.0007 C   0  0  0  0  0  0  0  0  0  0  0  0
   -1.7249    2.1132    0.0077 C   0  0  0  0  0  0  0  0  0  0  0  0
   -2.4409    0.0426    1.2537 C   0  0  0  0  0  0  0  0  0  0  0  0
   -2.5149    0.1075   -1.2300 C   0  0  0  0  0  0  0  0  0  0  0  0
    0.7482    1.0056    0.0024 C   0  0  0  0  0  0  0  0  0  0  0  0
   -0.0152   -1.2865   -0.0072 C   0  0  0  0  0  0  0  0  0  0  0  0
    2.0716    0.5649   -0.0012 C   0  0  0  0  0  0  0  0  0  0  0  0
    1.3082   -1.7272   -0.0109 C   0  0  0  0  0  0  0  0  0  0  0  0
    2.3517   -0.8015   -0.0079 C   0  0  0  0  0  0  0  0  0  0  0  0
    3.1875    1.5543    0.0020 C   0  0  0  0  0  0  0  0  0  0  0  0
   -1.2713    2.5467   -0.8917 H   0  0  0  0  0  0  0  0  0  0  0  0
   -2.7622    2.4740    0.0191 H   0  0  0  0  0  0  0  0  0  0  0  0
   -1.2606    2.5380    0.9060 H   0  0  0  0  0  0  0  0  0  0  0  0
   -1.8737    0.2656    2.1653 H   0  0  0  0  0  0  0  0  0  0  0  0
   -3.4208    0.5250    1.3559 H   0  0  0  0  0  0  0  0  0  0  0  0
   -2.6308   -1.0337    1.2372 H   0  0  0  0  0  0  0  0  0  0  0  0
   -3.5127    0.5622   -1.2397 H   0  0  0  0  0  0  0  0  0  0  0  0
   -2.0085    0.3992   -2.1577 H   0  0  0  0  0  0  0  0  0  0  0  0
   -2.6626   -0.9752   -1.2690 H   0  0  0  0  0  0  0  0  0  0  0  0
    0.6057    2.0775    0.0049 H   0  0  0  0  0  0  0  0  0  0  0  0
    1.5409   -2.7888   -0.0164 H   0  0  0  0  0  0  0  0  0  0  0  0
    3.3778   -1.1594   -0.0123 H   0  0  0  0  0  0  0  0  0  0  0  0
    4.1482    1.0813    0.2319 H   0  0  0  0  0  0  0  0  0  0  0  0
    3.2692    2.0326   -0.9792 H   0  0  0  0  0  0  0  0  0  0  0  0
    3.0165    2.3250    0.7612 H   0  0  0  0  0  0  0  0  0  0  0  0
   -0.6381   -3.0973   -0.0145 H   0  0  0  0  0  0  0  0  0  0  0  0
  1  8  1  0  0  0  0
  1 28  1  0  0  0  0
  2  3  1  0  0  0  0
  2  4  1  0  0  0  0
  2  5  1  0  0  0  0
  2  6  1  0  0  0  0
  3  7  1  0  0  0  0
  3  8  2  0  0  0  0
  4 13  1  0  0  0  0
  4 14  1  0  0  0  0
  4 15  1  0  0  0  0
  5 16  1  0  0  0  0
  5 17  1  0  0  0  0
  5 18  1  0  0  0  0
  6 19  1  0  0  0  0
  6 20  1  0  0  0  0
  6 21  1  0  0  0  0
  7  9  2  0  0  0  0
  7 22  1  0  0  0  0
  8 10  1  0  0  0  0
  9 11  1  0  0  0  0
  9 12  1  0  0  0  0
 10 11  2  0  0  0  0
 10 23  1  0  0  0  0
 11 24  1  0  0  0  0
 12 25  1  0  0  0  0
 12 26  1  0  0  0  0
 12 27  1  0  0  0  0
M  END
> <PUBCHEM_COMPOUND_CID>
17004

> <PUBCHEM_CONFORMER_RMSD>
0.4

> <PUBCHEM_CONFORMER_DIVERSEORDER>
1
2

> <PUBCHEM_MMFF94_PARTIAL_CHARGES>
13
1 -0.53
10 -0.15
11 -0.15
12 0.14
2 0.14
22 0.15
23 0.15
24 0.15
28 0.45
3 -0.14
7 -0.15
8 0.08
9 -0.14

> <PUBCHEM_EFFECTIVE_ROTOR_COUNT>
1

> <PUBCHEM_PHARMACOPHORE_FEATURES>
3
1 1 donor
4 2 4 5 6 hydrophobe
6 3 7 8 9 10 11 rings

> <PUBCHEM_HEAVY_ATOM_COUNT>
12

> <PUBCHEM_ATOM_DEF_STEREO_COUNT>
0

> <PUBCHEM_ATOM_UDEF_STEREO_COUNT>
0

> <PUBCHEM_BOND_DEF_STEREO_COUNT>
0

> <PUBCHEM_BOND_UDEF_STEREO_COUNT>
0

> <PUBCHEM_ISOTOPIC_ATOM_COUNT>
0

> <PUBCHEM_COMPONENT_COUNT>
1

> <PUBCHEM_CACTVS_TAUTO_COUNT>
3

> <PUBCHEM_CONFORMER_ID>
0000426C00000001

> <PUBCHEM_MMFF94_ENERGY>
46.2371

> <PUBCHEM_FEATURE_SELFOVERLAP>
15.223

> <PUBCHEM_SHAPE_FINGERPRINT>
11206711 2 18050283970794892302
12423570 1 12035989266931550665
12932764 1 17846495915710180480
13380535 21 18267883816149180118
13380535 76 18411692223316874030
14325111 11 18410575067530961836
14614273 12 18118110592401824470
14648413 74 18048321041670282401
15775835 57 18202567263165602449
16945 1 18410856547018716230
17844478 74 18187945970497951977
17990270 104 18049442547862380978
19973954 147 18265055738639761064
20715346 28 17967819335796030564
21040471 1 18410856547066137030
23552423 10 18267580204462477159
23559900 14 18198640848174017318
241688 4 16105575040138109433
25 1 17539684703840681661
2748010 2 18264491689274886948
369184 2 18341894078128672705
5084963 1 17987786419775157955
63268167 104 18271521992318700952
6333449 129 18197497539830565808
81228 2 17763745794752300746

> <PUBCHEM_SHAPE_MULTIPOLES>
241.09
4.13
2.08
0.87
0.98
0.24
-0.01
-1.44
0.03
0.29
0
-0.65
0
0.02

> <PUBCHEM_SHAPE_SELFOVERLAP>
498.58

> <PUBCHEM_SHAPE_VOLUME>
140.7

> <PUBCHEM_COORDINATE_TYPE>
2
5
10

$$$$
