12484756
  -OEChem-11012400423D

 33 32  0     0  0  0  0  0  0999 V2000
    1.0986    0.7562   -1.0734 S   0  0  0  0  0  0  0  0  0  0  0  0
   -1.6096   -0.0133   -0.0426 Si  0  0  0  0  0  0  0  0  0  0  0  0
   -2.3185    1.2763   -0.8502 O   0  0  0  0  0  0  0  0  0  0  0  0
   -2.4961   -0.3466    1.3439 O   0  0  0  0  0  0  0  0  0  0  0  0
   -1.6500   -1.3516   -1.0551 O   0  0  0  0  0  0  0  0  0  0  0  0
    3.3453   -0.0764    0.4353 C   0  0  0  0  0  0  0  0  0  0  0  0
    2.7072    1.1003   -0.3228 C   0  0  0  0  0  0  0  0  0  0  0  0
    0.1641    0.3997    0.4431 C   0  0  0  0  0  0  0  0  0  0  0  0
    3.5580   -1.3055   -0.4511 C   0  0  0  0  0  0  0  0  0  0  0  0
    4.6472    0.3100    1.1402 C   0  0  0  0  0  0  0  0  0  0  0  0
   -2.4397    2.5327   -0.1985 C   0  0  0  0  0  0  0  0  0  0  0  0
   -3.8708   -0.6872    1.2297 C   0  0  0  0  0  0  0  0  0  0  0  0
   -1.1355   -2.5945   -0.5985 C   0  0  0  0  0  0  0  0  0  0  0  0
    2.6719   -0.3785    1.2453 H   0  0  0  0  0  0  0  0  0  0  0  0
    2.5933    1.9600    0.3473 H   0  0  0  0  0  0  0  0  0  0  0  0
    3.3798    1.4206   -1.1267 H   0  0  0  0  0  0  0  0  0  0  0  0
    0.1856    1.2668    1.1092 H   0  0  0  0  0  0  0  0  0  0  0  0
    0.5781   -0.4656    0.9640 H   0  0  0  0  0  0  0  0  0  0  0  0
    4.1871   -1.0630   -1.3141 H   0  0  0  0  0  0  0  0  0  0  0  0
    4.0534   -2.1059    0.1095 H   0  0  0  0  0  0  0  0  0  0  0  0
    2.6120   -1.7130   -0.8199 H   0  0  0  0  0  0  0  0  0  0  0  0
    5.4114    0.6093    0.4150 H   0  0  0  0  0  0  0  0  0  0  0  0
    5.0420   -0.5279    1.7244 H   0  0  0  0  0  0  0  0  0  0  0  0
    4.4828    1.1484    1.8251 H   0  0  0  0  0  0  0  0  0  0  0  0
   -2.9615    3.2165   -0.8751 H   0  0  0  0  0  0  0  0  0  0  0  0
   -1.4560    2.9613    0.0209 H   0  0  0  0  0  0  0  0  0  0  0  0
   -3.0304    2.4507    0.7204 H   0  0  0  0  0  0  0  0  0  0  0  0
   -4.0051   -1.6057    0.6480 H   0  0  0  0  0  0  0  0  0  0  0  0
   -4.4466    0.1307    0.7831 H   0  0  0  0  0  0  0  0  0  0  0  0
   -4.2611   -0.8648    2.2365 H   0  0  0  0  0  0  0  0  0  0  0  0
   -0.0581   -2.5324   -0.4123 H   0  0  0  0  0  0  0  0  0  0  0  0
   -1.2989   -3.3381   -1.3845 H   0  0  0  0  0  0  0  0  0  0  0  0
   -1.6562   -2.9358    0.3029 H   0  0  0  0  0  0  0  0  0  0  0  0
  1  7  1  0  0  0  0
  1  8  1  0  0  0  0
  2  3  1  0  0  0  0
  2  4  1  0  0  0  0
  2  5  1  0  0  0  0
  2  8  1  0  0  0  0
  3 11  1  0  0  0  0
  4 12  1  0  0  0  0
  5 13  1  0  0  0  0
  6  7  1  0  0  0  0
  6  9  1  0  0  0  0
  6 10  1  0  0  0  0
  6 14  1  0  0  0  0
  7 15  1  0  0  0  0
  7 16  1  0  0  0  0
  8 17  1  0  0  0  0
  8 18  1  0  0  0  0
  9 19  1  0  0  0  0
  9 20  1  0  0  0  0
  9 21  1  0  0  0  0
 10 22  1  0  0  0  0
 10 23  1  0  0  0  0
 10 24  1  0  0  0  0
 11 25  1  0  0  0  0
 11 26  1  0  0  0  0
 11 27  1  0  0  0  0
 12 28  1  0  0  0  0
 12 29  1  0  0  0  0
 12 30  1  0  0  0  0
 13 31  1  0  0  0  0
 13 32  1  0  0  0  0
 13 33  1  0  0  0  0
M  END
> <PUBCHEM_COMPOUND_CID>
12484756

> <PUBCHEM_CONFORMER_RMSD>
0.8

> <PUBCHEM_CONFORMER_DIVERSEORDER>
2
4
22
25
13
17
3
11
21
14
12
20
19
16
24
15
18
23
10
5
6
8
9
7
1

> <PUBCHEM_MMFF94_PARTIAL_CHARGES>
10
1 -0.46
11 0.28
12 0.28
13 0.28
2 0.97
3 -0.58
4 -0.58
5 -0.58
7 0.23
8 0.15

> <PUBCHEM_EFFECTIVE_ROTOR_COUNT>
7

> <PUBCHEM_PHARMACOPHORE_FEATURES>
1
3 6 9 10 hydrophobe

> <PUBCHEM_HEAVY_ATOM_COUNT>
13

> <PUBCHEM_ATOM_DEF_STEREO_COUNT>
0

> <PUBCHEM_ATOM_UDEF_STEREO_COUNT>
0

> <PUBCHEM_BOND_DEF_STEREO_COUNT>
0

> <PUBCHEM_BOND_UDEF_STEREO_COUNT>
0

> <PUBCHEM_ISOTOPIC_ATOM_COUNT>
0

> <PUBCHEM_COMPONENT_COUNT>
1

> <PUBCHEM_CACTVS_TAUTO_COUNT>
1

> <PUBCHEM_CONFORMER_ID>
00BE809400000002

> <PUBCHEM_MMFF94_ENERGY>
18.4531

> <PUBCHEM_FEATURE_SELFOVERLAP>
5.074

> <PUBCHEM_SHAPE_FINGERPRINT>
10922523 26 18336829701964746212
11357001 24 18186520995076075641
12251169 10 18201161039549315472
12500047 106 18271230656614082220
12932764 1 18341337794191504092
13296908 3 18335141960364248044
13581323 91 18410017653900934092
13675066 3 18411138022106157944
14123260 362 11455901303193634786
14577589 140 18335417924586727236
15375462 478 18041005076320011397
18186145 218 17632580440058957988
19422 9 17385449808363810452
20279233 1 18201148889281975004
20645477 56 18342450439639458088
20871998 184 18408608045813904037
21524375 3 18117552930023195109
22620623 9 14419239140888541315
23402539 116 18271227383838661685
2748010 2 18196105338939791319
3286 77 16443348718905928282
45790113 50 17313678155831106917
45790113 53 18411708689905060217
5706482 22 18411695457379580311
58051976 100 18259987041617428548

> <PUBCHEM_SHAPE_MULTIPOLES>
271.99
7.58
2.16
1.25
6.42
0.2
-0.15
0.13
-2.85
-1.59
0.66
-0.25
0.12
0.38

> <PUBCHEM_SHAPE_SELFOVERLAP>
473.085

> <PUBCHEM_SHAPE_VOLUME>
182.2

> <PUBCHEM_COORDINATE_TYPE>
2
5
10

$$$$
