9190
  -OEChem-11012400403D

 22 24  0     0  0  0  0  0  0999 V2000
    0.6842   -1.9897   -0.0002 N   0  0  0  0  0  0  0  0  0  0  0  0
   -0.6844   -1.9895    0.0000 N   0  0  0  0  0  0  0  0  0  0  0  0
    0.7151    0.3980    0.0005 C   0  0  0  0  0  0  0  0  0  0  0  0
   -0.7151    0.3981    0.0002 C   0  0  0  0  0  0  0  0  0  0  0  0
    1.3720   -0.8454    0.0003 C   0  0  0  0  0  0  0  0  0  0  0  0
   -1.3719   -0.8454    0.0000 C   0  0  0  0  0  0  0  0  0  0  0  0
    1.5184    1.5667    0.0004 C   0  0  0  0  0  0  0  0  0  0  0  0
   -1.5184    1.5669   -0.0003 C   0  0  0  0  0  0  0  0  0  0  0  0
    2.7636   -0.8947   -0.0005 C   0  0  0  0  0  0  0  0  0  0  0  0
   -2.7635   -0.8948    0.0003 C   0  0  0  0  0  0  0  0  0  0  0  0
    2.9115    1.5004    0.0000 C   0  0  0  0  0  0  0  0  0  0  0  0
   -2.9115    1.5004   -0.0006 C   0  0  0  0  0  0  0  0  0  0  0  0
    3.5360    0.2644   -0.0002 C   0  0  0  0  0  0  0  0  0  0  0  0
   -3.5359    0.2644    0.0001 C   0  0  0  0  0  0  0  0  0  0  0  0
    1.0702    2.5568    0.0005 H   0  0  0  0  0  0  0  0  0  0  0  0
   -1.0703    2.5571   -0.0004 H   0  0  0  0  0  0  0  0  0  0  0  0
    3.2711   -1.8578   -0.0009 H   0  0  0  0  0  0  0  0  0  0  0  0
   -3.2710   -1.8580    0.0004 H   0  0  0  0  0  0  0  0  0  0  0  0
    3.5009    2.4122    0.0000 H   0  0  0  0  0  0  0  0  0  0  0  0
   -3.5009    2.4122   -0.0010 H   0  0  0  0  0  0  0  0  0  0  0  0
    4.6196    0.1979   -0.0006 H   0  0  0  0  0  0  0  0  0  0  0  0
   -4.6196    0.1978    0.0001 H   0  0  0  0  0  0  0  0  0  0  0  0
  1  2  2  0  0  0  0
  1  5  1  0  0  0  0
  2  6  1  0  0  0  0
  3  4  1  0  0  0  0
  3  5  1  0  0  0  0
  3  7  2  0  0  0  0
  4  6  1  0  0  0  0
  4  8  2  0  0  0  0
  5  9  2  0  0  0  0
  6 10  2  0  0  0  0
  7 11  1  0  0  0  0
  7 15  1  0  0  0  0
  8 12  1  0  0  0  0
  8 16  1  0  0  0  0
  9 13  1  0  0  0  0
  9 17  1  0  0  0  0
 10 14  1  0  0  0  0
 10 18  1  0  0  0  0
 11 13  2  0  0  0  0
 11 19  1  0  0  0  0
 12 14  2  0  0  0  0
 12 20  1  0  0  0  0
 13 21  1  0  0  0  0
 14 22  1  0  0  0  0
M  END
> <PUBCHEM_COMPOUND_CID>
9190

> <PUBCHEM_CONFORMER_RMSD>
0.4

> <PUBCHEM_CONFORMER_DIVERSEORDER>
1

> <PUBCHEM_MMFF94_PARTIAL_CHARGES>
20
1 -0.31
10 -0.15
11 -0.15
12 -0.15
13 -0.15
14 -0.15
15 0.15
16 0.15
17 0.15
18 0.15
19 0.15
2 -0.31
20 0.15
21 0.15
22 0.15
5 0.31
6 0.31
7 -0.15
8 -0.15
9 -0.15

> <PUBCHEM_EFFECTIVE_ROTOR_COUNT>
0

> <PUBCHEM_PHARMACOPHORE_FEATURES>
3
6 1 2 3 4 5 6 rings
6 3 5 7 9 11 13 rings
6 4 6 8 10 12 14 rings

> <PUBCHEM_HEAVY_ATOM_COUNT>
14

> <PUBCHEM_ATOM_DEF_STEREO_COUNT>
0

> <PUBCHEM_ATOM_UDEF_STEREO_COUNT>
0

> <PUBCHEM_BOND_DEF_STEREO_COUNT>
0

> <PUBCHEM_BOND_UDEF_STEREO_COUNT>
0

> <PUBCHEM_ISOTOPIC_ATOM_COUNT>
0

> <PUBCHEM_COMPONENT_COUNT>
1

> <PUBCHEM_CACTVS_TAUTO_COUNT>
1

> <PUBCHEM_CONFORMER_ID>
000023E600000001

> <PUBCHEM_MMFF94_ENERGY>
47.449

> <PUBCHEM_FEATURE_SELFOVERLAP>
15.28

> <PUBCHEM_SHAPE_FINGERPRINT>
10608611 8 18410571786128682789
10967382 1 18410575071778196517
11132069 177 18412537717287628960
11471102 20 18410851027969994741
12491281 212 18338809939264655601
13221675 6 18410575084663117894
13380535 76 18410572885640135171
13897977 150 18410290285671961485
14144814 61 18410011030982359360
14325111 11 18410855464423408416
15196674 1 18410856563934847813
15309172 13 18411990152123274899
15442244 35 18194964032979989314
15536298 74 18343582919694316678
15775835 57 18410579487004758692
16945 1 18410573985151633031
17844478 74 18260558856747105323
18186145 218 18271531909451090780
200 152 18130494293635099197
20201158 50 18411699855104389923
20510252 161 18271811267103909441
20871998 184 18128262379172192055
21267235 1 18410583880756393447
21501502 16 18410853265399873543
2334 1 18410575119028280421
23402539 116 18342163501263516877
23402655 69 18269541764136695597
23463225 33 18335136458326499592
23559900 14 18272655671587930636
238 59 15732020427326306485
25 1 18337673009876300997
2748010 2 18410295821605107821
335352 9 18122626046064968540
5104073 3 18410856559645117289
528886 8 18410851057828920568
53812653 166 18341609309001697504
69090 78 18343015614475297783
7364860 26 18197779907955083622
8809292 202 18261117382478361234
9709674 26 18412549842086177438

> <PUBCHEM_SHAPE_MULTIPOLES>
278.15
5.59
2
0.6
0
0.22
0
-1.25
0
0
0
0
-0.02
0

> <PUBCHEM_SHAPE_SELFOVERLAP>
629.495

> <PUBCHEM_SHAPE_VOLUME>
144.5

> <PUBCHEM_COORDINATE_TYPE>
2
5
10

$$$$
