6097025
  -OEChem-10312420342D

 21 18  0     0  0  0  0  0  0999 V2000
    4.5981   -0.5000    0.0000 Zn  0  2  0  0  0  0  0  0  0  0  0  0
    6.3301    0.5000    0.0000 C   0  0  0  0  0  0  0  0  0  0  0  0
    2.8660    0.5000    0.0000 C   0  0  0  0  0  0  0  0  0  0  0  0
    7.1962    0.0000    0.0000 C   0  0  0  0  0  0  0  0  0  0  0  0
    2.0000   -0.0000    0.0000 C   0  0  0  0  0  0  0  0  0  0  0  0
    5.4641    0.0000    0.0000 C   0  5  0  0  0  0  0  0  0  0  0  0
    3.7320   -0.0000    0.0000 C   0  5  0  0  0  0  0  0  0  0  0  0
    6.7287    0.9749    0.0000 H   0  0  0  0  0  0  0  0  0  0  0  0
    5.9316    0.9749    0.0000 H   0  0  0  0  0  0  0  0  0  0  0  0
    3.2646    0.9749    0.0000 H   0  0  0  0  0  0  0  0  0  0  0  0
    2.4675    0.9749    0.0000 H   0  0  0  0  0  0  0  0  0  0  0  0
    6.8862   -0.5369    0.0000 H   0  0  0  0  0  0  0  0  0  0  0  0
    7.7331   -0.3100    0.0000 H   0  0  0  0  0  0  0  0  0  0  0  0
    7.5062    0.5369    0.0000 H   0  0  0  0  0  0  0  0  0  0  0  0
    1.6900    0.5369    0.0000 H   0  0  0  0  0  0  0  0  0  0  0  0
    1.4631   -0.3100    0.0000 H   0  0  0  0  0  0  0  0  0  0  0  0
    2.3100   -0.5369    0.0000 H   0  0  0  0  0  0  0  0  0  0  0  0
    5.7741   -0.5369    0.0000 H   0  0  0  0  0  0  0  0  0  0  0  0
    5.1541    0.5369    0.0000 H   0  0  0  0  0  0  0  0  0  0  0  0
    3.4220   -0.5369    0.0000 H   0  0  0  0  0  0  0  0  0  0  0  0
    4.0420    0.5369    0.0000 H   0  0  0  0  0  0  0  0  0  0  0  0
  2  4  1  0  0  0  0
  2  6  1  0  0  0  0
  2  8  1  0  0  0  0
  2  9  1  0  0  0  0
  3  5  1  0  0  0  0
  3  7  1  0  0  0  0
  3 10  1  0  0  0  0
  3 11  1  0  0  0  0
  4 12  1  0  0  0  0
  4 13  1  0  0  0  0
  4 14  1  0  0  0  0
  5 15  1  0  0  0  0
  5 16  1  0  0  0  0
  5 17  1  0  0  0  0
  6 18  1  0  0  0  0
  6 19  1  0  0  0  0
  7 20  1  0  0  0  0
  7 21  1  0  0  0  0
M  CHG  3   1   2   6  -1   7  -1
M  END
> <PUBCHEM_COMPOUND_CID>
6097025

> <PUBCHEM_COMPOUND_CANONICALIZED>
1

> <PUBCHEM_CACTVS_COMPLEXITY>
0

> <PUBCHEM_CACTVS_HBOND_ACCEPTOR>
2

> <PUBCHEM_CACTVS_HBOND_DONOR>
0

> <PUBCHEM_CACTVS_ROTATABLE_BOND>
0

> <PUBCHEM_CACTVS_SUBSKEYS>
AAADccBgAAAAAAACAAAAAAAAAAAAAAAAAAAAAAAAAAAAAAAAAAAAGAAAAAAACACAAAACAAAAAAAAAAAAAAAAAAAAAAAAAAAAAAAAAAAAAAAAAAAAAAAAAAAAAAAAAAAAAAAAAAAAAAAAAAAAAAAAAAAAAA==

> <PUBCHEM_IUPAC_OPENEYE_NAME>
zinc;propane

> <PUBCHEM_IUPAC_CAS_NAME>
zinc;propane

> <PUBCHEM_IUPAC_NAME_MARKUP>
zinc;propane

> <PUBCHEM_IUPAC_NAME>
zinc;propane

> <PUBCHEM_IUPAC_SYSTEMATIC_NAME>
zinc;propane

> <PUBCHEM_IUPAC_TRADITIONAL_NAME>
zinc;propane

> <PUBCHEM_IUPAC_INCHI>
InChI=1S/2C3H7.Zn/c2*1-3-2;/h2*1,3H2,2H3;/q2*-1;+2

> <PUBCHEM_IUPAC_INCHIKEY>
LDWKCBPOFGZHSQ-UHFFFAOYSA-N

> <PUBCHEM_EXACT_MASS>
150.038692

> <PUBCHEM_MOLECULAR_FORMULA>
C6H14Zn

> <PUBCHEM_MOLECULAR_WEIGHT>
151.6

> <PUBCHEM_OPENEYE_CAN_SMILES>
CC[CH2-].CC[CH2-].[Zn+2]

> <PUBCHEM_OPENEYE_ISO_SMILES>
CC[CH2-].CC[CH2-].[Zn+2]

> <PUBCHEM_CACTVS_TPSA>
0

> <PUBCHEM_MONOISOTOPIC_WEIGHT>
150.038692

> <PUBCHEM_TOTAL_CHARGE>
0

> <PUBCHEM_HEAVY_ATOM_COUNT>
7

> <PUBCHEM_ATOM_DEF_STEREO_COUNT>
0

> <PUBCHEM_ATOM_UDEF_STEREO_COUNT>
0

> <PUBCHEM_BOND_DEF_STEREO_COUNT>
0

> <PUBCHEM_BOND_UDEF_STEREO_COUNT>
0

> <PUBCHEM_ISOTOPIC_ATOM_COUNT>
0

> <PUBCHEM_COMPONENT_COUNT>
3

> <PUBCHEM_CACTVS_TAUTO_COUNT>
-1

> <PUBCHEM_COORDINATE_TYPE>
1
5
255

$$$$
