137984
  -OEChem-11012400443D

 19 19  0     0  0  0  0  0  0999 V2000
   -0.9028    1.1630    0.1505 O   0  0  0  0  0  0  0  0  0  0  0  0
   -0.9024   -1.1629    0.1511 O   0  0  0  0  0  0  0  0  0  0  0  0
   -2.8110   -0.0002   -0.2004 O   0  0  0  0  0  0  0  0  0  0  0  0
    1.2535    0.0000   -0.0340 C   0  0  0  0  0  0  0  0  0  0  0  0
    0.4959    1.2128    0.4870 C   0  0  0  0  0  0  0  0  0  0  0  0
    0.4956   -1.2110    0.4904 C   0  0  0  0  0  0  0  0  0  0  0  0
    2.6919    0.0006    0.4973 C   0  0  0  0  0  0  0  0  0  0  0  0
    1.2857   -0.0023   -1.5729 C   0  0  0  0  0  0  0  0  0  0  0  0
   -1.6064    0.0000    0.0309 C   0  0  0  0  0  0  0  0  0  0  0  0
    0.5642    1.3005    1.5778 H   0  0  0  0  0  0  0  0  0  0  0  0
    0.8992    2.1389    0.0622 H   0  0  0  0  0  0  0  0  0  0  0  0
    0.8998   -2.1386    0.0697 H   0  0  0  0  0  0  0  0  0  0  0  0
    0.5622   -1.2947    1.5816 H   0  0  0  0  0  0  0  0  0  0  0  0
    2.7120    0.0021    1.5930 H   0  0  0  0  0  0  0  0  0  0  0  0
    3.2390   -0.8856    0.1567 H   0  0  0  0  0  0  0  0  0  0  0  0
    3.2392    0.8857    0.1543 H   0  0  0  0  0  0  0  0  0  0  0  0
    1.8107    0.8813   -1.9536 H   0  0  0  0  0  0  0  0  0  0  0  0
    1.8099   -0.8874   -1.9509 H   0  0  0  0  0  0  0  0  0  0  0  0
    0.2837   -0.0025   -2.0134 H   0  0  0  0  0  0  0  0  0  0  0  0
  1  5  1  0  0  0  0
  1  9  1  0  0  0  0
  2  6  1  0  0  0  0
  2  9  1  0  0  0  0
  3  9  2  0  0  0  0
  4  5  1  0  0  0  0
  4  6  1  0  0  0  0
  4  7  1  0  0  0  0
  4  8  1  0  0  0  0
  5 10  1  0  0  0  0
  5 11  1  0  0  0  0
  6 12  1  0  0  0  0
  6 13  1  0  0  0  0
  7 14  1  0  0  0  0
  7 15  1  0  0  0  0
  7 16  1  0  0  0  0
  8 17  1  0  0  0  0
  8 18  1  0  0  0  0
  8 19  1  0  0  0  0
M  END
> <PUBCHEM_COMPOUND_CID>
137984

> <PUBCHEM_CONFORMER_RMSD>
0.4

> <PUBCHEM_CONFORMER_DIVERSEORDER>
1
2
3

> <PUBCHEM_MMFF94_PARTIAL_CHARGES>
6
1 -0.43
2 -0.43
3 -0.57
5 0.28
6 0.28
9 0.87

> <PUBCHEM_EFFECTIVE_ROTOR_COUNT>
1

> <PUBCHEM_PHARMACOPHORE_FEATURES>
2
3 4 7 8 hydrophobe
6 1 2 4 5 6 9 rings

> <PUBCHEM_HEAVY_ATOM_COUNT>
9

> <PUBCHEM_ATOM_DEF_STEREO_COUNT>
0

> <PUBCHEM_ATOM_UDEF_STEREO_COUNT>
0

> <PUBCHEM_BOND_DEF_STEREO_COUNT>
0

> <PUBCHEM_BOND_UDEF_STEREO_COUNT>
0

> <PUBCHEM_ISOTOPIC_ATOM_COUNT>
0

> <PUBCHEM_COMPONENT_COUNT>
1

> <PUBCHEM_CACTVS_TAUTO_COUNT>
1

> <PUBCHEM_CONFORMER_ID>
00021B0000000001

> <PUBCHEM_MMFF94_ENERGY>
28.0007

> <PUBCHEM_FEATURE_SELFOVERLAP>
10.148

> <PUBCHEM_SHAPE_FINGERPRINT>
12423570 1 17385714777575409334
137420 1 11092447783314216452
16945 1 18410573989615210592
18185500 45 18334293132602144275
20653085 51 16518818149280731324
21040471 1 18335143085223777419
23552423 10 18117566119450711114
24536 1 17487922165694340130
29004967 10 16702026374228895450
5084963 1 17530963587830061243

> <PUBCHEM_SHAPE_MULTIPOLES>
167.61
3.06
1.18
0.98
0.7
0
0.43
0
-0.04
0.08
-0.21
-0.48
0
0

> <PUBCHEM_SHAPE_SELFOVERLAP>
333.014

> <PUBCHEM_SHAPE_VOLUME>
98.8

> <PUBCHEM_COORDINATE_TYPE>
2
5
10

$$$$
