23323251
  -OEChem-11012400543D

 16 15  0     0  0  0  0  0  0999 V2000
    2.5963    0.9644   -0.8304 F   0  0  0  0  0  0  0  0  0  0  0  0
    3.5206   -0.5919    0.3743 F   0  0  0  0  0  0  0  0  0  0  0  0
   -2.5962    0.9644    0.8304 F   0  0  0  0  0  0  0  0  0  0  0  0
   -3.5207   -0.5918   -0.3743 F   0  0  0  0  0  0  0  0  0  0  0  0
    0.0002    0.1648    0.0000 N   0  0  0  0  0  0  0  0  0  0  0  0
    1.1929   -0.6605    0.1309 C   0  0  0  0  0  0  0  0  0  0  0  0
   -1.1929   -0.6606   -0.1309 C   0  0  0  0  0  0  0  0  0  0  0  0
    2.4259    0.2057    0.2811 C   0  0  0  0  0  0  0  0  0  0  0  0
   -2.4260    0.2057   -0.2811 C   0  0  0  0  0  0  0  0  0  0  0  0
    1.3141   -1.2870   -0.7605 H   0  0  0  0  0  0  0  0  0  0  0  0
    1.1186   -1.3297    0.9960 H   0  0  0  0  0  0  0  0  0  0  0  0
   -1.3141   -1.2949    0.7554 H   0  0  0  0  0  0  0  0  0  0  0  0
   -1.1176   -1.3227   -1.0011 H   0  0  0  0  0  0  0  0  0  0  0  0
   -0.0907    0.7748    0.8120 H   0  0  0  0  0  0  0  0  0  0  0  0
    2.3904    0.8589    1.1579 H   0  0  0  0  0  0  0  0  0  0  0  0
   -2.3891    0.8590   -1.1577 H   0  0  0  0  0  0  0  0  0  0  0  0
  1  8  1  0  0  0  0
  2  8  1  0  0  0  0
  3  9  1  0  0  0  0
  4  9  1  0  0  0  0
  5  6  1  0  0  0  0
  5  7  1  0  0  0  0
  5 14  1  0  0  0  0
  6  8  1  0  0  0  0
  6 10  1  0  0  0  0
  6 11  1  0  0  0  0
  7  9  1  0  0  0  0
  7 12  1  0  0  0  0
  7 13  1  0  0  0  0
  8 15  1  0  0  0  0
  9 16  1  0  0  0  0
M  END
> <PUBCHEM_COMPOUND_CID>
23323251

> <PUBCHEM_CONFORMER_RMSD>
0.6

> <PUBCHEM_CONFORMER_DIVERSEORDER>
1
31
11
29
2
26
3
23
25
5
4
16
9
27
17
8
21
7
24
15
13
28
18
14
19
20
6
12
22
30
10

> <PUBCHEM_MMFF94_PARTIAL_CHARGES>
10
1 -0.34
14 0.36
2 -0.34
3 -0.34
4 -0.34
5 -0.9
6 0.27
7 0.27
8 0.68
9 0.68

> <PUBCHEM_EFFECTIVE_ROTOR_COUNT>
4

> <PUBCHEM_PHARMACOPHORE_FEATURES>
2
1 5 cation
1 5 donor

> <PUBCHEM_HEAVY_ATOM_COUNT>
9

> <PUBCHEM_ATOM_DEF_STEREO_COUNT>
0

> <PUBCHEM_ATOM_UDEF_STEREO_COUNT>
0

> <PUBCHEM_BOND_DEF_STEREO_COUNT>
0

> <PUBCHEM_BOND_UDEF_STEREO_COUNT>
0

> <PUBCHEM_ISOTOPIC_ATOM_COUNT>
0

> <PUBCHEM_COMPONENT_COUNT>
1

> <PUBCHEM_CACTVS_TAUTO_COUNT>
1

> <PUBCHEM_CONFORMER_ID>
0163E27300000001

> <PUBCHEM_MMFF94_ENERGY>
1.9013

> <PUBCHEM_FEATURE_SELFOVERLAP>
10.148

> <PUBCHEM_SHAPE_FINGERPRINT>
14325111 11 18412261735505485474
14390081 3 17989485221064077921
3248919 1 18410576184174914567
5460574 1 8502657017029250647

> <PUBCHEM_SHAPE_MULTIPOLES>
151.14
5.91
0.91
0.72
0
0.05
0
0.12
0
0
0
0
0.11
-0.49

> <PUBCHEM_SHAPE_SELFOVERLAP>
278.161

> <PUBCHEM_SHAPE_VOLUME>
96

> <PUBCHEM_COORDINATE_TYPE>
2
5
10

$$$$
