21072
  -OEChem-11012401163D

 43 44  0     0  0  0  0  0  0999 V2000
   -0.0009   -0.0005   -1.6699 C   0  0  0  0  0  0  0  0  0  0  0  0
   -1.2522    0.0252   -0.8549 C   0  0  0  0  0  0  0  0  0  0  0  0
    1.2681   -0.0261   -0.8434 C   0  0  0  0  0  0  0  0  0  0  0  0
   -2.1586    1.0799   -0.9649 C   0  0  0  0  0  0  0  0  0  0  0  0
    2.1567   -1.0805   -0.9643 C   0  0  0  0  0  0  0  0  0  0  0  0
   -1.5085   -1.0256    0.0259 C   0  0  0  0  0  0  0  0  0  0  0  0
    1.5067    1.0256    0.0253 C   0  0  0  0  0  0  0  0  0  0  0  0
   -2.6711   -1.0215    0.7967 C   0  0  0  0  0  0  0  0  0  0  0  0
    2.6692    1.0221    0.7961 C   0  0  0  0  0  0  0  0  0  0  0  0
   -3.5774    0.0332    0.6868 C   0  0  0  0  0  0  0  0  0  0  0  0
    3.5754   -0.0327    0.6868 C   0  0  0  0  0  0  0  0  0  0  0  0
   -3.3210    1.0839   -0.1940 C   0  0  0  0  0  0  0  0  0  0  0  0
    3.3192   -1.0840   -0.1933 C   0  0  0  0  0  0  0  0  0  0  0  0
   -1.9053    2.2157   -1.9007 C   0  0  0  0  0  0  0  0  0  0  0  0
    1.9035   -2.2168   -1.8994 C   0  0  0  0  0  0  0  0  0  0  0  0
   -2.9242   -2.1574    1.7326 C   0  0  0  0  0  0  0  0  0  0  0  0
    2.9224    2.1584    1.7314 C   0  0  0  0  0  0  0  0  0  0  0  0
   -4.8285    0.0590    1.5015 C   0  0  0  0  0  0  0  0  0  0  0  0
    4.8266   -0.0580    1.5016 C   0  0  0  0  0  0  0  0  0  0  0  0
   -0.0876   -0.8544   -2.3497 H   0  0  0  0  0  0  0  0  0  0  0  0
    0.0951    0.8545   -2.3477 H   0  0  0  0  0  0  0  0  0  0  0  0
   -0.8075   -1.8525    0.1078 H   0  0  0  0  0  0  0  0  0  0  0  0
    0.8040    1.8507    0.1041 H   0  0  0  0  0  0  0  0  0  0  0  0
   -4.0275    1.9061   -0.2795 H   0  0  0  0  0  0  0  0  0  0  0  0
    4.0257   -1.9062   -0.2784 H   0  0  0  0  0  0  0  0  0  0  0  0
   -0.9821    2.7417   -1.6368 H   0  0  0  0  0  0  0  0  0  0  0  0
   -1.8525    1.8625   -2.9358 H   0  0  0  0  0  0  0  0  0  0  0  0
   -2.7122    2.9564   -1.8610 H   0  0  0  0  0  0  0  0  0  0  0  0
    0.9791   -2.7412   -1.6367 H   0  0  0  0  0  0  0  0  0  0  0  0
    1.8533   -1.8645   -2.9349 H   0  0  0  0  0  0  0  0  0  0  0  0
    2.7091   -2.9588   -1.8574 H   0  0  0  0  0  0  0  0  0  0  0  0
   -3.8503   -2.6773    1.4664 H   0  0  0  0  0  0  0  0  0  0  0  0
   -2.9913   -1.7990    2.7649 H   0  0  0  0  0  0  0  0  0  0  0  0
   -2.1176   -2.8982    1.7004 H   0  0  0  0  0  0  0  0  0  0  0  0
    2.9890    1.8007    2.7639 H   0  0  0  0  0  0  0  0  0  0  0  0
    2.1158    2.8993    1.6983 H   0  0  0  0  0  0  0  0  0  0  0  0
    3.8486    2.6779    1.4652 H   0  0  0  0  0  0  0  0  0  0  0  0
   -4.5924    0.0687    2.5705 H   0  0  0  0  0  0  0  0  0  0  0  0
   -5.4294    0.9517    1.2957 H   0  0  0  0  0  0  0  0  0  0  0  0
   -5.4545   -0.8100    1.2746 H   0  0  0  0  0  0  0  0  0  0  0  0
    5.4273   -0.9511    1.2967 H   0  0  0  0  0  0  0  0  0  0  0  0
    5.4528    0.8107    1.2740 H   0  0  0  0  0  0  0  0  0  0  0  0
    4.5905   -0.0667    2.5706 H   0  0  0  0  0  0  0  0  0  0  0  0
  1  2  1  0  0  0  0
  1  3  1  0  0  0  0
  1 20  1  0  0  0  0
  1 21  1  0  0  0  0
  2  4  2  0  0  0  0
  2  6  1  0  0  0  0
  3  5  2  0  0  0  0
  3  7  1  0  0  0  0
  4 12  1  0  0  0  0
  4 14  1  0  0  0  0
  5 13  1  0  0  0  0
  5 15  1  0  0  0  0
  6  8  2  0  0  0  0
  6 22  1  0  0  0  0
  7  9  2  0  0  0  0
  7 23  1  0  0  0  0
  8 10  1  0  0  0  0
  8 16  1  0  0  0  0
  9 11  1  0  0  0  0
  9 17  1  0  0  0  0
 10 12  2  0  0  0  0
 10 18  1  0  0  0  0
 11 13  2  0  0  0  0
 11 19  1  0  0  0  0
 12 24  1  0  0  0  0
 13 25  1  0  0  0  0
 14 26  1  0  0  0  0
 14 27  1  0  0  0  0
 14 28  1  0  0  0  0
 15 29  1  0  0  0  0
 15 30  1  0  0  0  0
 15 31  1  0  0  0  0
 16 32  1  0  0  0  0
 16 33  1  0  0  0  0
 16 34  1  0  0  0  0
 17 35  1  0  0  0  0
 17 36  1  0  0  0  0
 17 37  1  0  0  0  0
 18 38  1  0  0  0  0
 18 39  1  0  0  0  0
 18 40  1  0  0  0  0
 19 41  1  0  0  0  0
 19 42  1  0  0  0  0
 19 43  1  0  0  0  0
M  END
> <PUBCHEM_COMPOUND_CID>
21072

> <PUBCHEM_CONFORMER_RMSD>
0.6

> <PUBCHEM_CONFORMER_DIVERSEORDER>
5
7
11
3
10
8
4
12
9
1
6
2

> <PUBCHEM_MMFF94_PARTIAL_CHARGES>
23
1 0.29
10 -0.14
11 -0.14
12 -0.15
13 -0.15
14 0.14
15 0.14
16 0.14
17 0.14
18 0.14
19 0.14
2 -0.14
22 0.15
23 0.15
24 0.15
25 0.15
3 -0.14
4 -0.14
5 -0.14
6 -0.15
7 -0.15
8 -0.14
9 -0.14

> <PUBCHEM_EFFECTIVE_ROTOR_COUNT>
2

> <PUBCHEM_PHARMACOPHORE_FEATURES>
2
6 2 4 6 8 10 12 rings
6 3 5 7 9 11 13 rings

> <PUBCHEM_HEAVY_ATOM_COUNT>
19

> <PUBCHEM_ATOM_DEF_STEREO_COUNT>
0

> <PUBCHEM_ATOM_UDEF_STEREO_COUNT>
0

> <PUBCHEM_BOND_DEF_STEREO_COUNT>
0

> <PUBCHEM_BOND_UDEF_STEREO_COUNT>
0

> <PUBCHEM_ISOTOPIC_ATOM_COUNT>
0

> <PUBCHEM_COMPONENT_COUNT>
1

> <PUBCHEM_CACTVS_TAUTO_COUNT>
1

> <PUBCHEM_CONFORMER_ID>
0000525000000005

> <PUBCHEM_MMFF94_ENERGY>
57.8925

> <PUBCHEM_FEATURE_SELFOVERLAP>
10.149

> <PUBCHEM_SHAPE_FINGERPRINT>
10366900 7 18411418418682093414
1100329 8 15024150069353906249
11582403 64 17110934692717398964
11640471 11 15769776857458678144
12236239 1 15770052813465710654
12363563 72 17604998194280624547
12553582 1 17458638851427582315
12633257 1 18410855490192933507
12670545 47 18412829100790685047
12788726 201 17168445782632723997
13083527 12 17619350248723624879
13583140 156 18116125862682395280
14022347 108 17314821583921548951
14123260 362 15339120168940293219
14178342 30 17531524252765994111
14576447 43 13334732423615466168
15342168 16 17346599715852570897
15653759 3 18334855008924576236
15775835 57 15769773546070535010
16752209 62 17095237004452514351
17804303 29 18041006102674711943
1813 80 14851883583205038874
18219364 16 18059561512460614844
19049666 15 18122624946537497005
19422 9 15647063624594425263
19784866 240 14996283604441586779
20157964 124 17632579302114352529
20291156 8 16081087103801035577
20361792 2 15068619409196736471
20600515 1 18040440988395838685
20715895 44 15765862416503624753
20871999 31 10447933875543500275
21475661 188 17771638858269220777
21503847 285 16916799456929635274
21650355 55 17894910754619258349
21731516 1 16226046734002729839
21756936 100 16986024885319666064
21864079 5 16844447309376194864
22112679 90 16226053240846502870
22646028 28 15647052668111754073
232386 152 17095243635196301526
23366157 5 13396140066654654877
23503958 8 17095796616741794584
23559900 14 18188505595925179502
23598288 3 15358257061695680487
23598291 2 14779838083378045142
2838139 119 16699499542607564393
4340502 62 17560809848837487255
465052 167 15864937416443814683
474 4 17346874572352886466
49207404 50 18271813483138124923
602551 16 17894352168094075594
6049 1 18338804411710246164
633830 44 16845006918398784772
77492 1 15769764715649436406
7970288 3 16153713141140135539
81228 2 18113907035438227701
90316 7 17676492739797258789

> <PUBCHEM_SHAPE_MULTIPOLES>
391.01
8.5
2.09
1.99
0.02
0
-0.14
0
5.21
0
-0.18
0
0
2.49

> <PUBCHEM_SHAPE_SELFOVERLAP>
831.443

> <PUBCHEM_SHAPE_VOLUME>
213.5

> <PUBCHEM_COORDINATE_TYPE>
2
5
10

$$$$
