143243
  -OEChem-11012401263D

 52 53  0     0  0  0  0  0  0999 V2000
    0.3100    0.0272    0.6224 C   0  0  0  0  0  0  0  0  0  0  0  0
    0.1181   -1.3596    0.0126 C   0  0  0  0  0  0  0  0  0  0  0  0
    1.7514    0.4870    0.4120 C   0  0  0  0  0  0  0  0  0  0  0  0
   -1.3361   -1.8342    0.1808 C   0  0  0  0  0  0  0  0  0  0  0  0
    1.0970   -2.3712    0.6132 C   0  0  0  0  0  0  0  0  0  0  0  0
    2.0082    1.8149    1.1374 C   0  0  0  0  0  0  0  0  0  0  0  0
    2.0675    0.6119   -1.0845 C   0  0  0  0  0  0  0  0  0  0  0  0
   -0.6608    1.0681    0.0346 C   0  0  0  0  0  0  0  0  0  0  0  0
   -1.4923   -3.3572    0.1518 C   0  0  0  0  0  0  0  0  0  0  0  0
    0.9953   -3.7377   -0.0701 C   0  0  0  0  0  0  0  0  0  0  0  0
    3.4281    2.3227    0.8979 C   0  0  0  0  0  0  0  0  0  0  0  0
    3.4875    1.1216   -1.3202 C   0  0  0  0  0  0  0  0  0  0  0  0
   -0.3890   -4.0320   -0.6504 C   0  0  0  0  0  0  0  0  0  0  0  0
    3.7416    2.4371   -0.5906 C   0  0  0  0  0  0  0  0  0  0  0  0
   -2.1342    0.7524    0.3094 C   0  0  0  0  0  0  0  0  0  0  0  0
   -3.0474    1.8540   -0.2336 C   0  0  0  0  0  0  0  0  0  0  0  0
   -4.5158    1.5601    0.0724 C   0  0  0  0  0  0  0  0  0  0  0  0
   -5.4290    2.6349   -0.4952 C   0  0  0  0  0  0  0  0  0  0  0  0
    0.1232   -0.0360    1.7039 H   0  0  0  0  0  0  0  0  0  0  0  0
    0.2907   -1.3198   -1.0695 H   0  0  0  0  0  0  0  0  0  0  0  0
    2.4603   -0.2106    0.8660 H   0  0  0  0  0  0  0  0  0  0  0  0
   -1.8099   -1.4990    1.1059 H   0  0  0  0  0  0  0  0  0  0  0  0
   -1.8683   -1.5636   -0.7349 H   0  0  0  0  0  0  0  0  0  0  0  0
    2.1447   -2.0789    0.5250 H   0  0  0  0  0  0  0  0  0  0  0  0
    0.8916   -2.4869    1.6855 H   0  0  0  0  0  0  0  0  0  0  0  0
    1.3439    2.6130    0.7971 H   0  0  0  0  0  0  0  0  0  0  0  0
    1.8422    1.6950    2.2145 H   0  0  0  0  0  0  0  0  0  0  0  0
    1.9912   -0.3497   -1.5994 H   0  0  0  0  0  0  0  0  0  0  0  0
    1.3944    1.3099   -1.5907 H   0  0  0  0  0  0  0  0  0  0  0  0
   -0.5522    1.1447   -1.0519 H   0  0  0  0  0  0  0  0  0  0  0  0
   -0.4848    2.0626    0.4484 H   0  0  0  0  0  0  0  0  0  0  0  0
   -1.4639   -3.7404    1.1803 H   0  0  0  0  0  0  0  0  0  0  0  0
   -2.4763   -3.6270   -0.2495 H   0  0  0  0  0  0  0  0  0  0  0  0
    1.7336   -3.8070   -0.8785 H   0  0  0  0  0  0  0  0  0  0  0  0
    1.2651   -4.5139    0.6566 H   0  0  0  0  0  0  0  0  0  0  0  0
    3.5573    3.2995    1.3779 H   0  0  0  0  0  0  0  0  0  0  0  0
    4.1445    1.6393    1.3705 H   0  0  0  0  0  0  0  0  0  0  0  0
    4.2073    0.3686   -0.9758 H   0  0  0  0  0  0  0  0  0  0  0  0
    3.6586    1.2576   -2.3942 H   0  0  0  0  0  0  0  0  0  0  0  0
   -0.4317   -3.6807   -1.6890 H   0  0  0  0  0  0  0  0  0  0  0  0
   -0.5505   -5.1155   -0.6822 H   0  0  0  0  0  0  0  0  0  0  0  0
    4.7868    2.7376   -0.7253 H   0  0  0  0  0  0  0  0  0  0  0  0
    3.1223    3.2262   -1.0346 H   0  0  0  0  0  0  0  0  0  0  0  0
   -2.3076    0.6328    1.3847 H   0  0  0  0  0  0  0  0  0  0  0  0
   -2.5541   -0.0731   -0.2316 H   0  0  0  0  0  0  0  0  0  0  0  0
   -2.9076    1.9519   -1.3176 H   0  0  0  0  0  0  0  0  0  0  0  0
   -2.7702    2.8163    0.2141 H   0  0  0  0  0  0  0  0  0  0  0  0
   -4.8025    0.5908   -0.3521 H   0  0  0  0  0  0  0  0  0  0  0  0
   -4.6646    1.4961    1.1566 H   0  0  0  0  0  0  0  0  0  0  0  0
   -5.1932    3.6152   -0.0689 H   0  0  0  0  0  0  0  0  0  0  0  0
   -5.3294    2.7001   -1.5834 H   0  0  0  0  0  0  0  0  0  0  0  0
   -6.4738    2.4061   -0.2630 H   0  0  0  0  0  0  0  0  0  0  0  0
  1  2  1  0  0  0  0
  1  3  1  0  0  0  0
  1  8  1  0  0  0  0
  1 19  1  0  0  0  0
  2  4  1  0  0  0  0
  2  5  1  0  0  0  0
  2 20  1  0  0  0  0
  3  6  1  0  0  0  0
  3  7  1  0  0  0  0
  3 21  1  0  0  0  0
  4  9  1  0  0  0  0
  4 22  1  0  0  0  0
  4 23  1  0  0  0  0
  5 10  1  0  0  0  0
  5 24  1  0  0  0  0
  5 25  1  0  0  0  0
  6 11  1  0  0  0  0
  6 26  1  0  0  0  0
  6 27  1  0  0  0  0
  7 12  1  0  0  0  0
  7 28  1  0  0  0  0
  7 29  1  0  0  0  0
  8 15  1  0  0  0  0
  8 30  1  0  0  0  0
  8 31  1  0  0  0  0
  9 13  1  0  0  0  0
  9 32  1  0  0  0  0
  9 33  1  0  0  0  0
 10 13  1  0  0  0  0
 10 34  1  0  0  0  0
 10 35  1  0  0  0  0
 11 14  1  0  0  0  0
 11 36  1  0  0  0  0
 11 37  1  0  0  0  0
 12 14  1  0  0  0  0
 12 38  1  0  0  0  0
 12 39  1  0  0  0  0
 13 40  1  0  0  0  0
 13 41  1  0  0  0  0
 14 42  1  0  0  0  0
 14 43  1  0  0  0  0
 15 16  1  0  0  0  0
 15 44  1  0  0  0  0
 15 45  1  0  0  0  0
 16 17  1  0  0  0  0
 16 46  1  0  0  0  0
 16 47  1  0  0  0  0
 17 18  1  0  0  0  0
 17 48  1  0  0  0  0
 17 49  1  0  0  0  0
 18 50  1  0  0  0  0
 18 51  1  0  0  0  0
 18 52  1  0  0  0  0
M  END
> <PUBCHEM_COMPOUND_CID>
143243

> <PUBCHEM_CONFORMER_RMSD>
0.8

> <PUBCHEM_CONFORMER_DIVERSEORDER>
1
6
5
2
4
7
3

> <PUBCHEM_MMFF94_PARTIAL_CHARGES>
0

> <PUBCHEM_EFFECTIVE_ROTOR_COUNT>
8.4

> <PUBCHEM_PHARMACOPHORE_FEATURES>
4
1 18 hydrophobe
5 1 8 15 16 17 hydrophobe
6 2 4 5 9 10 13 rings
6 3 6 7 11 12 14 rings

> <PUBCHEM_HEAVY_ATOM_COUNT>
18

> <PUBCHEM_ATOM_DEF_STEREO_COUNT>
0

> <PUBCHEM_ATOM_UDEF_STEREO_COUNT>
0

> <PUBCHEM_BOND_DEF_STEREO_COUNT>
0

> <PUBCHEM_BOND_UDEF_STEREO_COUNT>
0

> <PUBCHEM_ISOTOPIC_ATOM_COUNT>
0

> <PUBCHEM_COMPONENT_COUNT>
1

> <PUBCHEM_CACTVS_TAUTO_COUNT>
1

> <PUBCHEM_CONFORMER_ID>
00022F8B00000001

> <PUBCHEM_MMFF94_ENERGY>
47.0845

> <PUBCHEM_FEATURE_SELFOVERLAP>
20.297

> <PUBCHEM_SHAPE_FINGERPRINT>
10411042 1 17330272767408355459
1100329 8 18339359643813671234
116883 192 17692255552771551340
11833330 49 17688305007434923369
12173636 292 18266176312829186157
12500047 106 18339648961701058892
12532896 13 18341607161254363733
12553582 1 17400645316763325138
12716301 132 18125989697237745264
12730499 353 18338245869110954921
12788726 201 17685777217444507976
13140716 1 18335975402667677506
13533116 47 18124876756112943041
13681431 1 17760656858219500482
13836976 161 18264766563087070293
138480 1 17834674890375041019
13955234 65 18194684766054487961
14004458 79 17833283290632046740
14123255 52 18409449189410458445
14178000 15 17764585413365920177
14955137 171 18123183503030148410
15502722 9 18193278494850922229
16752209 62 18193831776395130018
16945 1 17906171007707313226
17134986 127 18408609145135653628
17539 30 17909826874868257910
18785283 64 18191309282278361763
19591789 44 18411709802307020675
20600515 1 16603189354242379224
20645477 70 18118682111627475201
20671657 1 18197777696426357445
20693207 138 17554927568955355516
21285901 2 17625843907819014071
21524375 3 18260547809759196456
2255824 54 18124031235242781843
23402539 116 17622158396835808198
23419403 2 17033659860344763154
23530152 11 18411135827251320915
23557571 272 17618781805269531684
23558518 356 18189608526911620154
23559900 14 17978218371518380985
2748010 2 18337409204437503922
3057174 1 18412549790572496055
3060560 45 18336551499610872388
3091708 16 9480357041635523115
458136 41 18339373959160825185
495365 180 18338790105475168609
58779409 8 18339367481896280293
6025842 7 18266455404858839061
633830 44 18131068204256038645
6442390 28 18411141372254657541
6443956 14 17618499883410266537
7364860 26 18122904235555221225
7808743 9 18191307280740284132
81228 2 17762349406178514250
8272917 22 18123190109064116453
84936 182 18199187287191828145
9841814 1 17609776397015816057

> <PUBCHEM_SHAPE_MULTIPOLES>
370.43
7.28
5.25
1.02
7.58
6.27
-0.08
-11.06
-1.4
0.86
-0.36
-0.78
-0.33
0.33

> <PUBCHEM_SHAPE_SELFOVERLAP>
727.201

> <PUBCHEM_SHAPE_VOLUME>
219.2

> <PUBCHEM_COORDINATE_TYPE>
2
5
10

$$$$
