92972
  -OEChem-11012401143D

 49 48  0     1  0  0  0  0  0999 V2000
   -0.9461    1.2189   -1.4906 O   0  0  0  0  0  0  0  0  0  0  0  0
   -0.4566    1.8100    1.0933 O   0  0  0  0  0  0  0  0  0  0  0  0
   -2.2876   -0.1503    0.6084 O   0  0  0  0  0  0  0  0  0  0  0  0
    2.6765    0.6360   -0.3662 O   0  0  0  0  0  0  0  0  0  0  0  0
    0.0809   -2.7058   -0.4146 O   0  0  0  0  0  0  0  0  0  0  0  0
    2.1477    2.6512   -2.0221 O   0  0  0  0  0  0  0  0  0  0  0  0
   -0.6215   -0.0736   -3.3777 O   0  0  0  0  0  0  0  0  0  0  0  0
    0.4784    1.3557    3.1562 O   0  0  0  0  0  0  0  0  0  0  0  0
   -4.0031   -1.4921   -0.1619 O   0  0  0  0  0  0  0  0  0  0  0  0
    3.4531    0.2368    1.7726 O   0  0  0  0  0  0  0  0  0  0  0  0
    0.4698   -4.2845    1.2265 O   0  0  0  0  0  0  0  0  0  0  0  0
   -0.3014    0.2221   -0.6907 C   0  0  1  0  0  0  0  0  0  0  0  0
    0.4501    0.8893    0.4745 C   0  0  1  0  0  0  0  0  0  0  0  0
   -1.3732   -0.8007   -0.2861 C   0  0  1  0  0  0  0  0  0  0  0  0
    1.7638    1.6065    0.1356 C   0  0  2  0  0  0  0  0  0  0  0  0
   -0.8235   -2.0197    0.4470 C   0  0  0  0  0  0  0  0  0  0  0  0
    1.6186    2.6877   -0.9155 C   0  0  0  0  0  0  0  0  0  0  0  0
   -1.0348    0.9345   -2.8210 C   0  0  0  0  0  0  0  0  0  0  0  0
   -0.3256    1.9408    2.4434 C   0  0  0  0  0  0  0  0  0  0  0  0
   -3.5711   -0.6028    0.5589 C   0  0  0  0  0  0  0  0  0  0  0  0
    3.4652    0.0246    0.5676 C   0  0  0  0  0  0  0  0  0  0  0  0
   -1.7287    2.0590   -3.5281 C   0  0  0  0  0  0  0  0  0  0  0  0
    0.6588   -3.8283    0.1070 C   0  0  0  0  0  0  0  0  0  0  0  0
   -1.3315    2.9299    2.9493 C   0  0  0  0  0  0  0  0  0  0  0  0
   -4.4064    0.1623    1.5402 C   0  0  0  0  0  0  0  0  0  0  0  0
    4.3693   -0.9662   -0.1012 C   0  0  0  0  0  0  0  0  0  0  0  0
    1.5790   -4.4413   -0.9047 C   0  0  0  0  0  0  0  0  0  0  0  0
    0.4518   -0.3020   -1.2933 H   0  0  0  0  0  0  0  0  0  0  0  0
    0.7085    0.0900    1.1776 H   0  0  0  0  0  0  0  0  0  0  0  0
   -1.8917   -1.1262   -1.1973 H   0  0  0  0  0  0  0  0  0  0  0  0
    2.1710    2.1227    1.0143 H   0  0  0  0  0  0  0  0  0  0  0  0
   -1.6469   -2.6958    0.7092 H   0  0  0  0  0  0  0  0  0  0  0  0
   -0.3298   -1.7456    1.3856 H   0  0  0  0  0  0  0  0  0  0  0  0
    0.9907    3.5474   -0.6240 H   0  0  0  0  0  0  0  0  0  0  0  0
   -1.1563    2.9822   -3.4063 H   0  0  0  0  0  0  0  0  0  0  0  0
   -1.7967    1.8294   -4.5954 H   0  0  0  0  0  0  0  0  0  0  0  0
   -2.7404    2.1775   -3.1320 H   0  0  0  0  0  0  0  0  0  0  0  0
   -2.3419    2.5753    2.7311 H   0  0  0  0  0  0  0  0  0  0  0  0
   -1.2252    3.0333    4.0330 H   0  0  0  0  0  0  0  0  0  0  0  0
   -1.1571    3.9049    2.4875 H   0  0  0  0  0  0  0  0  0  0  0  0
   -4.0127    0.0231    2.5503 H   0  0  0  0  0  0  0  0  0  0  0  0
   -5.4335   -0.2126    1.5124 H   0  0  0  0  0  0  0  0  0  0  0  0
   -4.4141    1.2220    1.2728 H   0  0  0  0  0  0  0  0  0  0  0  0
    3.7740   -1.6943   -0.6573 H   0  0  0  0  0  0  0  0  0  0  0  0
    4.9477   -1.5001    0.6582 H   0  0  0  0  0  0  0  0  0  0  0  0
    5.0603   -0.4445   -0.7678 H   0  0  0  0  0  0  0  0  0  0  0  0
    1.0040   -4.7781   -1.7707 H   0  0  0  0  0  0  0  0  0  0  0  0
    2.0834   -5.3041   -0.4605 H   0  0  0  0  0  0  0  0  0  0  0  0
    2.3377   -3.7151   -1.2060 H   0  0  0  0  0  0  0  0  0  0  0  0
  1 12  1  0  0  0  0
  1 18  1  0  0  0  0
  2 13  1  0  0  0  0
  2 19  1  0  0  0  0
  3 14  1  0  0  0  0
  3 20  1  0  0  0  0
  4 15  1  0  0  0  0
  4 21  1  0  0  0  0
  5 16  1  0  0  0  0
  5 23  1  0  0  0  0
  6 17  2  0  0  0  0
  7 18  2  0  0  0  0
  8 19  2  0  0  0  0
  9 20  2  0  0  0  0
 10 21  2  0  0  0  0
 11 23  2  0  0  0  0
 12 13  1  0  0  0  0
 12 14  1  0  0  0  0
 12 28  1  0  0  0  0
 13 15  1  0  0  0  0
 13 29  1  0  0  0  0
 14 16  1  0  0  0  0
 14 30  1  0  0  0  0
 15 17  1  0  0  0  0
 15 31  1  0  0  0  0
 16 32  1  0  0  0  0
 16 33  1  0  0  0  0
 17 34  1  0  0  0  0
 18 22  1  0  0  0  0
 19 24  1  0  0  0  0
 20 25  1  0  0  0  0
 21 26  1  0  0  0  0
 22 35  1  0  0  0  0
 22 36  1  0  0  0  0
 22 37  1  0  0  0  0
 23 27  1  0  0  0  0
 24 38  1  0  0  0  0
 24 39  1  0  0  0  0
 24 40  1  0  0  0  0
 25 41  1  0  0  0  0
 25 42  1  0  0  0  0
 25 43  1  0  0  0  0
 26 44  1  0  0  0  0
 26 45  1  0  0  0  0
 26 46  1  0  0  0  0
 27 47  1  0  0  0  0
 27 48  1  0  0  0  0
 27 49  1  0  0  0  0
M  END
> <PUBCHEM_COMPOUND_CID>
92972

> <PUBCHEM_CONFORMER_RMSD>
1.2

> <PUBCHEM_CONFORMER_DIVERSEORDER>
1
13
30
45
38
15
24
52
14
57
23
6
21
31
22
53
33
40
56
29
51
17
48
9
18
47
26
20
50
49
35
37
39
43
4
5
54
42
19
44
8
32
41
55
12
46
11
25
2
28
27
36
16
34
7
10
3

> <PUBCHEM_MMFF94_PARTIAL_CHARGES>
28
1 -0.43
10 -0.57
11 -0.57
12 0.28
13 0.28
14 0.28
15 0.34
16 0.28
17 0.45
18 0.66
19 0.66
2 -0.43
20 0.66
21 0.66
22 0.06
23 0.66
24 0.06
25 0.06
26 0.06
27 0.06
3 -0.43
34 0.06
4 -0.43
5 -0.43
6 -0.57
7 -0.57
8 -0.57
9 -0.57

> <PUBCHEM_EFFECTIVE_ROTOR_COUNT>
15

> <PUBCHEM_PHARMACOPHORE_FEATURES>
6
1 10 acceptor
1 11 acceptor
1 6 acceptor
1 7 acceptor
1 8 acceptor
1 9 acceptor

> <PUBCHEM_HEAVY_ATOM_COUNT>
27

> <PUBCHEM_ATOM_DEF_STEREO_COUNT>
4

> <PUBCHEM_ATOM_UDEF_STEREO_COUNT>
0

> <PUBCHEM_BOND_DEF_STEREO_COUNT>
0

> <PUBCHEM_BOND_UDEF_STEREO_COUNT>
0

> <PUBCHEM_ISOTOPIC_ATOM_COUNT>
0

> <PUBCHEM_COMPONENT_COUNT>
1

> <PUBCHEM_CACTVS_TAUTO_COUNT>
2

> <PUBCHEM_CONFORMER_ID>
00016B2C00000001

> <PUBCHEM_MMFF94_ENERGY>
42.6217

> <PUBCHEM_FEATURE_SELFOVERLAP>
30.452

> <PUBCHEM_SHAPE_FINGERPRINT>
11578080 2 17682976387492243949
12788726 201 17844834601270464472
14713325 29 17751068116309150892
17980427 26 17772729779961773953
20600515 1 18269570488176214572
20905425 154 17559134081051604569
21330990 113 18187933820014372637
23419403 2 15457814412164566594
394222 165 15311065914972638276
469060 322 17174372025552470630
57527585 103 17401755333628231163
5845 1 13964480950686609405
81228 2 17200271202190611744

> <PUBCHEM_SHAPE_MULTIPOLES>
491.08
5.39
4.68
3.31
0.31
4.58
1.79
1.56
-1.68
2.51
-0.64
-2.17
-3.07
-0.14

> <PUBCHEM_SHAPE_SELFOVERLAP>
973.048

> <PUBCHEM_SHAPE_VOLUME>
287.9

> <PUBCHEM_COORDINATE_TYPE>
2
5
10

$$$$
