69955
  -OEChem-11012400513D

 21 20  0     0  0  0  0  0  0999 V2000
    1.8295    0.1217   -0.0027 O   0  0  0  0  0  0  0  0  0  0  0  0
   -1.6902   -0.4404    0.0026 O   0  0  0  0  0  0  0  0  0  0  0  0
   -0.4650    1.5161    0.0067 O   0  0  0  0  0  0  0  0  0  0  0  0
    0.6398   -0.6418    0.0169 C   0  0  0  0  0  0  0  0  0  0  0  0
    2.9891   -0.7047    0.0041 C   0  0  0  0  0  0  0  0  0  0  0  0
   -2.9047    0.3169   -0.0065 C   0  0  0  0  0  0  0  0  0  0  0  0
   -0.5395    0.2948    0.0085 C   0  0  0  0  0  0  0  0  0  0  0  0
    4.2213    0.1744   -0.0176 C   0  0  0  0  0  0  0  0  0  0  0  0
   -4.0803   -0.6369   -0.0121 C   0  0  0  0  0  0  0  0  0  0  0  0
    0.5910   -1.2758   -0.8748 H   0  0  0  0  0  0  0  0  0  0  0  0
    0.6004   -1.2470    0.9287 H   0  0  0  0  0  0  0  0  0  0  0  0
    2.9939   -1.3265    0.9063 H   0  0  0  0  0  0  0  0  0  0  0  0
    2.9835   -1.3558   -0.8772 H   0  0  0  0  0  0  0  0  0  0  0  0
   -2.9464    0.9508    0.8864 H   0  0  0  0  0  0  0  0  0  0  0  0
   -2.9352    0.9474   -0.9021 H   0  0  0  0  0  0  0  0  0  0  0  0
    5.1328   -0.4298   -0.0130 H   0  0  0  0  0  0  0  0  0  0  0  0
    4.2244    0.8120   -0.9078 H   0  0  0  0  0  0  0  0  0  0  0  0
    4.2347    0.8409    0.8511 H   0  0  0  0  0  0  0  0  0  0  0  0
   -5.0274   -0.0902   -0.0190 H   0  0  0  0  0  0  0  0  0  0  0  0
   -4.0424   -1.2901   -0.8901 H   0  0  0  0  0  0  0  0  0  0  0  0
   -4.0536   -1.2867    0.8689 H   0  0  0  0  0  0  0  0  0  0  0  0
  1  4  1  0  0  0  0
  1  5  1  0  0  0  0
  2  6  1  0  0  0  0
  2  7  1  0  0  0  0
  3  7  2  0  0  0  0
  4  7  1  0  0  0  0
  4 10  1  0  0  0  0
  4 11  1  0  0  0  0
  5  8  1  0  0  0  0
  5 12  1  0  0  0  0
  5 13  1  0  0  0  0
  6  9  1  0  0  0  0
  6 14  1  0  0  0  0
  6 15  1  0  0  0  0
  8 16  1  0  0  0  0
  8 17  1  0  0  0  0
  8 18  1  0  0  0  0
  9 19  1  0  0  0  0
  9 20  1  0  0  0  0
  9 21  1  0  0  0  0
M  END
> <PUBCHEM_COMPOUND_CID>
69955

> <PUBCHEM_CONFORMER_RMSD>
0.6

> <PUBCHEM_CONFORMER_DIVERSEORDER>
1
47
69
41
11
31
59
62
40
22
6
51
50
16
33
20
45
63
70
13
65
18
46
57
8
38
25
61
58
32
66
49
12
2
68
43
7
26
60
17
48
52
14
10
39
55
35
44
36
21
64
56
3
28
30
5
19
54
29
24
42
37
4
67
9
15
34
23
53
27

> <PUBCHEM_MMFF94_PARTIAL_CHARGES>
7
1 -0.56
2 -0.43
3 -0.57
4 0.34
5 0.28
6 0.28
7 0.66

> <PUBCHEM_EFFECTIVE_ROTOR_COUNT>
5

> <PUBCHEM_PHARMACOPHORE_FEATURES>
2
1 1 acceptor
1 3 acceptor

> <PUBCHEM_HEAVY_ATOM_COUNT>
9

> <PUBCHEM_ATOM_DEF_STEREO_COUNT>
0

> <PUBCHEM_ATOM_UDEF_STEREO_COUNT>
0

> <PUBCHEM_BOND_DEF_STEREO_COUNT>
0

> <PUBCHEM_BOND_UDEF_STEREO_COUNT>
0

> <PUBCHEM_ISOTOPIC_ATOM_COUNT>
0

> <PUBCHEM_COMPONENT_COUNT>
1

> <PUBCHEM_CACTVS_TAUTO_COUNT>
1

> <PUBCHEM_CONFORMER_ID>
0001114300000001

> <PUBCHEM_MMFF94_ENERGY>
5.2345

> <PUBCHEM_FEATURE_SELFOVERLAP>
10.156

> <PUBCHEM_SHAPE_FINGERPRINT>
11062470 55 16877662361586588630
12932764 1 15051439458682527610
14325111 11 18410575037719190466
20719005 15 18410856572535390370
21293036 1 18187082866544000910
22485316 2 18410569583052903671

> <PUBCHEM_SHAPE_MULTIPOLES>
167.61
7.6
0.99
0.58
1.06
0.21
0
-1.15
-0.06
-0.14
0
0
-0.01
-0.01

> <PUBCHEM_SHAPE_SELFOVERLAP>
302.699

> <PUBCHEM_SHAPE_VOLUME>
108.4

> <PUBCHEM_COORDINATE_TYPE>
2
5
10

$$$$
