5365824
  -OEChem-11012400313D

 21 20  0     0  0  0  0  0  0999 V2000
   -0.5994    0.3930   -0.0031 O   0  0  0  0  0  0  0  0  0  0  0  0
    0.5070   -1.6354   -0.0004 O   0  0  0  0  0  0  0  0  0  0  0  0
   -2.9740    0.7553   -0.0053 C   0  0  0  0  0  0  0  0  0  0  0  0
   -1.8617   -0.2820   -0.0034 C   0  0  0  0  0  0  0  0  0  0  0  0
   -4.3481    0.1101    0.0094 C   0  0  0  0  0  0  0  0  0  0  0  0
    0.4954   -0.4146   -0.0016 C   0  0  0  0  0  0  0  0  0  0  0  0
    1.6921    0.4540   -0.0007 C   0  0  0  0  0  0  0  0  0  0  0  0
    2.9150   -0.0922    0.0018 C   0  0  0  0  0  0  0  0  0  0  0  0
    4.1738    0.7118    0.0033 C   0  0  0  0  0  0  0  0  0  0  0  0
   -2.8633    1.4148    0.8638 H   0  0  0  0  0  0  0  0  0  0  0  0
   -2.8741    1.3999   -0.8867 H   0  0  0  0  0  0  0  0  0  0  0  0
   -1.9344   -0.9115    0.8912 H   0  0  0  0  0  0  0  0  0  0  0  0
   -1.9337   -0.9141   -0.8964 H   0  0  0  0  0  0  0  0  0  0  0  0
   -4.4821   -0.5072    0.9034 H   0  0  0  0  0  0  0  0  0  0  0  0
   -5.1279    0.8781    0.0073 H   0  0  0  0  0  0  0  0  0  0  0  0
   -4.4933   -0.5238   -0.8712 H   0  0  0  0  0  0  0  0  0  0  0  0
    1.5535    1.5299   -0.0018 H   0  0  0  0  0  0  0  0  0  0  0  0
    3.0386   -1.1719    0.0029 H   0  0  0  0  0  0  0  0  0  0  0  0
    4.7667    0.4735    0.8917 H   0  0  0  0  0  0  0  0  0  0  0  0
    3.9787    1.7889    0.0021 H   0  0  0  0  0  0  0  0  0  0  0  0
    4.7697    0.4722   -0.8826 H   0  0  0  0  0  0  0  0  0  0  0  0
  1  4  1  0  0  0  0
  1  6  1  0  0  0  0
  2  6  2  0  0  0  0
  3  4  1  0  0  0  0
  3  5  1  0  0  0  0
  3 10  1  0  0  0  0
  3 11  1  0  0  0  0
  4 12  1  0  0  0  0
  4 13  1  0  0  0  0
  5 14  1  0  0  0  0
  5 15  1  0  0  0  0
  5 16  1  0  0  0  0
  6  7  1  0  0  0  0
  7  8  2  0  0  0  0
  7 17  1  0  0  0  0
  8  9  1  0  0  0  0
  8 18  1  0  0  0  0
  9 19  1  0  0  0  0
  9 20  1  0  0  0  0
  9 21  1  0  0  0  0
M  END
> <PUBCHEM_COMPOUND_CID>
5365824

> <PUBCHEM_CONFORMER_RMSD>
0.6

> <PUBCHEM_CONFORMER_DIVERSEORDER>
1
23
11
17
13
27
26
18
5
25
2
22
21
24
30
15
4
7
12
20
28
19
6
10
8
29
16
3
9
14

> <PUBCHEM_MMFF94_PARTIAL_CHARGES>
9
1 -0.43
17 0.15
18 0.15
2 -0.57
4 0.28
6 0.71
7 -0.14
8 -0.29
9 0.14

> <PUBCHEM_EFFECTIVE_ROTOR_COUNT>
4

> <PUBCHEM_PHARMACOPHORE_FEATURES>
3
1 2 acceptor
1 5 hydrophobe
1 9 hydrophobe

> <PUBCHEM_HEAVY_ATOM_COUNT>
9

> <PUBCHEM_ATOM_DEF_STEREO_COUNT>
0

> <PUBCHEM_ATOM_UDEF_STEREO_COUNT>
0

> <PUBCHEM_BOND_DEF_STEREO_COUNT>
1

> <PUBCHEM_BOND_UDEF_STEREO_COUNT>
0

> <PUBCHEM_ISOTOPIC_ATOM_COUNT>
0

> <PUBCHEM_COMPONENT_COUNT>
1

> <PUBCHEM_CACTVS_TAUTO_COUNT>
1

> <PUBCHEM_CONFORMER_ID>
0051E04000000001

> <PUBCHEM_MMFF94_ENERGY>
6.0014

> <PUBCHEM_FEATURE_SELFOVERLAP>
15.223

> <PUBCHEM_SHAPE_FINGERPRINT>
10219947 1 17967817132520038324
11062470 55 16877943836758517061
12932764 1 15840973474295304225
14325111 11 18410573989673304230
14390081 3 18342175540326002521
170605 34 18410012108977036978
20645477 70 17703516489134310590
20719005 15 18410575089005577449
21119208 17 15554449604203219976
21293036 1 17703790327279048257
22485316 2 9439403510386989828
23235685 24 18408880741550205904
23402539 116 18060129942692118205
23402655 69 18271517603548056797
366044 4 18411699902681573466

> <PUBCHEM_SHAPE_MULTIPOLES>
173.48
7.79
1.02
0.6
1.52
0.29
0
-2.14
0.02
-0.16
0
0
-0.01
0

> <PUBCHEM_SHAPE_SELFOVERLAP>
317.879

> <PUBCHEM_SHAPE_VOLUME>
110.5

> <PUBCHEM_COORDINATE_TYPE>
2
5
10

$$$$
