78951
  -OEChem-11012401133D

 23 24  0     0  0  0  0  0  0999 V2000
    2.2852   -0.4815   -0.8563 O   0  0  0  0  0  0  0  0  0  0  0  0
    1.7012    1.1954    0.7221 O   0  0  0  0  0  0  0  0  0  0  0  0
   -2.2853   -0.4816    0.8561 O   0  0  0  0  0  0  0  0  0  0  0  0
   -1.7012    1.1955   -0.7219 O   0  0  0  0  0  0  0  0  0  0  0  0
    0.0000   -0.4111    0.0000 C   0  0  0  0  0  0  0  0  0  0  0  0
    1.1564   -1.2864   -0.5131 C   0  0  0  0  0  0  0  0  0  0  0  0
    0.5375    0.4807    1.1435 C   0  0  0  0  0  0  0  0  0  0  0  0
   -1.1564   -1.2865    0.5130 C   0  0  0  0  0  0  0  0  0  0  0  0
   -0.5375    0.4809   -1.1433 C   0  0  0  0  0  0  0  0  0  0  0  0
    2.7083    0.2972    0.2610 C   0  0  0  0  0  0  0  0  0  0  0  0
   -2.7084    0.2973   -0.2611 C   0  0  0  0  0  0  0  0  0  0  0  0
    1.4641   -2.0224    0.2403 H   0  0  0  0  0  0  0  0  0  0  0  0
    0.8599   -1.8446   -1.4079 H   0  0  0  0  0  0  0  0  0  0  0  0
   -0.2045    1.2185    1.4662 H   0  0  0  0  0  0  0  0  0  0  0  0
    0.7976   -0.1197    2.0245 H   0  0  0  0  0  0  0  0  0  0  0  0
   -1.4640   -2.0224   -0.2406 H   0  0  0  0  0  0  0  0  0  0  0  0
   -0.8600   -1.8447    1.4078 H   0  0  0  0  0  0  0  0  0  0  0  0
    0.2045    1.2188   -1.4659 H   0  0  0  0  0  0  0  0  0  0  0  0
   -0.7975   -0.1193   -2.0244 H   0  0  0  0  0  0  0  0  0  0  0  0
    3.0456   -0.3535    1.0774 H   0  0  0  0  0  0  0  0  0  0  0  0
    3.5648    0.8974   -0.0597 H   0  0  0  0  0  0  0  0  0  0  0  0
   -3.0456   -0.3533   -1.0776 H   0  0  0  0  0  0  0  0  0  0  0  0
   -3.5648    0.8974    0.0596 H   0  0  0  0  0  0  0  0  0  0  0  0
  1  6  1  0  0  0  0
  1 10  1  0  0  0  0
  2  7  1  0  0  0  0
  2 10  1  0  0  0  0
  3  8  1  0  0  0  0
  3 11  1  0  0  0  0
  4  9  1  0  0  0  0
  4 11  1  0  0  0  0
  5  6  1  0  0  0  0
  5  7  1  0  0  0  0
  5  8  1  0  0  0  0
  5  9  1  0  0  0  0
  6 12  1  0  0  0  0
  6 13  1  0  0  0  0
  7 14  1  0  0  0  0
  7 15  1  0  0  0  0
  8 16  1  0  0  0  0
  8 17  1  0  0  0  0
  9 18  1  0  0  0  0
  9 19  1  0  0  0  0
 10 20  1  0  0  0  0
 10 21  1  0  0  0  0
 11 22  1  0  0  0  0
 11 23  1  0  0  0  0
M  END
> <PUBCHEM_COMPOUND_CID>
78951

> <PUBCHEM_CONFORMER_RMSD>
0.4

> <PUBCHEM_CONFORMER_DIVERSEORDER>
1
2
3
4

> <PUBCHEM_MMFF94_PARTIAL_CHARGES>
10
1 -0.56
10 0.56
11 0.56
2 -0.56
3 -0.56
4 -0.56
6 0.28
7 0.28
8 0.28
9 0.28

> <PUBCHEM_EFFECTIVE_ROTOR_COUNT>
2

> <PUBCHEM_PHARMACOPHORE_FEATURES>
6
1 1 acceptor
1 2 acceptor
1 3 acceptor
1 4 acceptor
6 1 2 5 6 7 10 rings
6 3 4 5 8 9 11 rings

> <PUBCHEM_HEAVY_ATOM_COUNT>
11

> <PUBCHEM_ATOM_DEF_STEREO_COUNT>
0

> <PUBCHEM_ATOM_UDEF_STEREO_COUNT>
0

> <PUBCHEM_BOND_DEF_STEREO_COUNT>
0

> <PUBCHEM_BOND_UDEF_STEREO_COUNT>
0

> <PUBCHEM_ISOTOPIC_ATOM_COUNT>
0

> <PUBCHEM_COMPONENT_COUNT>
1

> <PUBCHEM_CACTVS_TAUTO_COUNT>
1

> <PUBCHEM_CONFORMER_ID>
0001346700000001

> <PUBCHEM_MMFF94_ENERGY>
34.3979

> <PUBCHEM_FEATURE_SELFOVERLAP>
30.523

> <PUBCHEM_SHAPE_FINGERPRINT>
10857977 72 17967535713609926539
12423570 1 14954564104509424431
13839132 238 18188765029256411645
14128692 85 14418700349423864419
16945 1 18410862057198045382
17844478 74 18337685173513820793
20201158 50 18343021060351527622
20645464 45 18410564115459081944
21040471 1 17750507386811285495
21922407 69 15430029933434528009
23552423 10 16588580907532072434
29004967 10 18059860545263579522
369184 2 14851603293095450191
5084963 1 18408046225141306851
528886 8 17418370298679623722
63268167 104 17131829876168299992

> <PUBCHEM_SHAPE_MULTIPOLES>
202.9
3.58
1.24
1.09
0
0.14
0
-0.39
0
0
0
0
-0.09
0.6

> <PUBCHEM_SHAPE_SELFOVERLAP>
415.4

> <PUBCHEM_SHAPE_VOLUME>
113.2

> <PUBCHEM_COORDINATE_TYPE>
2
5
10

$$$$
