234610
  -OEChem-11012400563D

 13 13  0     0  0  0  0  0  0999 V2000
   -0.5910    1.1416    0.0001 N   0  0  0  0  0  0  0  0  0  0  0  0
   -0.0119   -0.9656    0.0005 N   0  0  0  0  0  0  0  0  0  0  0  0
    0.7497    1.1915    0.0000 N   0  0  0  0  0  0  0  0  0  0  0  0
    2.3049   -0.6320   -0.0003 N   0  0  0  0  0  0  0  0  0  0  0  0
   -1.0357   -0.1438    0.0002 C   0  0  0  0  0  0  0  0  0  0  0  0
    1.0514   -0.1087   -0.0001 C   0  0  0  0  0  0  0  0  0  0  0  0
   -2.4675   -0.4830   -0.0004 C   0  0  0  0  0  0  0  0  0  0  0  0
   -1.1190    2.0063   -0.0001 H   0  0  0  0  0  0  0  0  0  0  0  0
   -2.9630   -0.0778    0.8874 H   0  0  0  0  0  0  0  0  0  0  0  0
   -2.9622   -0.0785   -0.8889 H   0  0  0  0  0  0  0  0  0  0  0  0
   -2.6080   -1.5684   -0.0001 H   0  0  0  0  0  0  0  0  0  0  0  0
    2.4731   -1.6329   -0.0003 H   0  0  0  0  0  0  0  0  0  0  0  0
    3.1349   -0.0477   -0.0005 H   0  0  0  0  0  0  0  0  0  0  0  0
  1  3  1  0  0  0  0
  1  5  1  0  0  0  0
  1  8  1  0  0  0  0
  2  5  2  0  0  0  0
  2  6  1  0  0  0  0
  3  6  2  0  0  0  0
  4  6  1  0  0  0  0
  4 12  1  0  0  0  0
  4 13  1  0  0  0  0
  5  7  1  0  0  0  0
  7  9  1  0  0  0  0
  7 10  1  0  0  0  0
  7 11  1  0  0  0  0
M  END
> <PUBCHEM_COMPOUND_CID>
234610

> <PUBCHEM_CONFORMER_RMSD>
0.4

> <PUBCHEM_CONFORMER_DIVERSEORDER>
1

> <PUBCHEM_MMFF94_PARTIAL_CHARGES>
10
1 0.3
12 0.4
13 0.4
2 -0.57
3 -0.71
4 -0.88
5 0.01
6 0.6
7 0.18
8 0.27

> <PUBCHEM_EFFECTIVE_ROTOR_COUNT>
0

> <PUBCHEM_PHARMACOPHORE_FEATURES>
4
1 1 donor
1 4 donor
4 2 3 4 6 cation
5 1 2 3 5 6 rings

> <PUBCHEM_HEAVY_ATOM_COUNT>
7

> <PUBCHEM_ATOM_DEF_STEREO_COUNT>
0

> <PUBCHEM_ATOM_UDEF_STEREO_COUNT>
0

> <PUBCHEM_BOND_DEF_STEREO_COUNT>
0

> <PUBCHEM_BOND_UDEF_STEREO_COUNT>
0

> <PUBCHEM_ISOTOPIC_ATOM_COUNT>
0

> <PUBCHEM_COMPONENT_COUNT>
1

> <PUBCHEM_CACTVS_TAUTO_COUNT>
5

> <PUBCHEM_CONFORMER_ID>
0003947200000001

> <PUBCHEM_MMFF94_ENERGY>
2.6091

> <PUBCHEM_FEATURE_SELFOVERLAP>
20.297

> <PUBCHEM_SHAPE_FINGERPRINT>
139733 1 9223229645825123523
16714656 1 18412548682397177374
20096714 4 18195529422437924329
21040471 1 18050286169702083329
23552423 10 17972327222133565582
29004967 10 18409451401017532915
5460574 1 9223232944354868514

> <PUBCHEM_SHAPE_MULTIPOLES>
124.13
2.71
1.12
0.56
0.46
0.24
0
-0.74
0
-0.13
0
0.04
-0.01
0

> <PUBCHEM_SHAPE_SELFOVERLAP>
253.011

> <PUBCHEM_SHAPE_VOLUME>
71.7

> <PUBCHEM_COORDINATE_TYPE>
2
5
10

$$$$
