141940
  -OEChem-11012400563D

 20 20  0     1  0  0  0  0  0999 V2000
    0.2829    1.5293   -0.0726 O   0  0  0  0  0  0  0  0  0  0  0  0
   -2.0022    1.4917   -0.0423 O   0  0  0  0  0  0  0  0  0  0  0  0
    2.4860    0.9201   -0.0094 O   0  0  0  0  0  0  0  0  0  0  0  0
   -0.7277   -0.5875    0.0211 C   0  0  0  0  0  0  0  0  0  0  0  0
    0.7329   -0.6953    0.4780 C   0  0  2  0  0  0  0  0  0  0  0  0
   -1.6707   -1.2297    1.0404 C   0  0  0  0  0  0  0  0  0  0  0  0
   -1.0095   -1.1305   -1.3842 C   0  0  0  0  0  0  0  0  0  0  0  0
   -0.9290    0.9087   -0.0136 C   0  0  0  0  0  0  0  0  0  0  0  0
    1.3016    0.6401    0.0895 C   0  0  0  0  0  0  0  0  0  0  0  0
    1.5356   -1.8469   -0.1068 C   0  0  0  0  0  0  0  0  0  0  0  0
    0.7879   -0.7421    1.5738 H   0  0  0  0  0  0  0  0  0  0  0  0
   -1.4663   -2.3007    1.1450 H   0  0  0  0  0  0  0  0  0  0  0  0
   -1.5689   -0.7657    2.0283 H   0  0  0  0  0  0  0  0  0  0  0  0
   -2.7185   -1.1140    0.7402 H   0  0  0  0  0  0  0  0  0  0  0  0
   -0.8802   -2.2169   -1.4296 H   0  0  0  0  0  0  0  0  0  0  0  0
   -2.0386   -0.9089   -1.6912 H   0  0  0  0  0  0  0  0  0  0  0  0
   -0.3511   -0.6740   -2.1323 H   0  0  0  0  0  0  0  0  0  0  0  0
    2.5384   -1.8740    0.3343 H   0  0  0  0  0  0  0  0  0  0  0  0
    1.0538   -2.8071    0.1020 H   0  0  0  0  0  0  0  0  0  0  0  0
    1.6706   -1.7477   -1.1890 H   0  0  0  0  0  0  0  0  0  0  0  0
  1  8  1  0  0  0  0
  1  9  1  0  0  0  0
  2  8  2  0  0  0  0
  3  9  2  0  0  0  0
  4  5  1  0  0  0  0
  4  6  1  0  0  0  0
  4  7  1  0  0  0  0
  4  8  1  0  0  0  0
  5  9  1  0  0  0  0
  5 10  1  0  0  0  0
  5 11  1  0  0  0  0
  6 12  1  0  0  0  0
  6 13  1  0  0  0  0
  6 14  1  0  0  0  0
  7 15  1  0  0  0  0
  7 16  1  0  0  0  0
  7 17  1  0  0  0  0
 10 18  1  0  0  0  0
 10 19  1  0  0  0  0
 10 20  1  0  0  0  0
M  END
> <PUBCHEM_COMPOUND_CID>
141940

> <PUBCHEM_CONFORMER_RMSD>
0.4

> <PUBCHEM_CONFORMER_DIVERSEORDER>
1
2

> <PUBCHEM_MMFF94_PARTIAL_CHARGES>
7
1 -0.3
2 -0.57
3 -0.57
4 0.06
5 0.06
8 0.66
9 0.66

> <PUBCHEM_EFFECTIVE_ROTOR_COUNT>
0.6

> <PUBCHEM_PHARMACOPHORE_FEATURES>
4
1 2 acceptor
1 3 acceptor
3 4 6 7 hydrophobe
5 1 4 5 8 9 rings

> <PUBCHEM_HEAVY_ATOM_COUNT>
10

> <PUBCHEM_ATOM_DEF_STEREO_COUNT>
0

> <PUBCHEM_ATOM_UDEF_STEREO_COUNT>
1

> <PUBCHEM_BOND_DEF_STEREO_COUNT>
0

> <PUBCHEM_BOND_UDEF_STEREO_COUNT>
0

> <PUBCHEM_ISOTOPIC_ATOM_COUNT>
0

> <PUBCHEM_COMPONENT_COUNT>
1

> <PUBCHEM_CACTVS_TAUTO_COUNT>
2

> <PUBCHEM_CONFORMER_ID>
00022A7400000001

> <PUBCHEM_MMFF94_ENERGY>
14.805

> <PUBCHEM_FEATURE_SELFOVERLAP>
20.297

> <PUBCHEM_SHAPE_FINGERPRINT>
12423570 1 10962094147132810711
13024252 1 17970340632086220204
137420 1 18263629710803016075
16945 1 18264782110731557771
18185500 45 17840574117813086159
21040471 1 18337388236396654320
23552423 10 18260272927873685590
24536 1 18187912989333309546
2748010 2 18409733923955655718
29004967 10 18118691143052155419
5084963 1 17909538467998967169
68250623 7 18340485565300436055

> <PUBCHEM_SHAPE_MULTIPOLES>
188.19
2.46
1.9
0.94
0.62
0.04
0.15
-0.26
-0.16
0.03
0.06
-0.39
0.4
0.08

> <PUBCHEM_SHAPE_SELFOVERLAP>
387.092

> <PUBCHEM_SHAPE_VOLUME>
111.4

> <PUBCHEM_COORDINATE_TYPE>
2
5
10

$$$$
