94205
  -OEChem-11012401223D

 23 23  0     1  0  0  0  0  0999 V2000
    0.3506    1.3168   -0.1832 N   0  0  0  0  0  0  0  0  0  0  0  0
   -0.5718    0.2581    0.2460 C   0  0  2  0  0  0  0  0  0  0  0  0
   -0.1064   -1.1109   -0.2689 C   0  0  0  0  0  0  0  0  0  0  0  0
    1.3235   -1.4106    0.1727 C   0  0  0  0  0  0  0  0  0  0  0  0
    2.2521   -0.2618   -0.2051 C   0  0  0  0  0  0  0  0  0  0  0  0
    1.7113    1.0748    0.2972 C   0  0  0  0  0  0  0  0  0  0  0  0
   -1.9734    0.5768   -0.2711 C   0  0  0  0  0  0  0  0  0  0  0  0
   -2.9859   -0.4431    0.2124 C   0  0  0  0  0  0  0  0  0  0  0  0
   -0.5996    0.2396    1.3441 H   0  0  0  0  0  0  0  0  0  0  0  0
   -0.1614   -1.1437   -1.3649 H   0  0  0  0  0  0  0  0  0  0  0  0
   -0.7470   -1.9141    0.1100 H   0  0  0  0  0  0  0  0  0  0  0  0
    1.6719   -2.3420   -0.2869 H   0  0  0  0  0  0  0  0  0  0  0  0
    1.3477   -1.5585    1.2594 H   0  0  0  0  0  0  0  0  0  0  0  0
    3.2496   -0.4393    0.2125 H   0  0  0  0  0  0  0  0  0  0  0  0
    2.3634   -0.2267   -1.2962 H   0  0  0  0  0  0  0  0  0  0  0  0
    1.7353    1.1066    1.3933 H   0  0  0  0  0  0  0  0  0  0  0  0
    2.3611    1.8811   -0.0603 H   0  0  0  0  0  0  0  0  0  0  0  0
    0.0254    2.2170    0.1683 H   0  0  0  0  0  0  0  0  0  0  0  0
   -1.9903    0.6172   -1.3674 H   0  0  0  0  0  0  0  0  0  0  0  0
   -2.2814    1.5672    0.0880 H   0  0  0  0  0  0  0  0  0  0  0  0
   -2.8590   -1.4125   -0.2780 H   0  0  0  0  0  0  0  0  0  0  0  0
   -2.9273   -0.5862    1.2960 H   0  0  0  0  0  0  0  0  0  0  0  0
   -3.9988   -0.0987   -0.0231 H   0  0  0  0  0  0  0  0  0  0  0  0
  1  2  1  0  0  0  0
  1  6  1  0  0  0  0
  1 18  1  0  0  0  0
  2  3  1  0  0  0  0
  2  7  1  0  0  0  0
  2  9  1  0  0  0  0
  3  4  1  0  0  0  0
  3 10  1  0  0  0  0
  3 11  1  0  0  0  0
  4  5  1  0  0  0  0
  4 12  1  0  0  0  0
  4 13  1  0  0  0  0
  5  6  1  0  0  0  0
  5 14  1  0  0  0  0
  5 15  1  0  0  0  0
  6 16  1  0  0  0  0
  6 17  1  0  0  0  0
  7  8  1  0  0  0  0
  7 19  1  0  0  0  0
  7 20  1  0  0  0  0
  8 21  1  0  0  0  0
  8 22  1  0  0  0  0
  8 23  1  0  0  0  0
M  END
> <PUBCHEM_COMPOUND_CID>
94205

> <PUBCHEM_CONFORMER_RMSD>
0.4

> <PUBCHEM_CONFORMER_DIVERSEORDER>
2
6
7
12
11
10
1
8
3
9
5
4

> <PUBCHEM_MMFF94_PARTIAL_CHARGES>
4
1 -0.9
18 0.36
2 0.27
6 0.27

> <PUBCHEM_EFFECTIVE_ROTOR_COUNT>
2.2

> <PUBCHEM_PHARMACOPHORE_FEATURES>
4
1 1 cation
1 1 donor
1 8 hydrophobe
6 1 2 3 4 5 6 rings

> <PUBCHEM_HEAVY_ATOM_COUNT>
8

> <PUBCHEM_ATOM_DEF_STEREO_COUNT>
0

> <PUBCHEM_ATOM_UDEF_STEREO_COUNT>
1

> <PUBCHEM_BOND_DEF_STEREO_COUNT>
0

> <PUBCHEM_BOND_UDEF_STEREO_COUNT>
0

> <PUBCHEM_ISOTOPIC_ATOM_COUNT>
0

> <PUBCHEM_COMPONENT_COUNT>
1

> <PUBCHEM_CACTVS_TAUTO_COUNT>
1

> <PUBCHEM_CONFORMER_ID>
00016FFD00000002

> <PUBCHEM_MMFF94_ENERGY>
-4.7501

> <PUBCHEM_FEATURE_SELFOVERLAP>
20.297

> <PUBCHEM_SHAPE_FINGERPRINT>
10857977 72 18335132107408623379
12897270 3 18408884018852891493
14325111 11 18411981398995808121
18185500 45 18341888550405503494
21040471 1 18267020742270497860
21293036 1 18337967752465879748
23235685 24 18338794627922503384
23552423 10 18115876191458521926
29004967 10 18335985289650445257
5084963 1 18408606967518545745

> <PUBCHEM_SHAPE_MULTIPOLES>
159.66
3.57
1.42
0.66
1.93
0.07
0.01
0.19
0.12
-0.5
0.01
0.01
0.01
0.1

> <PUBCHEM_SHAPE_SELFOVERLAP>
300.712

> <PUBCHEM_SHAPE_VOLUME>
97.8

> <PUBCHEM_COORDINATE_TYPE>
2
5
10

$$$$
