138069
  -OEChem-10312420282D

 45 44  0     0  0  0  0  0  0999 V2000
    9.4651   -1.2500    0.0000 O   0  0  0  0  0  0  0  0  0  0  0  0
   12.0632    1.2500    0.0000 O   0  0  0  0  0  0  0  0  0  0  0  0
    6.8671    1.2500    0.0000 O   0  0  0  0  0  0  0  0  0  0  0  0
   14.6613   -1.2500    0.0000 O   0  0  0  0  0  0  0  0  0  0  0  0
    4.2690   -1.2500    0.0000 O   0  0  0  0  0  0  0  0  0  0  0  0
   18.1254   -0.2500    0.0000 O   0  0  0  0  0  0  0  0  0  0  0  0
   17.2594    1.2500    0.0000 O   0  0  0  0  0  0  0  0  0  0  0  0
   10.3312    0.2500    0.0000 N   0  0  0  0  0  0  0  0  0  0  0  0
    7.7331   -0.2500    0.0000 N   0  0  0  0  0  0  0  0  0  0  0  0
   12.9292   -0.2500    0.0000 N   0  0  0  0  0  0  0  0  0  0  0  0
    5.1350    0.2500    0.0000 N   0  0  0  0  0  0  0  0  0  0  0  0
   15.5273    0.2500    0.0000 N   0  0  0  0  0  0  0  0  0  0  0  0
    2.5369   -0.2500    0.0000 N   0  0  0  0  0  0  0  0  0  0  0  0
   11.1972   -0.2500    0.0000 C   0  0  0  0  0  0  0  0  0  0  0  0
    8.5991    0.2500    0.0000 C   0  0  0  0  0  0  0  0  0  0  0  0
    9.4651   -0.2500    0.0000 C   0  0  0  0  0  0  0  0  0  0  0  0
   13.7953    0.2500    0.0000 C   0  0  0  0  0  0  0  0  0  0  0  0
   12.0632    0.2500    0.0000 C   0  0  0  0  0  0  0  0  0  0  0  0
    6.0010   -0.2500    0.0000 C   0  0  0  0  0  0  0  0  0  0  0  0
    6.8671    0.2500    0.0000 C   0  0  0  0  0  0  0  0  0  0  0  0
   14.6613   -0.2500    0.0000 C   0  0  0  0  0  0  0  0  0  0  0  0
    4.2690   -0.2500    0.0000 C   0  0  0  0  0  0  0  0  0  0  0  0
   16.3933   -0.2500    0.0000 C   0  0  0  0  0  0  0  0  0  0  0  0
    3.4030    0.2500    0.0000 C   0  0  0  0  0  0  0  0  0  0  0  0
   17.2594    0.2500    0.0000 C   0  0  0  0  0  0  0  0  0  0  0  0
   10.7987   -0.7249    0.0000 H   0  0  0  0  0  0  0  0  0  0  0  0
   11.5957   -0.7249    0.0000 H   0  0  0  0  0  0  0  0  0  0  0  0
    8.9976    0.7249    0.0000 H   0  0  0  0  0  0  0  0  0  0  0  0
    8.2006    0.7249    0.0000 H   0  0  0  0  0  0  0  0  0  0  0  0
   10.3312    0.8700    0.0000 H   0  0  0  0  0  0  0  0  0  0  0  0
   14.1938    0.7249    0.0000 H   0  0  0  0  0  0  0  0  0  0  0  0
   13.3967    0.7249    0.0000 H   0  0  0  0  0  0  0  0  0  0  0  0
    5.6025   -0.7249    0.0000 H   0  0  0  0  0  0  0  0  0  0  0  0
    6.3996   -0.7249    0.0000 H   0  0  0  0  0  0  0  0  0  0  0  0
    7.7331   -0.8700    0.0000 H   0  0  0  0  0  0  0  0  0  0  0  0
   12.9292   -0.8700    0.0000 H   0  0  0  0  0  0  0  0  0  0  0  0
    5.1350    0.8700    0.0000 H   0  0  0  0  0  0  0  0  0  0  0  0
   15.5273    0.8700    0.0000 H   0  0  0  0  0  0  0  0  0  0  0  0
   15.9948   -0.7249    0.0000 H   0  0  0  0  0  0  0  0  0  0  0  0
   16.7919   -0.7249    0.0000 H   0  0  0  0  0  0  0  0  0  0  0  0
    3.8015    0.7249    0.0000 H   0  0  0  0  0  0  0  0  0  0  0  0
    3.0044    0.7249    0.0000 H   0  0  0  0  0  0  0  0  0  0  0  0
    2.0000    0.0600    0.0000 H   0  0  0  0  0  0  0  0  0  0  0  0
    2.5369   -0.8700    0.0000 H   0  0  0  0  0  0  0  0  0  0  0  0
   18.6623    0.0600    0.0000 H   0  0  0  0  0  0  0  0  0  0  0  0
  1 16  2  0  0  0  0
  2 18  2  0  0  0  0
  3 20  2  0  0  0  0
  4 21  2  0  0  0  0
  5 22  2  0  0  0  0
  6 25  1  0  0  0  0
  6 45  1  0  0  0  0
  7 25  2  0  0  0  0
  8 14  1  0  0  0  0
  8 16  1  0  0  0  0
  8 30  1  0  0  0  0
  9 15  1  0  0  0  0
  9 20  1  0  0  0  0
  9 35  1  0  0  0  0
 10 17  1  0  0  0  0
 10 18  1  0  0  0  0
 10 36  1  0  0  0  0
 11 19  1  0  0  0  0
 11 22  1  0  0  0  0
 11 37  1  0  0  0  0
 12 21  1  0  0  0  0
 12 23  1  0  0  0  0
 12 38  1  0  0  0  0
 13 24  1  0  0  0  0
 13 43  1  0  0  0  0
 13 44  1  0  0  0  0
 14 18  1  0  0  0  0
 14 26  1  0  0  0  0
 14 27  1  0  0  0  0
 15 16  1  0  0  0  0
 15 28  1  0  0  0  0
 15 29  1  0  0  0  0
 17 21  1  0  0  0  0
 17 31  1  0  0  0  0
 17 32  1  0  0  0  0
 19 20  1  0  0  0  0
 19 33  1  0  0  0  0
 19 34  1  0  0  0  0
 22 24  1  0  0  0  0
 23 25  1  0  0  0  0
 23 39  1  0  0  0  0
 23 40  1  0  0  0  0
 24 41  1  0  0  0  0
 24 42  1  0  0  0  0
M  END
> <PUBCHEM_COMPOUND_CID>
138069

> <PUBCHEM_COMPOUND_CANONICALIZED>
1

> <PUBCHEM_CACTVS_COMPLEXITY>
536

> <PUBCHEM_CACTVS_HBOND_ACCEPTOR>
8

> <PUBCHEM_CACTVS_HBOND_DONOR>
7

> <PUBCHEM_CACTVS_ROTATABLE_BOND>
11

> <PUBCHEM_CACTVS_SUBSKEYS>
AAADceBzuAAAAAAAAAAAAAAAAAAAAAAAAAAAAAAAAAAAAAAAAAAAHgAQCAAAAADBgAQACALAAgAIAAGQGAAAAAAAAAAAAICIAAACQAAAACAQAAAAFgCQAAAAAAAAAAAAAAAAAAAAAAAAAAAAAAAAAAAAAA==

> <PUBCHEM_IUPAC_OPENEYE_NAME>
2-[[2-[[2-[[2-[[2-[(2-aminoacetyl)amino]acetyl]amino]acetyl]amino]acetyl]amino]acetyl]amino]acetic acid

> <PUBCHEM_IUPAC_CAS_NAME>
2-[[2-[[2-[[2-[[2-[(2-amino-1-oxoethyl)amino]-1-oxoethyl]amino]-1-oxoethyl]amino]-1-oxoethyl]amino]-1-oxoethyl]amino]acetic acid

> <PUBCHEM_IUPAC_NAME_MARKUP>
2-[[2-[[2-[[2-[[2-[(2-aminoacetyl)amino]acetyl]amino]acetyl]amino]acetyl]amino]acetyl]amino]acetic acid

> <PUBCHEM_IUPAC_NAME>
2-[[2-[[2-[[2-[[2-[(2-aminoacetyl)amino]acetyl]amino]acetyl]amino]acetyl]amino]acetyl]amino]acetic acid

> <PUBCHEM_IUPAC_SYSTEMATIC_NAME>
2-[2-[2-[2-[2-(2-azanylethanoylamino)ethanoylamino]ethanoylamino]ethanoylamino]ethanoylamino]ethanoic acid

> <PUBCHEM_IUPAC_TRADITIONAL_NAME>
2-[[2-[[2-[[2-[[2-(glycylamino)acetyl]amino]acetyl]amino]acetyl]amino]acetyl]amino]acetic acid

> <PUBCHEM_IUPAC_INCHI>
InChI=1S/C12H20N6O7/c13-1-7(19)14-2-8(20)15-3-9(21)16-4-10(22)17-5-11(23)18-6-12(24)25/h1-6,13H2,(H,14,19)(H,15,20)(H,16,21)(H,17,22)(H,18,23)(H,24,25)

> <PUBCHEM_IUPAC_INCHIKEY>
XJFPXLWGZWAWRQ-UHFFFAOYSA-N

> <PUBCHEM_XLOGP3>
-5.5

> <PUBCHEM_EXACT_MASS>
360.13934700

> <PUBCHEM_MOLECULAR_FORMULA>
C12H20N6O7

> <PUBCHEM_MOLECULAR_WEIGHT>
360.32

> <PUBCHEM_OPENEYE_CAN_SMILES>
C(C(=O)NCC(=O)NCC(=O)NCC(=O)NCC(=O)NCC(=O)O)N

> <PUBCHEM_OPENEYE_ISO_SMILES>
C(C(=O)NCC(=O)NCC(=O)NCC(=O)NCC(=O)NCC(=O)O)N

> <PUBCHEM_CACTVS_TPSA>
209

> <PUBCHEM_MONOISOTOPIC_WEIGHT>
360.13934700

> <PUBCHEM_TOTAL_CHARGE>
0

> <PUBCHEM_HEAVY_ATOM_COUNT>
25

> <PUBCHEM_ATOM_DEF_STEREO_COUNT>
0

> <PUBCHEM_ATOM_UDEF_STEREO_COUNT>
0

> <PUBCHEM_BOND_DEF_STEREO_COUNT>
0

> <PUBCHEM_BOND_UDEF_STEREO_COUNT>
0

> <PUBCHEM_ISOTOPIC_ATOM_COUNT>
0

> <PUBCHEM_COMPONENT_COUNT>
1

> <PUBCHEM_CACTVS_TAUTO_COUNT>
-1

> <PUBCHEM_COORDINATE_TYPE>
1
5
255

$$$$
