10155
  -OEChem-11012400553D

 24 24  0     0  0  0  0  0  0999 V2000
    1.7086    2.0151    1.2322 O   0  0  0  0  0  0  0  0  0  0  0  0
   -1.7068    2.0160   -1.2324 O   0  0  0  0  0  0  0  0  0  0  0  0
    3.3488   -2.0427    0.5769 O   0  0  0  0  0  0  0  0  0  0  0  0
   -3.3497   -2.0421   -0.5767 O   0  0  0  0  0  0  0  0  0  0  0  0
    1.7733    2.1836   -1.0336 O   0  0  0  0  0  0  0  0  0  0  0  0
   -1.7730    2.1843    1.0335 O   0  0  0  0  0  0  0  0  0  0  0  0
    3.5793   -0.0874   -0.5590 O   0  0  0  0  0  0  0  0  0  0  0  0
   -3.5795   -0.0869    0.5595 O   0  0  0  0  0  0  0  0  0  0  0  0
    0.6973    0.3077   -0.0104 C   0  0  0  0  0  0  0  0  0  0  0  0
   -0.6975    0.3078    0.0107 C   0  0  0  0  0  0  0  0  0  0  0  0
    1.3945   -0.9005   -0.0212 C   0  0  0  0  0  0  0  0  0  0  0  0
   -1.3949   -0.9003    0.0209 C   0  0  0  0  0  0  0  0  0  0  0  0
    0.6969   -2.1084   -0.0109 C   0  0  0  0  0  0  0  0  0  0  0  0
   -0.6977   -2.1083    0.0102 C   0  0  0  0  0  0  0  0  0  0  0  0
    1.4320    1.5703   -0.0215 C   0  0  0  0  0  0  0  0  0  0  0  0
   -1.4314    1.5711    0.0215 C   0  0  0  0  0  0  0  0  0  0  0  0
    2.8513   -0.9399   -0.0445 C   0  0  0  0  0  0  0  0  0  0  0  0
   -2.8518   -0.9395    0.0446 C   0  0  0  0  0  0  0  0  0  0  0  0
    1.2093   -3.0668   -0.0300 H   0  0  0  0  0  0  0  0  0  0  0  0
   -1.2102   -3.0666    0.0290 H   0  0  0  0  0  0  0  0  0  0  0  0
    2.2014    2.8633    1.2187 H   0  0  0  0  0  0  0  0  0  0  0  0
   -2.1990    2.8645   -1.2193 H   0  0  0  0  0  0  0  0  0  0  0  0
    4.3295   -2.0618    0.5573 H   0  0  0  0  0  0  0  0  0  0  0  0
   -4.3302   -2.0611   -0.5567 H   0  0  0  0  0  0  0  0  0  0  0  0
  1 15  1  0  0  0  0
  1 21  1  0  0  0  0
  2 16  1  0  0  0  0
  2 22  1  0  0  0  0
  3 17  1  0  0  0  0
  3 23  1  0  0  0  0
  4 18  1  0  0  0  0
  4 24  1  0  0  0  0
  5 15  2  0  0  0  0
  6 16  2  0  0  0  0
  7 17  2  0  0  0  0
  8 18  2  0  0  0  0
  9 10  1  0  0  0  0
  9 11  2  0  0  0  0
  9 15  1  0  0  0  0
 10 12  2  0  0  0  0
 10 16  1  0  0  0  0
 11 13  1  0  0  0  0
 11 17  1  0  0  0  0
 12 14  1  0  0  0  0
 12 18  1  0  0  0  0
 13 14  2  0  0  0  0
 13 19  1  0  0  0  0
 14 20  1  0  0  0  0
M  END
> <PUBCHEM_COMPOUND_CID>
10155

> <PUBCHEM_CONFORMER_RMSD>
0.6

> <PUBCHEM_CONFORMER_DIVERSEORDER>
1
3
2

> <PUBCHEM_MMFF94_PARTIAL_CHARGES>
24
1 -0.65
10 0.09
11 0.09
12 0.09
13 -0.15
14 -0.15
15 0.63
16 0.63
17 0.63
18 0.63
19 0.15
2 -0.65
20 0.15
21 0.5
22 0.5
23 0.5
24 0.5
3 -0.65
4 -0.65
5 -0.57
6 -0.57
7 -0.57
8 -0.57
9 0.09

> <PUBCHEM_EFFECTIVE_ROTOR_COUNT>
4

> <PUBCHEM_PHARMACOPHORE_FEATURES>
13
1 1 acceptor
1 2 acceptor
1 3 acceptor
1 4 acceptor
1 5 acceptor
1 6 acceptor
1 7 acceptor
1 8 acceptor
3 1 5 15 anion
3 2 6 16 anion
3 3 7 17 anion
3 4 8 18 anion
6 9 10 11 12 13 14 rings

> <PUBCHEM_HEAVY_ATOM_COUNT>
18

> <PUBCHEM_ATOM_DEF_STEREO_COUNT>
0

> <PUBCHEM_ATOM_UDEF_STEREO_COUNT>
0

> <PUBCHEM_BOND_DEF_STEREO_COUNT>
0

> <PUBCHEM_BOND_UDEF_STEREO_COUNT>
0

> <PUBCHEM_ISOTOPIC_ATOM_COUNT>
0

> <PUBCHEM_COMPONENT_COUNT>
1

> <PUBCHEM_CACTVS_TAUTO_COUNT>
1

> <PUBCHEM_CONFORMER_ID>
000027AB00000001

> <PUBCHEM_MMFF94_ENERGY>
69.4703

> <PUBCHEM_FEATURE_SELFOVERLAP>
66.213

> <PUBCHEM_SHAPE_FINGERPRINT>
10967382 1 18194683906385756046
11132069 177 18340202977621292682
11206711 2 18408605833631433671
12382932 28 17979916016854313290
12423570 1 10565434413716265736
13140716 1 18339080526636830291
13380535 220 18336267851443941756
14178342 30 18268705005052858250
14614273 12 18116433626990453103
14617773 55 18130801082943285137
15536298 74 18200877408214205098
161256 15 18339075003302982348
16945 1 18410851062082059943
193761 8 18410572885639959780
20588541 1 17977941616035228873
21501502 16 18410863161004750893
22721475 48 18410580582221451650
2334 1 17978511167211504931
23388829 49 18411138038969736711
23402539 116 18340477890083485246
23463225 33 18410014372514505247
23493267 7 17458059400230623153
23559900 14 18127692618302888142
2748010 2 18337660962540787868
350125 39 18410300202525036361
7364860 26 18200031888462921656
90316 7 17826781543933937098

> <PUBCHEM_SHAPE_MULTIPOLES>
323.48
4.97
2.86
0.87
0
0.46
0
-1.62
0
0
0
0
0.42
-0.31

> <PUBCHEM_SHAPE_SELFOVERLAP>
704.62

> <PUBCHEM_SHAPE_VOLUME>
175.3

> <PUBCHEM_COORDINATE_TYPE>
2
5
10

$$$$
