138830
  -OEChem-11012400523D

 48 48  0     0  0  0  0  0  0999 V2000
    4.8804   -0.1988    0.3434 C   0  0  0  0  0  0  0  0  0  0  0  0
    6.1168   -1.0609    0.1081 C   0  0  0  0  0  0  0  0  0  0  0  0
    5.2175    1.0714   -0.4308 C   0  0  0  0  0  0  0  0  0  0  0  0
    7.2785   -0.0760    0.1966 C   0  0  0  0  0  0  0  0  0  0  0  0
    6.6970    1.2986   -0.1386 C   0  0  0  0  0  0  0  0  0  0  0  0
    3.5934   -0.8586   -0.1195 C   0  0  0  0  0  0  0  0  0  0  0  0
    2.3785    0.0221    0.1745 C   0  0  0  0  0  0  0  0  0  0  0  0
    1.0471   -0.6312   -0.2101 C   0  0  0  0  0  0  0  0  0  0  0  0
   -0.1719    0.2210    0.1530 C   0  0  0  0  0  0  0  0  0  0  0  0
   -1.5032   -0.4261   -0.2426 C   0  0  0  0  0  0  0  0  0  0  0  0
   -2.7262    0.3904    0.1844 C   0  0  0  0  0  0  0  0  0  0  0  0
   -4.0262   -0.3151   -0.2113 C   0  0  0  0  0  0  0  0  0  0  0  0
   -5.2858    0.4448    0.2148 C   0  0  0  0  0  0  0  0  0  0  0  0
   -6.5851   -0.2473   -0.2030 C   0  0  0  0  0  0  0  0  0  0  0  0
   -7.8077    0.5151    0.3100 C   0  0  0  0  0  0  0  0  0  0  0  0
   -9.1031   -0.1492   -0.1290 C   0  0  0  0  0  0  0  0  0  0  0  0
    4.8119    0.0365    1.4145 H   0  0  0  0  0  0  0  0  0  0  0  0
    6.2079   -1.8689    0.8406 H   0  0  0  0  0  0  0  0  0  0  0  0
    6.0925   -1.5143   -0.8906 H   0  0  0  0  0  0  0  0  0  0  0  0
    5.0712    0.9259   -1.5082 H   0  0  0  0  0  0  0  0  0  0  0  0
    4.6151    1.9306   -0.1209 H   0  0  0  0  0  0  0  0  0  0  0  0
    7.6945   -0.0656    1.2106 H   0  0  0  0  0  0  0  0  0  0  0  0
    8.0875   -0.3535   -0.4867 H   0  0  0  0  0  0  0  0  0  0  0  0
    7.2059    1.7601   -0.9908 H   0  0  0  0  0  0  0  0  0  0  0  0
    6.8176    1.9705    0.7191 H   0  0  0  0  0  0  0  0  0  0  0  0
    3.4754   -1.8204    0.3948 H   0  0  0  0  0  0  0  0  0  0  0  0
    3.6361   -1.0781   -1.1935 H   0  0  0  0  0  0  0  0  0  0  0  0
    2.3585    0.2643    1.2445 H   0  0  0  0  0  0  0  0  0  0  0  0
    2.4644    0.9725   -0.3649 H   0  0  0  0  0  0  0  0  0  0  0  0
    0.9651   -1.6034    0.2913 H   0  0  0  0  0  0  0  0  0  0  0  0
    1.0427   -0.8294   -1.2890 H   0  0  0  0  0  0  0  0  0  0  0  0
   -0.0892    1.1994   -0.3359 H   0  0  0  0  0  0  0  0  0  0  0  0
   -0.1694    0.4058    1.2343 H   0  0  0  0  0  0  0  0  0  0  0  0
   -1.5620   -1.4239    0.2098 H   0  0  0  0  0  0  0  0  0  0  0  0
   -1.5227   -0.5699   -1.3300 H   0  0  0  0  0  0  0  0  0  0  0  0
   -2.7066    0.5405    1.2704 H   0  0  0  0  0  0  0  0  0  0  0  0
   -2.6879    1.3822   -0.2812 H   0  0  0  0  0  0  0  0  0  0  0  0
   -4.0437   -0.4548   -1.2993 H   0  0  0  0  0  0  0  0  0  0  0  0
   -4.0462   -1.3164    0.2367 H   0  0  0  0  0  0  0  0  0  0  0  0
   -5.2599    1.4534   -0.2159 H   0  0  0  0  0  0  0  0  0  0  0  0
   -5.2741    0.5662    1.3052 H   0  0  0  0  0  0  0  0  0  0  0  0
   -6.6241   -0.3211   -1.2964 H   0  0  0  0  0  0  0  0  0  0  0  0
   -6.5993   -1.2707    0.1912 H   0  0  0  0  0  0  0  0  0  0  0  0
   -7.7822    0.5671    1.4046 H   0  0  0  0  0  0  0  0  0  0  0  0
   -7.7883    1.5452   -0.0646 H   0  0  0  0  0  0  0  0  0  0  0  0
   -9.9636    0.4115    0.2491 H   0  0  0  0  0  0  0  0  0  0  0  0
   -9.1687   -1.1723    0.2549 H   0  0  0  0  0  0  0  0  0  0  0  0
   -9.1747   -0.1861   -1.2207 H   0  0  0  0  0  0  0  0  0  0  0  0
  1  2  1  0  0  0  0
  1  3  1  0  0  0  0
  1  6  1  0  0  0  0
  1 17  1  0  0  0  0
  2  4  1  0  0  0  0
  2 18  1  0  0  0  0
  2 19  1  0  0  0  0
  3  5  1  0  0  0  0
  3 20  1  0  0  0  0
  3 21  1  0  0  0  0
  4  5  1  0  0  0  0
  4 22  1  0  0  0  0
  4 23  1  0  0  0  0
  5 24  1  0  0  0  0
  5 25  1  0  0  0  0
  6  7  1  0  0  0  0
  6 26  1  0  0  0  0
  6 27  1  0  0  0  0
  7  8  1  0  0  0  0
  7 28  1  0  0  0  0
  7 29  1  0  0  0  0
  8  9  1  0  0  0  0
  8 30  1  0  0  0  0
  8 31  1  0  0  0  0
  9 10  1  0  0  0  0
  9 32  1  0  0  0  0
  9 33  1  0  0  0  0
 10 11  1  0  0  0  0
 10 34  1  0  0  0  0
 10 35  1  0  0  0  0
 11 12  1  0  0  0  0
 11 36  1  0  0  0  0
 11 37  1  0  0  0  0
 12 13  1  0  0  0  0
 12 38  1  0  0  0  0
 12 39  1  0  0  0  0
 13 14  1  0  0  0  0
 13 40  1  0  0  0  0
 13 41  1  0  0  0  0
 14 15  1  0  0  0  0
 14 42  1  0  0  0  0
 14 43  1  0  0  0  0
 15 16  1  0  0  0  0
 15 44  1  0  0  0  0
 15 45  1  0  0  0  0
 16 46  1  0  0  0  0
 16 47  1  0  0  0  0
 16 48  1  0  0  0  0
M  END
> <PUBCHEM_COMPOUND_CID>
138830

> <PUBCHEM_CONFORMER_RMSD>
1.2

> <PUBCHEM_CONFORMER_DIVERSEORDER>
1
45
20
25
54
11
3
57
58
4
49
19
47
12
2
40
8
26
16
13
38
6
5
41
32
18
48
46
31
30
9
24
22
42
34
50
27
14
55
7
52
51
10
35
43
21
36
44
23
37
28
53
17
39
56
15
29
33

> <PUBCHEM_MMFF94_PARTIAL_CHARGES>
0

> <PUBCHEM_EFFECTIVE_ROTOR_COUNT>
11

> <PUBCHEM_PHARMACOPHORE_FEATURES>
2
1 16 hydrophobe
5 1 2 3 4 5 rings

> <PUBCHEM_HEAVY_ATOM_COUNT>
16

> <PUBCHEM_ATOM_DEF_STEREO_COUNT>
0

> <PUBCHEM_ATOM_UDEF_STEREO_COUNT>
0

> <PUBCHEM_BOND_DEF_STEREO_COUNT>
0

> <PUBCHEM_BOND_UDEF_STEREO_COUNT>
0

> <PUBCHEM_ISOTOPIC_ATOM_COUNT>
0

> <PUBCHEM_COMPONENT_COUNT>
1

> <PUBCHEM_CACTVS_TAUTO_COUNT>
1

> <PUBCHEM_CONFORMER_ID>
00021E4E00000001

> <PUBCHEM_MMFF94_ENERGY>
4.7485

> <PUBCHEM_FEATURE_SELFOVERLAP>
10.148

> <PUBCHEM_SHAPE_FINGERPRINT>
10299344 5 18273494576756898623
11315181 36 18343023299189707249
11638347 137 16732697230038158538
12091667 2 18343301466846466259
13533116 47 17022892407952175002
14123256 10 17418094312628795937
14251764 18 18202284697783916537
14251764 46 18342738516450017786
15419008 47 16588015827670687493
155225 1 18411138087444004756
15690457 1 11241970399466497209
15716309 27 18411417306855477231
16120349 18 18334856159939291397
17834076 25 17917711301020821742
18006028 8 18060136536094807913
20157964 124 18408886222730621166
20281389 69 18408321081626532108
20735858 18 14851603284516052297
21130983 4 18411984662944112753
21150785 3 17704072897936545573
21315763 28 18408885109542690328
22224240 67 17530964691911307611
232437 2 18411138030828370351
23521765 1 18341894090839332323
33684 2 18343582932278583698
4325135 7 18343865515230314853
59682541 35 18334577971266066355
67123 10 18410855477313305735
8209 1 18410855460128161795

> <PUBCHEM_SHAPE_MULTIPOLES>
329.27
28.55
1
0.67
32.4
0.09
0
2.8
-0.42
-1.42
0.04
-0.03
0.01
-0.45

> <PUBCHEM_SHAPE_SELFOVERLAP>
612.723

> <PUBCHEM_SHAPE_VOLUME>
204.9

> <PUBCHEM_COORDINATE_TYPE>
2
5
10

$$$$
