140704
  -OEChem-11012400433D

 46 51  0     0  0  0  0  0  0999 V2000
   -0.7270   -0.0331    0.2003 C   0  0  0  0  0  0  0  0  0  0  0  0
    0.7271    0.0327    0.2003 C   0  0  0  0  0  0  0  0  0  0  0  0
   -1.4456   -0.8964   -0.6308 C   0  0  0  0  0  0  0  0  0  0  0  0
    1.4456    0.8977   -0.6291 C   0  0  0  0  0  0  0  0  0  0  0  0
   -2.8640   -0.9109   -0.5802 C   0  0  0  0  0  0  0  0  0  0  0  0
    2.8640    0.9119   -0.5785 C   0  0  0  0  0  0  0  0  0  0  0  0
   -3.5435   -0.0291    0.3331 C   0  0  0  0  0  0  0  0  0  0  0  0
    3.5435    0.0284    0.3332 C   0  0  0  0  0  0  0  0  0  0  0  0
   -2.7782    0.8334    1.1609 C   0  0  0  0  0  0  0  0  0  0  0  0
    2.7782   -0.8356    1.1594 C   0  0  0  0  0  0  0  0  0  0  0  0
   -1.3833    0.8188    1.0825 C   0  0  0  0  0  0  0  0  0  0  0  0
    1.3834   -0.8208    1.0810 C   0  0  0  0  0  0  0  0  0  0  0  0
   -0.7529   -1.7447   -1.5115 C   0  0  0  0  0  0  0  0  0  0  0  0
    0.7529    1.7476   -1.5083 C   0  0  0  0  0  0  0  0  0  0  0  0
   -3.5227   -1.8131   -1.4526 C   0  0  0  0  0  0  0  0  0  0  0  0
    3.5226    1.8159   -1.4493 C   0  0  0  0  0  0  0  0  0  0  0  0
   -4.9527    0.0428    0.4699 C   0  0  0  0  0  0  0  0  0  0  0  0
    4.9527   -0.0436    0.4698 C   0  0  0  0  0  0  0  0  0  0  0  0
   -3.4111    1.7060    2.0627 C   0  0  0  0  0  0  0  0  0  0  0  0
    3.4111   -1.7099    2.0595 C   0  0  0  0  0  0  0  0  0  0  0  0
   -1.4361   -2.6170   -2.3531 C   0  0  0  0  0  0  0  0  0  0  0  0
    1.4361    2.6214   -2.3482 C   0  0  0  0  0  0  0  0  0  0  0  0
   -2.8216   -2.6514   -2.3237 C   0  0  0  0  0  0  0  0  0  0  0  0
    2.8216    2.6557   -2.3187 C   0  0  0  0  0  0  0  0  0  0  0  0
   -5.5692    0.9151    1.3708 C   0  0  0  0  0  0  0  0  0  0  0  0
    5.5692   -0.9177    1.3691 C   0  0  0  0  0  0  0  0  0  0  0  0
   -4.7980    1.7471    2.1673 C   0  0  0  0  0  0  0  0  0  0  0  0
    4.7979   -1.7511    2.1641 C   0  0  0  0  0  0  0  0  0  0  0  0
   -0.8041    1.4853    1.7223 H   0  0  0  0  0  0  0  0  0  0  0  0
    0.8042   -1.4885    1.7194 H   0  0  0  0  0  0  0  0  0  0  0  0
    0.3323   -1.7593   -1.5767 H   0  0  0  0  0  0  0  0  0  0  0  0
   -0.3322    1.7623   -1.5734 H   0  0  0  0  0  0  0  0  0  0  0  0
   -4.6072   -1.8838   -1.4735 H   0  0  0  0  0  0  0  0  0  0  0  0
    4.6071    1.8865   -1.4701 H   0  0  0  0  0  0  0  0  0  0  0  0
   -5.6079   -0.5853   -0.1283 H   0  0  0  0  0  0  0  0  0  0  0  0
    5.6078    0.5856   -0.1272 H   0  0  0  0  0  0  0  0  0  0  0  0
   -2.8239    2.3675    2.6973 H   0  0  0  0  0  0  0  0  0  0  0  0
    2.8239   -2.3725    2.6929 H   0  0  0  0  0  0  0  0  0  0  0  0
   -0.8874   -3.2664   -3.0285 H   0  0  0  0  0  0  0  0  0  0  0  0
    0.8873    3.2721   -3.0224 H   0  0  0  0  0  0  0  0  0  0  0  0
   -3.3637   -3.3290   -2.9769 H   0  0  0  0  0  0  0  0  0  0  0  0
    3.3637    3.3345   -2.9707 H   0  0  0  0  0  0  0  0  0  0  0  0
   -6.6524    0.9401    1.4456 H   0  0  0  0  0  0  0  0  0  0  0  0
    6.6524   -0.9428    1.4437 H   0  0  0  0  0  0  0  0  0  0  0  0
   -5.2722    2.4267    2.8687 H   0  0  0  0  0  0  0  0  0  0  0  0
    5.2722   -2.4320    2.8642 H   0  0  0  0  0  0  0  0  0  0  0  0
  1  2  1  0  0  0  0
  1  3  1  0  0  0  0
  1 11  2  0  0  0  0
  2  4  1  0  0  0  0
  2 12  2  0  0  0  0
  3  5  1  0  0  0  0
  3 13  2  0  0  0  0
  4  6  1  0  0  0  0
  4 14  2  0  0  0  0
  5  7  1  0  0  0  0
  5 15  2  0  0  0  0
  6  8  1  0  0  0  0
  6 16  2  0  0  0  0
  7  9  1  0  0  0  0
  7 17  2  0  0  0  0
  8 10  1  0  0  0  0
  8 18  2  0  0  0  0
  9 11  1  0  0  0  0
  9 19  2  0  0  0  0
 10 12  1  0  0  0  0
 10 20  2  0  0  0  0
 11 29  1  0  0  0  0
 12 30  1  0  0  0  0
 13 21  1  0  0  0  0
 13 31  1  0  0  0  0
 14 22  1  0  0  0  0
 14 32  1  0  0  0  0
 15 23  1  0  0  0  0
 15 33  1  0  0  0  0
 16 24  1  0  0  0  0
 16 34  1  0  0  0  0
 17 25  1  0  0  0  0
 17 35  1  0  0  0  0
 18 26  1  0  0  0  0
 18 36  1  0  0  0  0
 19 27  1  0  0  0  0
 19 37  1  0  0  0  0
 20 28  1  0  0  0  0
 20 38  1  0  0  0  0
 21 23  2  0  0  0  0
 21 39  1  0  0  0  0
 22 24  2  0  0  0  0
 22 40  1  0  0  0  0
 23 41  1  0  0  0  0
 24 42  1  0  0  0  0
 25 27  2  0  0  0  0
 25 43  1  0  0  0  0
 26 28  2  0  0  0  0
 26 44  1  0  0  0  0
 27 45  1  0  0  0  0
 28 46  1  0  0  0  0
M  END
> <PUBCHEM_COMPOUND_CID>
140704

> <PUBCHEM_CONFORMER_RMSD>
0.6

> <PUBCHEM_CONFORMER_DIVERSEORDER>
1
2

> <PUBCHEM_MMFF94_PARTIAL_CHARGES>
36
11 -0.15
12 -0.15
13 -0.15
14 -0.15
15 -0.15
16 -0.15
17 -0.15
18 -0.15
19 -0.15
20 -0.15
21 -0.15
22 -0.15
23 -0.15
24 -0.15
25 -0.15
26 -0.15
27 -0.15
28 -0.15
29 0.15
30 0.15
31 0.15
32 0.15
33 0.15
34 0.15
35 0.15
36 0.15
37 0.15
38 0.15
39 0.15
40 0.15
41 0.15
42 0.15
43 0.15
44 0.15
45 0.15
46 0.15

> <PUBCHEM_EFFECTIVE_ROTOR_COUNT>
1

> <PUBCHEM_PHARMACOPHORE_FEATURES>
6
6 1 3 5 7 9 11 rings
6 2 4 6 8 10 12 rings
6 3 5 13 15 21 23 rings
6 4 6 14 16 22 24 rings
6 7 9 17 19 25 27 rings
6 8 10 18 20 26 28 rings

> <PUBCHEM_HEAVY_ATOM_COUNT>
28

> <PUBCHEM_ATOM_DEF_STEREO_COUNT>
0

> <PUBCHEM_ATOM_UDEF_STEREO_COUNT>
0

> <PUBCHEM_BOND_DEF_STEREO_COUNT>
0

> <PUBCHEM_BOND_UDEF_STEREO_COUNT>
0

> <PUBCHEM_ISOTOPIC_ATOM_COUNT>
0

> <PUBCHEM_COMPONENT_COUNT>
1

> <PUBCHEM_CACTVS_TAUTO_COUNT>
1

> <PUBCHEM_CONFORMER_ID>
000225A000000001

> <PUBCHEM_MMFF94_ENERGY>
113.6273

> <PUBCHEM_FEATURE_SELFOVERLAP>
30.548

> <PUBCHEM_SHAPE_FINGERPRINT>
10319926 262 17131537393850377546
11049842 53 17988100927503884494
11578080 2 17979595156964928644
11640471 11 18266196095591281637
11725454 13 15697707121553479167
12107698 1 17895475835082582917
12128747 34 16733820862424100541
12160290 23 17345769623771845623
12236239 1 18410856568229724523
12422481 6 18194682553460326411
12553582 1 17894621527522042642
12633257 1 17894641339567914899
12788726 201 17982738768409938031
13009979 54 18268982245155417614
13583140 156 17970646283829771441
13617811 41 17917443012591320521
13673619 4 15719402689308834945
13726171 33 17413896519079300953
13911987 19 17095519570567884650
14294032 229 17988373585836051265
14415360 78 16884155188408512516
14739800 52 17772461537737800088
14840074 17 18334575720587424750
14950920 106 17822871826646544481
14955137 171 18336277747349109858
15131766 46 17752778097799395557
15328829 1 18338516446948104820
15842332 3 18338236092968459998
16752209 62 17845660373263001455
17357779 13 17096068222326510774
173720 79 18343868810182185807
17818456 19 18201723920540595472
17980427 23 18272079539667675996
17980427 26 17824843358074014516
1813 80 18115592530908018550
19319366 153 17753921576480041461
20505436 4 18120401961696648804
20511986 3 18410567413904840184
20554085 129 17345756275034114841
20739085 24 18187087217846927810
21033648 29 17417813872781714289
21756936 100 17902259997513458020
21792961 116 16153700978731898762
22122407 14 17967537840131214373
23175994 123 17167859725464807224
23557571 272 16702307892202888449
23559900 14 16916803872172139172
23598288 3 18198071467784108567
244849 19 16443331105187129461
24771293 8 18261947579506284744
25147074 1 18338516446948098213
46194498 28 14996294625897653438
50150288 127 17978262613581170707
513202 73 17755008701901975746
5265222 85 17202483480796017462
563151 74 17678481841672459112
633830 44 17899721199468803900
9658208 31 16916526782557386867
9849439 229 17415294840699263417
9981440 41 17845661348547885195

> <PUBCHEM_SHAPE_MULTIPOLES>
576.23
11.06
2.76
2.74
0
0.01
0.57
-0.01
-6.78
-0.01
1.97
0.01
0
-5.78

> <PUBCHEM_SHAPE_SELFOVERLAP>
1340.679

> <PUBCHEM_SHAPE_VOLUME>
267.5

> <PUBCHEM_COORDINATE_TYPE>
2
5
10

$$$$
