12572603
  -OEChem-11012400373D

 25 24  0     0  0  0  0  0  0999 V2000
   -2.8502   -0.2992   -0.1752 O   0  0  0  0  0  0  0  0  0  0  0  0
    2.8502   -0.2994   -0.1754 O   0  0  0  0  0  0  0  0  0  0  0  0
   -1.7010    1.8454   -0.7601 O   0  5  0  0  0  0  0  0  0  0  0  0
    1.7012    1.8459   -0.7599 O   0  5  0  0  0  0  0  0  0  0  0  0
   -1.2271    1.1029    0.1639 N   0  3  0  0  0  0  0  0  0  0  0  0
    1.2275    1.1033    0.1641 N   0  3  0  0  0  0  0  0  0  0  0  0
   -1.6966   -0.0076    0.5695 N   0  0  0  0  0  0  0  0  0  0  0  0
    1.6971   -0.0070    0.5699 N   0  0  0  0  0  0  0  0  0  0  0  0
    0.0000    1.5436    0.8521 C   0  0  0  0  0  0  0  0  0  0  0  0
   -3.3679   -1.5388    0.2829 C   0  0  0  0  0  0  0  0  0  0  0  0
    3.3677   -1.5389    0.2832 C   0  0  0  0  0  0  0  0  0  0  0  0
   -4.6148   -1.8747   -0.5072 C   0  0  0  0  0  0  0  0  0  0  0  0
    4.6140   -1.8755   -0.5076 C   0  0  0  0  0  0  0  0  0  0  0  0
    0.0000    1.1682    1.8816 H   0  0  0  0  0  0  0  0  0  0  0  0
   -0.0001    2.6385    0.8868 H   0  0  0  0  0  0  0  0  0  0  0  0
   -2.6170   -2.3248    0.1439 H   0  0  0  0  0  0  0  0  0  0  0  0
   -3.6122   -1.4641    1.3486 H   0  0  0  0  0  0  0  0  0  0  0  0
    3.6127   -1.4636    1.3487 H   0  0  0  0  0  0  0  0  0  0  0  0
    2.6164   -2.3249    0.1452 H   0  0  0  0  0  0  0  0  0  0  0  0
   -5.0409   -2.8269   -0.1789 H   0  0  0  0  0  0  0  0  0  0  0  0
   -5.3695   -1.0902   -0.3886 H   0  0  0  0  0  0  0  0  0  0  0  0
   -4.3881   -1.9389   -1.5765 H   0  0  0  0  0  0  0  0  0  0  0  0
    5.0402   -2.8276   -0.1791 H   0  0  0  0  0  0  0  0  0  0  0  0
    4.3865   -1.9403   -1.5768 H   0  0  0  0  0  0  0  0  0  0  0  0
    5.3689   -1.0912   -0.3900 H   0  0  0  0  0  0  0  0  0  0  0  0
  1  7  1  0  0  0  0
  1 10  1  0  0  0  0
  2  8  1  0  0  0  0
  2 11  1  0  0  0  0
  3  5  1  0  0  0  0
  4  6  1  0  0  0  0
  5  7  2  0  0  0  0
  5  9  1  0  0  0  0
  6  8  2  0  0  0  0
  6  9  1  0  0  0  0
  9 14  1  0  0  0  0
  9 15  1  0  0  0  0
 10 12  1  0  0  0  0
 10 16  1  0  0  0  0
 10 17  1  0  0  0  0
 11 13  1  0  0  0  0
 11 18  1  0  0  0  0
 11 19  1  0  0  0  0
 12 20  1  0  0  0  0
 12 21  1  0  0  0  0
 12 22  1  0  0  0  0
 13 23  1  0  0  0  0
 13 24  1  0  0  0  0
 13 25  1  0  0  0  0
M  CHG  4   3  -1   4  -1   5   1   6   1
M  END
> <PUBCHEM_COMPOUND_CID>
12572603

> <PUBCHEM_CONFORMER_RMSD>
0.6

> <PUBCHEM_CONFORMER_DIVERSEORDER>
1
93
247
207
120
111
28
302
250
245
261
2
271
29
10
290
132
275
141
277
228
293
21
205
3
81
20
117
91
284
182
185
171
215
158
148
17
122
264
9
300
270
274
18
101
180
19
71
70
301
112
123
32
256
288
97
299
229
251
25
119
138
107
51
257
291
31
99
77
130
183
252
41
297
255
202
35
153
60
201
149
268
285
96
262
42
52
248
172
139
298
170
16
272
244
116
58
176
88
134
144
66
200
254
220
203
281
95
87
191
74
12
289
177
169
269
263
131
143
186
221
43
155
59
147
278
178
30
79
69
283
110
204
34
294
80
118
85
282
211
33
127
195
13
190
242
56
193
146
48
157
50
233
114
40
237
54
64
159
287
55
100
236
126
38
75
15
166
296
36
4
173
124
65
94
219
184
280
11
179
23
165
73
206
218
24
253
249
232
145
8
216
98
279
241
82
78
57
108
83
7
243
6
168
267
163
14
292
136
22
154
86
53
63
121
103
106
259
181
266
187
61
235
47
135
37
62
113
164
27
223
210
156
198
46
125
151
175
142
273
240
115
26
224
227
196
129
161
39
150
199
209
137
239
225
208
234
162
214
276
188
49
222
5
174
258
140
194
189
246
238
76
226
212
89
230
265
68
152
217
102
92
105
90
231
84
72
67
260
286
45
213
109
197
133
295
44
167
104
160
192
128

> <PUBCHEM_MMFF94_PARTIAL_CHARGES>
11
1 -0.22
10 0.28
11 0.28
2 -0.22
3 -0.63
4 -0.63
5 0.74
6 0.74
7 -0.27
8 -0.27
9 0.2

> <PUBCHEM_EFFECTIVE_ROTOR_COUNT>
6

> <PUBCHEM_PHARMACOPHORE_FEATURES>
2
1 3 anion
1 4 anion

> <PUBCHEM_HEAVY_ATOM_COUNT>
13

> <PUBCHEM_ATOM_DEF_STEREO_COUNT>
0

> <PUBCHEM_ATOM_UDEF_STEREO_COUNT>
0

> <PUBCHEM_BOND_DEF_STEREO_COUNT>
2

> <PUBCHEM_BOND_UDEF_STEREO_COUNT>
0

> <PUBCHEM_ISOTOPIC_ATOM_COUNT>
0

> <PUBCHEM_COMPONENT_COUNT>
1

> <PUBCHEM_CACTVS_TAUTO_COUNT>
1

> <PUBCHEM_CONFORMER_ID>
00BFD7BB00000001

> <PUBCHEM_MMFF94_ENERGY>
9.4502

> <PUBCHEM_FEATURE_SELFOVERLAP>
10.149

> <PUBCHEM_SHAPE_FINGERPRINT>
11806522 49 18409730673293108168
14251710 61 18342740693608417014
14251731 5 18412263956262358687
15477762 27 18336265734151600264
19107657 162 17987515910340759422
20281475 54 18341055193843509217
20388580 30 18409452509319477398
20621476 21 17344363155332497814
20645477 70 18190734422502370107
20671657 53 18187082853811989094
20871998 22 18340763849005702121
20871999 31 18114464453099043270
23403322 49 18411698742613298015
27216 239 9510873986595446623
4416823 128 18412262843707398099
8199 26 8358262544320730599

> <PUBCHEM_SHAPE_MULTIPOLES>
224.13
8.6
2.47
0.81
0
0.03
0.01
-8.99
1.38
0
0.33
0
0.14
0

> <PUBCHEM_SHAPE_SELFOVERLAP>
411.099

> <PUBCHEM_SHAPE_VOLUME>
142

> <PUBCHEM_COORDINATE_TYPE>
2
5
10

$$$$
