75560
  -OEChem-10312420342D

 72 72  0     0  0  0  0  0  0999 V2000
    8.9282    2.5000    0.0000 O   0  0  0  0  0  0  0  0  0  0  0  0
    5.4641    0.5000    0.0000 O   0  0  0  0  0  0  0  0  0  0  0  0
   10.6603   -0.5000    0.0000 O   0  0  0  0  0  0  0  0  0  0  0  0
    7.1962   -2.5000    0.0000 O   0  0  0  0  0  0  0  0  0  0  0  0
    7.1962    2.5000    0.0000 O   0  0  0  0  0  0  0  0  0  0  0  0
    6.3301    2.0000    0.0000 O   0  0  0  0  0  0  0  0  0  0  0  0
    9.7942   -2.0000    0.0000 O   0  0  0  0  0  0  0  0  0  0  0  0
    8.9282   -2.5000    0.0000 O   0  0  0  0  0  0  0  0  0  0  0  0
    8.0622    1.0000    0.0000 C   0  0  0  0  0  0  0  0  0  0  0  0
    7.1962    0.5000    0.0000 C   0  0  0  0  0  0  0  0  0  0  0  0
    8.9282   -0.5000    0.0000 C   0  0  0  0  0  0  0  0  0  0  0  0
    8.0622   -1.0000    0.0000 C   0  0  0  0  0  0  0  0  0  0  0  0
    8.9282    0.5000    0.0000 C   0  0  0  0  0  0  0  0  0  0  0  0
    7.1962   -0.5000    0.0000 C   0  0  0  0  0  0  0  0  0  0  0  0
    9.7942    4.0000    0.0000 C   0  0  0  0  0  0  0  0  0  0  0  0
    3.7320    0.5000    0.0000 C   0  0  0  0  0  0  0  0  0  0  0  0
   12.3923   -0.5000    0.0000 C   0  0  0  0  0  0  0  0  0  0  0  0
    6.3301   -4.0000    0.0000 C   0  0  0  0  0  0  0  0  0  0  0  0
    8.9282    3.5000    0.0000 C   0  0  0  0  0  0  0  0  0  0  0  0
    4.5981    1.0000    0.0000 C   0  0  0  0  0  0  0  0  0  0  0  0
   11.5263   -1.0000    0.0000 C   0  0  0  0  0  0  0  0  0  0  0  0
    7.1962   -3.5000    0.0000 C   0  0  0  0  0  0  0  0  0  0  0  0
    8.0622    2.0000    0.0000 C   0  0  0  0  0  0  0  0  0  0  0  0
    6.3301    1.0000    0.0000 C   0  0  0  0  0  0  0  0  0  0  0  0
    9.7942   -1.0000    0.0000 C   0  0  0  0  0  0  0  0  0  0  0  0
    8.0622   -2.0000    0.0000 C   0  0  0  0  0  0  0  0  0  0  0  0
    9.7942    5.0000    0.0000 C   0  0  0  0  0  0  0  0  0  0  0  0
    2.8660    1.0000    0.0000 C   0  0  0  0  0  0  0  0  0  0  0  0
   13.2583   -1.0000    0.0000 C   0  0  0  0  0  0  0  0  0  0  0  0
    6.3301   -5.0000    0.0000 C   0  0  0  0  0  0  0  0  0  0  0  0
   10.6603    5.5000    0.0000 C   0  0  0  0  0  0  0  0  0  0  0  0
    2.0000    0.5000    0.0000 C   0  0  0  0  0  0  0  0  0  0  0  0
   14.1244   -0.5000    0.0000 C   0  0  0  0  0  0  0  0  0  0  0  0
    5.4641   -5.5000    0.0000 C   0  0  0  0  0  0  0  0  0  0  0  0
    9.4651    0.8100    0.0000 H   0  0  0  0  0  0  0  0  0  0  0  0
    6.6592   -0.8100    0.0000 H   0  0  0  0  0  0  0  0  0  0  0  0
   10.0063    3.4174    0.0000 H   0  0  0  0  0  0  0  0  0  0  0  0
   10.4048    4.1077    0.0000 H   0  0  0  0  0  0  0  0  0  0  0  0
    3.3335    0.0251    0.0000 H   0  0  0  0  0  0  0  0  0  0  0  0
    4.1306    0.0251    0.0000 H   0  0  0  0  0  0  0  0  0  0  0  0
   12.7908   -0.0251    0.0000 H   0  0  0  0  0  0  0  0  0  0  0  0
   11.9938   -0.0251    0.0000 H   0  0  0  0  0  0  0  0  0  0  0  0
    6.1181   -3.4174    0.0000 H   0  0  0  0  0  0  0  0  0  0  0  0
    5.7196   -4.1077    0.0000 H   0  0  0  0  0  0  0  0  0  0  0  0
    8.7162    4.0826    0.0000 H   0  0  0  0  0  0  0  0  0  0  0  0
    8.3176    3.3923    0.0000 H   0  0  0  0  0  0  0  0  0  0  0  0
    4.9966    1.4750    0.0000 H   0  0  0  0  0  0  0  0  0  0  0  0
    4.1996    1.4750    0.0000 H   0  0  0  0  0  0  0  0  0  0  0  0
   11.1278   -1.4750    0.0000 H   0  0  0  0  0  0  0  0  0  0  0  0
   11.9248   -1.4750    0.0000 H   0  0  0  0  0  0  0  0  0  0  0  0
    7.4082   -4.0826    0.0000 H   0  0  0  0  0  0  0  0  0  0  0  0
    7.8067   -3.3923    0.0000 H   0  0  0  0  0  0  0  0  0  0  0  0
    9.5822    5.5826    0.0000 H   0  0  0  0  0  0  0  0  0  0  0  0
    9.1836    4.8923    0.0000 H   0  0  0  0  0  0  0  0  0  0  0  0
    3.2646    1.4750    0.0000 H   0  0  0  0  0  0  0  0  0  0  0  0
    2.4675    1.4750    0.0000 H   0  0  0  0  0  0  0  0  0  0  0  0
   12.8598   -1.4750    0.0000 H   0  0  0  0  0  0  0  0  0  0  0  0
   13.6569   -1.4750    0.0000 H   0  0  0  0  0  0  0  0  0  0  0  0
    6.5422   -5.5826    0.0000 H   0  0  0  0  0  0  0  0  0  0  0  0
    6.9407   -4.8923    0.0000 H   0  0  0  0  0  0  0  0  0  0  0  0
   10.9703    4.9631    0.0000 H   0  0  0  0  0  0  0  0  0  0  0  0
   11.1972    5.8100    0.0000 H   0  0  0  0  0  0  0  0  0  0  0  0
   10.3503    6.0369    0.0000 H   0  0  0  0  0  0  0  0  0  0  0  0
    1.6900    1.0369    0.0000 H   0  0  0  0  0  0  0  0  0  0  0  0
    1.4631    0.1900    0.0000 H   0  0  0  0  0  0  0  0  0  0  0  0
    2.3100   -0.0369    0.0000 H   0  0  0  0  0  0  0  0  0  0  0  0
   14.4344   -1.0369    0.0000 H   0  0  0  0  0  0  0  0  0  0  0  0
   14.6613   -0.1900    0.0000 H   0  0  0  0  0  0  0  0  0  0  0  0
   13.8144    0.0369    0.0000 H   0  0  0  0  0  0  0  0  0  0  0  0
    5.1541   -4.9631    0.0000 H   0  0  0  0  0  0  0  0  0  0  0  0
    4.9272   -5.8100    0.0000 H   0  0  0  0  0  0  0  0  0  0  0  0
    5.7741   -6.0369    0.0000 H   0  0  0  0  0  0  0  0  0  0  0  0
  1 19  1  0  0  0  0
  1 23  1  0  0  0  0
  2 20  1  0  0  0  0
  2 24  1  0  0  0  0
  3 21  1  0  0  0  0
  3 25  1  0  0  0  0
  4 22  1  0  0  0  0
  4 26  1  0  0  0  0
  5 23  2  0  0  0  0
  6 24  2  0  0  0  0
  7 25  2  0  0  0  0
  8 26  2  0  0  0  0
  9 10  2  0  0  0  0
  9 13  1  0  0  0  0
  9 23  1  0  0  0  0
 10 14  1  0  0  0  0
 10 24  1  0  0  0  0
 11 12  1  0  0  0  0
 11 13  2  0  0  0  0
 11 25  1  0  0  0  0
 12 14  2  0  0  0  0
 12 26  1  0  0  0  0
 13 35  1  0  0  0  0
 14 36  1  0  0  0  0
 15 19  1  0  0  0  0
 15 27  1  0  0  0  0
 15 37  1  0  0  0  0
 15 38  1  0  0  0  0
 16 20  1  0  0  0  0
 16 28  1  0  0  0  0
 16 39  1  0  0  0  0
 16 40  1  0  0  0  0
 17 21  1  0  0  0  0
 17 29  1  0  0  0  0
 17 41  1  0  0  0  0
 17 42  1  0  0  0  0
 18 22  1  0  0  0  0
 18 30  1  0  0  0  0
 18 43  1  0  0  0  0
 18 44  1  0  0  0  0
 19 45  1  0  0  0  0
 19 46  1  0  0  0  0
 20 47  1  0  0  0  0
 20 48  1  0  0  0  0
 21 49  1  0  0  0  0
 21 50  1  0  0  0  0
 22 51  1  0  0  0  0
 22 52  1  0  0  0  0
 27 31  1  0  0  0  0
 27 53  1  0  0  0  0
 27 54  1  0  0  0  0
 28 32  1  0  0  0  0
 28 55  1  0  0  0  0
 28 56  1  0  0  0  0
 29 33  1  0  0  0  0
 29 57  1  0  0  0  0
 29 58  1  0  0  0  0
 30 34  1  0  0  0  0
 30 59  1  0  0  0  0
 30 60  1  0  0  0  0
 31 61  1  0  0  0  0
 31 62  1  0  0  0  0
 31 63  1  0  0  0  0
 32 64  1  0  0  0  0
 32 65  1  0  0  0  0
 32 66  1  0  0  0  0
 33 67  1  0  0  0  0
 33 68  1  0  0  0  0
 33 69  1  0  0  0  0
 34 70  1  0  0  0  0
 34 71  1  0  0  0  0
 34 72  1  0  0  0  0
M  END
> <PUBCHEM_COMPOUND_CID>
75560

> <PUBCHEM_COMPOUND_CANONICALIZED>
1

> <PUBCHEM_CACTVS_COMPLEXITY>
526

> <PUBCHEM_CACTVS_HBOND_ACCEPTOR>
8

> <PUBCHEM_CACTVS_HBOND_DONOR>
0

> <PUBCHEM_CACTVS_ROTATABLE_BOND>
20

> <PUBCHEM_CACTVS_SUBSKEYS>
AAADcfB4PAAAAAAAAAAAAAAAAAAAAAAAAAAwAAAAAAAAAAABAAAAGgAAAAAADACgmAIyCIAABACIAiDSCAACAAAkAAAAiAEACMgIJjKANBiCMQAkwAEIqYfL7viOwAACAAAQAACAAAQAACAAAAAAAAAAAA==

> <PUBCHEM_IUPAC_OPENEYE_NAME>
tetrabutyl benzene-1,2,4,5-tetracarboxylate

> <PUBCHEM_IUPAC_CAS_NAME>
benzene-1,2,4,5-tetracarboxylic acid tetrabutyl ester

> <PUBCHEM_IUPAC_NAME_MARKUP>
tetrabutyl benzene-1,2,4,5-tetracarboxylate

> <PUBCHEM_IUPAC_NAME>
tetrabutyl benzene-1,2,4,5-tetracarboxylate

> <PUBCHEM_IUPAC_SYSTEMATIC_NAME>
tetrabutyl benzene-1,2,4,5-tetracarboxylate

> <PUBCHEM_IUPAC_TRADITIONAL_NAME>
benzene-1,2,4,5-tetracarboxylic acid tetrabutyl ester

> <PUBCHEM_IUPAC_INCHI>
InChI=1S/C26H38O8/c1-5-9-13-31-23(27)19-17-21(25(29)33-15-11-7-3)22(26(30)34-16-12-8-4)18-20(19)24(28)32-14-10-6-2/h17-18H,5-16H2,1-4H3

> <PUBCHEM_IUPAC_INCHIKEY>
REPPSPNSOPYUCD-UHFFFAOYSA-N

> <PUBCHEM_XLOGP3_AA>
6.3

> <PUBCHEM_EXACT_MASS>
478.25666817

> <PUBCHEM_MOLECULAR_FORMULA>
C26H38O8

> <PUBCHEM_MOLECULAR_WEIGHT>
478.6

> <PUBCHEM_OPENEYE_CAN_SMILES>
CCCCOC(=O)C1=CC(=C(C=C1C(=O)OCCCC)C(=O)OCCCC)C(=O)OCCCC

> <PUBCHEM_OPENEYE_ISO_SMILES>
CCCCOC(=O)C1=CC(=C(C=C1C(=O)OCCCC)C(=O)OCCCC)C(=O)OCCCC

> <PUBCHEM_CACTVS_TPSA>
105

> <PUBCHEM_MONOISOTOPIC_WEIGHT>
478.25666817

> <PUBCHEM_TOTAL_CHARGE>
0

> <PUBCHEM_HEAVY_ATOM_COUNT>
34

> <PUBCHEM_ATOM_DEF_STEREO_COUNT>
0

> <PUBCHEM_ATOM_UDEF_STEREO_COUNT>
0

> <PUBCHEM_BOND_DEF_STEREO_COUNT>
0

> <PUBCHEM_BOND_UDEF_STEREO_COUNT>
0

> <PUBCHEM_ISOTOPIC_ATOM_COUNT>
0

> <PUBCHEM_COMPONENT_COUNT>
1

> <PUBCHEM_CACTVS_TAUTO_COUNT>
-1

> <PUBCHEM_COORDINATE_TYPE>
1
5
255

> <PUBCHEM_BONDANNOTATIONS>
10  14  8
11  12  8
11  13  8
12  14  8
9  10  8
9  13  8

$$$$
