198394
  -OEChem-11012401023D

 28 29  0     0  0  0  0  0  0999 V2000
    0.2794    1.5837   -0.0074 O   0  0  0  0  0  0  0  0  0  0  0  0
   -0.1695   -0.4135    1.1913 O   0  0  0  0  0  0  0  0  0  0  0  0
   -0.1758   -0.4270   -1.1809 O   0  0  0  0  0  0  0  0  0  0  0  0
    1.9447   -0.1959   -0.0017 C   0  0  0  0  0  0  0  0  0  0  0  0
   -0.4471    0.3436    0.0016 C   0  0  0  0  0  0  0  0  0  0  0  0
    1.6903    1.3229   -0.0099 C   0  0  0  0  0  0  0  0  0  0  0  0
    1.2232   -0.7559    1.2381 C   0  0  0  0  0  0  0  0  0  0  0  0
    1.2166   -0.7702   -1.2310 C   0  0  0  0  0  0  0  0  0  0  0  0
    3.4290   -0.5305   -0.0037 C   0  0  0  0  0  0  0  0  0  0  0  0
   -1.9303    0.6782    0.0036 C   0  0  0  0  0  0  0  0  0  0  0  0
   -2.7888   -0.5849    0.0132 C   0  0  0  0  0  0  0  0  0  0  0  0
   -4.2716   -0.2504   -0.0133 C   0  0  0  0  0  0  0  0  0  0  0  0
    2.1241    1.8095    0.8708 H   0  0  0  0  0  0  0  0  0  0  0  0
    2.1191    1.7991   -0.8986 H   0  0  0  0  0  0  0  0  0  0  0  0
    1.2997   -1.8476    1.2908 H   0  0  0  0  0  0  0  0  0  0  0  0
    1.6392   -0.3478    2.1660 H   0  0  0  0  0  0  0  0  0  0  0  0
    1.6278   -0.3730   -2.1657 H   0  0  0  0  0  0  0  0  0  0  0  0
    1.2927   -1.8625   -1.2712 H   0  0  0  0  0  0  0  0  0  0  0  0
    3.9283   -0.1137    0.8777 H   0  0  0  0  0  0  0  0  0  0  0  0
    3.5888   -1.6142    0.0022 H   0  0  0  0  0  0  0  0  0  0  0  0
    3.9236   -0.1240   -0.8924 H   0  0  0  0  0  0  0  0  0  0  0  0
   -2.1745    1.2808   -0.8806 H   0  0  0  0  0  0  0  0  0  0  0  0
   -2.1718    1.2919    0.8808 H   0  0  0  0  0  0  0  0  0  0  0  0
   -2.5824   -1.1826    0.9083 H   0  0  0  0  0  0  0  0  0  0  0  0
   -2.5603   -1.2131   -0.8552 H   0  0  0  0  0  0  0  0  0  0  0  0
   -4.5547    0.3467    0.8594 H   0  0  0  0  0  0  0  0  0  0  0  0
   -4.5307    0.3138   -0.9148 H   0  0  0  0  0  0  0  0  0  0  0  0
   -4.8679   -1.1682   -0.0044 H   0  0  0  0  0  0  0  0  0  0  0  0
  1  5  1  0  0  0  0
  1  6  1  0  0  0  0
  2  5  1  0  0  0  0
  2  7  1  0  0  0  0
  3  5  1  0  0  0  0
  3  8  1  0  0  0  0
  4  6  1  0  0  0  0
  4  7  1  0  0  0  0
  4  8  1  0  0  0  0
  4  9  1  0  0  0  0
  5 10  1  0  0  0  0
  6 13  1  0  0  0  0
  6 14  1  0  0  0  0
  7 15  1  0  0  0  0
  7 16  1  0  0  0  0
  8 17  1  0  0  0  0
  8 18  1  0  0  0  0
  9 19  1  0  0  0  0
  9 20  1  0  0  0  0
  9 21  1  0  0  0  0
 10 11  1  0  0  0  0
 10 22  1  0  0  0  0
 10 23  1  0  0  0  0
 11 12  1  0  0  0  0
 11 24  1  0  0  0  0
 11 25  1  0  0  0  0
 12 26  1  0  0  0  0
 12 27  1  0  0  0  0
 12 28  1  0  0  0  0
M  END
> <PUBCHEM_COMPOUND_CID>
198394

> <PUBCHEM_CONFORMER_RMSD>
0.6

> <PUBCHEM_CONFORMER_DIVERSEORDER>
1
2

> <PUBCHEM_MMFF94_PARTIAL_CHARGES>
7
1 -0.56
2 -0.56
3 -0.56
5 0.84
6 0.28
7 0.28
8 0.28

> <PUBCHEM_EFFECTIVE_ROTOR_COUNT>
3.2

> <PUBCHEM_PHARMACOPHORE_FEATURES>
5
1 1 acceptor
1 12 hydrophobe
1 2 acceptor
1 3 acceptor
8 1 2 3 4 5 6 7 8 rings

> <PUBCHEM_HEAVY_ATOM_COUNT>
12

> <PUBCHEM_ATOM_DEF_STEREO_COUNT>
0

> <PUBCHEM_ATOM_UDEF_STEREO_COUNT>
0

> <PUBCHEM_BOND_DEF_STEREO_COUNT>
0

> <PUBCHEM_BOND_UDEF_STEREO_COUNT>
0

> <PUBCHEM_ISOTOPIC_ATOM_COUNT>
0

> <PUBCHEM_COMPONENT_COUNT>
1

> <PUBCHEM_CACTVS_TAUTO_COUNT>
1

> <PUBCHEM_CONFORMER_ID>
000306FA00000001

> <PUBCHEM_MMFF94_ENERGY>
32.4718

> <PUBCHEM_FEATURE_SELFOVERLAP>
25.481

> <PUBCHEM_SHAPE_FINGERPRINT>
10219947 1 18060138747311543877
11062470 55 13190340166766711303
12423570 1 15073102981671102236
12932764 1 17967805059889169727
14344429 50 18187086173779588677
14993402 34 18131077055987800788
16945 1 18410584976241838928
20201158 50 18343868809844913551
21293036 1 14706930639723722055
23402539 116 18341886377447301565
23402655 69 11458694046118113091
29004967 10 18201443549354538634
5084963 1 17917713482832546682
528886 8 18131630118710105332
5337951 7 18260553371878695896
68250623 7 18050849115492497246

> <PUBCHEM_SHAPE_MULTIPOLES>
229.35
5.21
1.15
1.05
4.57
0.39
-0.01
-1.01
0.02
-0.32
0.01
-0.3
-0.28
0

> <PUBCHEM_SHAPE_SELFOVERLAP>
471.082

> <PUBCHEM_SHAPE_VOLUME>
132.5

> <PUBCHEM_COORDINATE_TYPE>
2
5
10

$$$$
