69466
  -OEChem-11012400303D

 20 19  0     1  0  0  0  0  0999 V2000
   -2.4379   -0.7834   -1.1282 O   0  0  0  0  0  0  0  0  0  0  0  0
   -2.0623   -1.0862    1.0884 O   0  0  0  0  0  0  0  0  0  0  0  0
    2.9114   -0.1965    0.9752 O   0  0  0  0  0  0  0  0  0  0  0  0
    2.4818    0.1481   -1.2291 O   0  0  0  0  0  0  0  0  0  0  0  0
   -0.3645    0.0337   -0.2556 C   0  0  1  0  0  0  0  0  0  0  0  0
   -0.3441    1.3739    0.5029 C   0  0  0  0  0  0  0  0  0  0  0  0
    0.7878   -0.8969    0.1446 C   0  0  0  0  0  0  0  0  0  0  0  0
   -1.4160    2.3473    0.0354 C   0  0  0  0  0  0  0  0  0  0  0  0
   -1.6874   -0.6740   -0.0016 C   0  0  0  0  0  0  0  0  0  0  0  0
    2.1312   -0.2661   -0.1320 C   0  0  0  0  0  0  0  0  0  0  0  0
   -0.2839    0.2429   -1.3307 H   0  0  0  0  0  0  0  0  0  0  0  0
   -0.4711    1.1990    1.5785 H   0  0  0  0  0  0  0  0  0  0  0  0
    0.6289    1.8614    0.3746 H   0  0  0  0  0  0  0  0  0  0  0  0
    0.7192   -1.1478    1.2105 H   0  0  0  0  0  0  0  0  0  0  0  0
    0.7399   -1.8456   -0.4023 H   0  0  0  0  0  0  0  0  0  0  0  0
   -2.4217    1.9638    0.2317 H   0  0  0  0  0  0  0  0  0  0  0  0
   -1.3247    2.5446   -1.0374 H   0  0  0  0  0  0  0  0  0  0  0  0
   -1.3149    3.3004    0.5644 H   0  0  0  0  0  0  0  0  0  0  0  0
   -3.2940   -1.2299   -0.9551 H   0  0  0  0  0  0  0  0  0  0  0  0
    3.7792    0.2200    0.7859 H   0  0  0  0  0  0  0  0  0  0  0  0
  1  9  1  0  0  0  0
  1 19  1  0  0  0  0
  2  9  2  0  0  0  0
  3 10  1  0  0  0  0
  3 20  1  0  0  0  0
  4 10  2  0  0  0  0
  5  6  1  0  0  0  0
  5  7  1  0  0  0  0
  5  9  1  0  0  0  0
  5 11  1  0  0  0  0
  6  8  1  0  0  0  0
  6 12  1  0  0  0  0
  6 13  1  0  0  0  0
  7 10  1  0  0  0  0
  7 14  1  0  0  0  0
  7 15  1  0  0  0  0
  8 16  1  0  0  0  0
  8 17  1  0  0  0  0
  8 18  1  0  0  0  0
M  END
> <PUBCHEM_COMPOUND_CID>
69466

> <PUBCHEM_CONFORMER_RMSD>
0.6

> <PUBCHEM_CONFORMER_DIVERSEORDER>
1
30
7
29
16
34
13
22
3
5
15
32
4
6
25
27
9
14
31
23
12
21
2
18
33
24
20
26
19
8
28
10
17
11

> <PUBCHEM_MMFF94_PARTIAL_CHARGES>
10
1 -0.65
10 0.66
19 0.5
2 -0.57
20 0.5
3 -0.65
4 -0.57
5 0.06
7 0.06
9 0.66

> <PUBCHEM_EFFECTIVE_ROTOR_COUNT>
4

> <PUBCHEM_PHARMACOPHORE_FEATURES>
7
1 1 acceptor
1 2 acceptor
1 3 acceptor
1 4 acceptor
1 8 hydrophobe
3 1 2 9 anion
3 3 4 10 anion

> <PUBCHEM_HEAVY_ATOM_COUNT>
10

> <PUBCHEM_ATOM_DEF_STEREO_COUNT>
0

> <PUBCHEM_ATOM_UDEF_STEREO_COUNT>
1

> <PUBCHEM_BOND_DEF_STEREO_COUNT>
0

> <PUBCHEM_BOND_UDEF_STEREO_COUNT>
0

> <PUBCHEM_ISOTOPIC_ATOM_COUNT>
0

> <PUBCHEM_COMPONENT_COUNT>
1

> <PUBCHEM_CACTVS_TAUTO_COUNT>
1

> <PUBCHEM_CONFORMER_ID>
00010F5A00000001

> <PUBCHEM_MMFF94_ENERGY>
9.4799

> <PUBCHEM_FEATURE_SELFOVERLAP>
35.639

> <PUBCHEM_SHAPE_FINGERPRINT>
1 1 17112689294342532757
100427 49 18268717288622855825
10857977 72 18342737467903095322
12932741 1 17560800957869724788
12932764 1 17917717868390015726
21040471 1 17979358555827040896
23235687 12 17275106145657340910
23552423 10 18189622635552139438
29004967 10 18340210790082356098
3248919 1 18114181908786472854
5084963 1 17846787299482209750
8030462 33 18335421231875263758
81228 2 18340772550625307097

> <PUBCHEM_SHAPE_MULTIPOLES>
182.32
3.75
1.7
1.01
2
1.12
-0.06
-0.58
-0.15
-1.39
0.12
0.09
-0.16
-0.08

> <PUBCHEM_SHAPE_SELFOVERLAP>
345.747

> <PUBCHEM_SHAPE_VOLUME>
112.3

> <PUBCHEM_COORDINATE_TYPE>
2
5
10

$$$$
