29858
  -OEChem-11012401223D

 15 16  0     0  0  0  0  0  0999 V2000
    3.7504   -0.8968    0.0006 Cl  0  0  0  0  0  0  0  0  0  0  0  0
   -1.4046   -1.2442   -0.0001 O   0  0  0  0  0  0  0  0  0  0  0  0
   -3.5588   -0.4023    0.0003 O   0  0  0  0  0  0  0  0  0  0  0  0
   -1.7221    1.0321    0.0002 N   0  0  0  0  0  0  0  0  0  0  0  0
   -0.3707    0.8095   -0.0002 C   0  0  0  0  0  0  0  0  0  0  0  0
   -0.1999   -0.5581   -0.0003 C   0  0  0  0  0  0  0  0  0  0  0  0
    0.6823    1.6959   -0.0001 C   0  0  0  0  0  0  0  0  0  0  0  0
    1.0565   -1.1240   -0.0004 C   0  0  0  0  0  0  0  0  0  0  0  0
    1.9657    1.1444   -0.0001 C   0  0  0  0  0  0  0  0  0  0  0  0
    2.1516   -0.2536   -0.0001 C   0  0  0  0  0  0  0  0  0  0  0  0
   -2.3504   -0.2028    0.0001 C   0  0  0  0  0  0  0  0  0  0  0  0
   -2.1697    1.9400    0.0005 H   0  0  0  0  0  0  0  0  0  0  0  0
    0.5322    2.7687    0.0001 H   0  0  0  0  0  0  0  0  0  0  0  0
    1.1831   -2.2012   -0.0004 H   0  0  0  0  0  0  0  0  0  0  0  0
    2.8249    1.8116    0.0002 H   0  0  0  0  0  0  0  0  0  0  0  0
  1 10  1  0  0  0  0
  2  6  1  0  0  0  0
  2 11  1  0  0  0  0
  3 11  2  0  0  0  0
  4  5  1  0  0  0  0
  4 11  1  0  0  0  0
  4 12  1  0  0  0  0
  5  6  2  0  0  0  0
  5  7  1  0  0  0  0
  6  8  1  0  0  0  0
  7  9  2  0  0  0  0
  7 13  1  0  0  0  0
  8 10  2  0  0  0  0
  8 14  1  0  0  0  0
  9 10  1  0  0  0  0
  9 15  1  0  0  0  0
M  END
> <PUBCHEM_COMPOUND_CID>
29858

> <PUBCHEM_CONFORMER_RMSD>
0.4

> <PUBCHEM_CONFORMER_DIVERSEORDER>
1

> <PUBCHEM_MMFF94_PARTIAL_CHARGES>
15
1 -0.18
10 0.18
11 0.78
12 0.37
13 0.15
14 0.15
15 0.15
2 -0.23
3 -0.57
4 -0.55
5 0.12
6 0.08
7 -0.15
8 -0.15
9 -0.15

> <PUBCHEM_EFFECTIVE_ROTOR_COUNT>
0

> <PUBCHEM_PHARMACOPHORE_FEATURES>
4
1 3 acceptor
1 4 donor
5 2 4 5 6 11 rings
6 5 6 7 8 9 10 rings

> <PUBCHEM_HEAVY_ATOM_COUNT>
11

> <PUBCHEM_ATOM_DEF_STEREO_COUNT>
0

> <PUBCHEM_ATOM_UDEF_STEREO_COUNT>
0

> <PUBCHEM_BOND_DEF_STEREO_COUNT>
0

> <PUBCHEM_BOND_UDEF_STEREO_COUNT>
0

> <PUBCHEM_ISOTOPIC_ATOM_COUNT>
0

> <PUBCHEM_COMPONENT_COUNT>
1

> <PUBCHEM_CACTVS_TAUTO_COUNT>
2

> <PUBCHEM_CONFORMER_ID>
000074A200000001

> <PUBCHEM_MMFF94_ENERGY>
30.2874

> <PUBCHEM_FEATURE_SELFOVERLAP>
20.413

> <PUBCHEM_SHAPE_FINGERPRINT>
10130415 120 18408322181280169208
10219947 1 18272371975089553150
12032990 46 18410862035971317134
14128692 85 18411984676024115580
14325111 11 18410856589826113797
16945 1 18410575088989694726
193761 8 17834114526002572294
20201158 50 18410012117582886722
20871998 22 18199759046228363118
21040471 1 17978511158774180868
21501925 9 18410845573535452770
23402655 69 18123169235808219933
23463225 33 18408886200923234982
23552423 10 18189335847626582484
2748010 2 18193277626792657862
369184 2 15195279803021267310
5084963 1 18342175570148044152
528886 8 18411414046489814538
7364860 26 18270682099164979440

> <PUBCHEM_SHAPE_MULTIPOLES>
211.52
4.82
1.51
0.6
0.13
0.38
0
-1.51
0
0.34
0
0.07
0
0

> <PUBCHEM_SHAPE_SELFOVERLAP>
457.706

> <PUBCHEM_SHAPE_VOLUME>
118.9

> <PUBCHEM_COORDINATE_TYPE>
2
5
10

$$$$
