1549520
  -OEChem-11012400513D

 21 21  0     0  0  0  0  0  0999 V2000
    3.0494    1.2256    0.7082 O   0  5  0  0  0  0  0  0  0  0  0  0
    3.7508   -0.7144   -0.0635 O   0  0  0  0  0  0  0  0  0  0  0  0
    2.8784    0.1320    0.1589 N   0  3  0  0  0  0  0  0  0  0  0  0
   -0.8478    0.2018    0.2794 C   0  0  0  0  0  0  0  0  0  0  0  0
    0.5801    0.3728    0.4960 C   0  0  0  0  0  0  0  0  0  0  0  0
    1.5484   -0.1829   -0.2582 C   0  0  0  0  0  0  0  0  0  0  0  0
   -1.5364    1.0762   -0.5613 C   0  0  0  0  0  0  0  0  0  0  0  0
   -1.5284   -0.8386    0.9118 C   0  0  0  0  0  0  0  0  0  0  0  0
   -2.9055    0.9099   -0.7700 C   0  0  0  0  0  0  0  0  0  0  0  0
   -2.8975   -1.0049    0.7032 C   0  0  0  0  0  0  0  0  0  0  0  0
    1.4948   -1.0467   -1.4668 C   0  0  0  0  0  0  0  0  0  0  0  0
   -3.5861   -0.1307   -0.1378 C   0  0  0  0  0  0  0  0  0  0  0  0
    0.7967    0.9813    1.3722 H   0  0  0  0  0  0  0  0  0  0  0  0
   -1.0201    1.8920   -1.0614 H   0  0  0  0  0  0  0  0  0  0  0  0
   -1.0059   -1.5286    1.5701 H   0  0  0  0  0  0  0  0  0  0  0  0
   -3.4418    1.5906   -1.4248 H   0  0  0  0  0  0  0  0  0  0  0  0
   -3.4276   -1.8151    1.1953 H   0  0  0  0  0  0  0  0  0  0  0  0
    1.8710   -2.0534   -1.2553 H   0  0  0  0  0  0  0  0  0  0  0  0
    2.0779   -0.6168   -2.2888 H   0  0  0  0  0  0  0  0  0  0  0  0
    0.4686   -1.1599   -1.8316 H   0  0  0  0  0  0  0  0  0  0  0  0
   -4.6522   -0.2602   -0.3003 H   0  0  0  0  0  0  0  0  0  0  0  0
  1  3  1  0  0  0  0
  2  3  2  0  0  0  0
  3  6  1  0  0  0  0
  4  5  1  0  0  0  0
  4  7  2  0  0  0  0
  4  8  1  0  0  0  0
  5  6  2  0  0  0  0
  5 13  1  0  0  0  0
  6 11  1  0  0  0  0
  7  9  1  0  0  0  0
  7 14  1  0  0  0  0
  8 10  2  0  0  0  0
  8 15  1  0  0  0  0
  9 12  2  0  0  0  0
  9 16  1  0  0  0  0
 10 12  1  0  0  0  0
 10 17  1  0  0  0  0
 11 18  1  0  0  0  0
 11 19  1  0  0  0  0
 11 20  1  0  0  0  0
 12 21  1  0  0  0  0
M  CHG  2   1  -1   3   1
M  END
> <PUBCHEM_COMPOUND_CID>
1549520

> <PUBCHEM_CONFORMER_RMSD>
0.6

> <PUBCHEM_CONFORMER_DIVERSEORDER>
1
3
2

> <PUBCHEM_MMFF94_PARTIAL_CHARGES>
18
1 -0.52
10 -0.15
11 0.14
12 -0.15
13 0.15
14 0.15
15 0.15
16 0.15
17 0.15
2 -0.52
21 0.15
3 0.84
4 0.03
5 -0.18
6 0.07
7 -0.15
8 -0.15
9 -0.15

> <PUBCHEM_EFFECTIVE_ROTOR_COUNT>
2

> <PUBCHEM_PHARMACOPHORE_FEATURES>
4
1 1 acceptor
1 1 anion
1 2 acceptor
6 4 7 8 9 10 12 rings

> <PUBCHEM_HEAVY_ATOM_COUNT>
12

> <PUBCHEM_ATOM_DEF_STEREO_COUNT>
0

> <PUBCHEM_ATOM_UDEF_STEREO_COUNT>
0

> <PUBCHEM_BOND_DEF_STEREO_COUNT>
1

> <PUBCHEM_BOND_UDEF_STEREO_COUNT>
0

> <PUBCHEM_ISOTOPIC_ATOM_COUNT>
0

> <PUBCHEM_COMPONENT_COUNT>
1

> <PUBCHEM_CACTVS_TAUTO_COUNT>
1

> <PUBCHEM_CONFORMER_ID>
0017A4D000000001

> <PUBCHEM_MMFF94_ENERGY>
36.483

> <PUBCHEM_FEATURE_SELFOVERLAP>
20.376

> <PUBCHEM_SHAPE_FINGERPRINT>
10219947 1 17989487437457171480
10608611 8 18408598162772688100
11062470 55 18272651251148366905
124424 183 18335977584816752290
12716758 59 18113337479455638451
12932764 1 18334861614563191682
13024252 1 15936412243454232449
13296908 3 18408888446753242002
14144814 61 15068339012277805328
14325111 11 18113897152095857144
15219456 202 18412261752738154264
15775835 57 17023181578961783013
16945 1 17749399161000807881
18175812 5 18411417332213688036
18186145 218 18335983073484471001
19422 9 15051739689507139556
200 152 17346591954951817773
20201158 50 18342460317953235199
20279233 1 18413393120396866583
204376 136 17559946787938275768
20645464 45 18410577271265649811
20645476 183 16081088195166152603
20645477 70 17631732643336997167
20653085 51 13118282616042563767
21061003 4 18059863882379432697
23402539 116 18261098665390407661
23557571 272 18334582334520530181
23559900 14 18187077335364530632
3248919 1 17988931049976271891
369184 2 18408885131302162153
57812782 119 18408600353432368698
581208 293 17418375787769147510
6333449 129 18261109664901879085
74978 22 14490486312655475850
77492 1 15554448500343650065

> <PUBCHEM_SHAPE_MULTIPOLES>
230.23
6.18
1.18
1.05
1.98
0.05
-0.28
-0.18
0.05
-0.47
0.02
0.36
-0.12
0.85

> <PUBCHEM_SHAPE_SELFOVERLAP>
478.083

> <PUBCHEM_SHAPE_VOLUME>
131.9

> <PUBCHEM_COORDINATE_TYPE>
2
5
10

$$$$
