12481172
  -OEChem-11012400463D

 39 38  0     0  0  0  0  0  0999 V2000
   -3.4696    1.4376    0.2390 S   0  0  0  0  0  0  0  0  0  0  0  0
    0.7962    0.0161   -0.1033 Si  0  0  0  0  0  0  0  0  0  0  0  0
    1.7627   -0.4750    1.1775 O   0  0  0  0  0  0  0  0  0  0  0  0
    1.5281    1.3049   -0.8879 O   0  0  0  0  0  0  0  0  0  0  0  0
    0.6426   -1.2608   -1.1805 O   0  0  0  0  0  0  0  0  0  0  0  0
   -0.8940    0.5134    0.5491 C   0  0  0  0  0  0  0  0  0  0  0  0
   -1.8813    0.9851   -0.5187 C   0  0  0  0  0  0  0  0  0  0  0  0
    3.0944   -0.8994    0.9228 C   0  0  0  0  0  0  0  0  0  0  0  0
    1.7881    2.5046   -0.1735 C   0  0  0  0  0  0  0  0  0  0  0  0
    0.0736   -2.4846   -0.7380 C   0  0  0  0  0  0  0  0  0  0  0  0
   -4.1540   -0.2248    0.4232 C   0  0  0  0  0  0  0  0  0  0  0  0
    3.7475   -1.2868    2.2324 C   0  0  0  0  0  0  0  0  0  0  0  0
    2.4478    3.4997   -1.1042 C   0  0  0  0  0  0  0  0  0  0  0  0
    0.0498   -3.4633   -1.8928 C   0  0  0  0  0  0  0  0  0  0  0  0
   -5.5319   -0.1667    1.0549 C   0  0  0  0  0  0  0  0  0  0  0  0
   -0.7449    1.3072    1.2915 H   0  0  0  0  0  0  0  0  0  0  0  0
   -1.2954   -0.3490    1.0918 H   0  0  0  0  0  0  0  0  0  0  0  0
   -2.0435    0.2268   -1.2929 H   0  0  0  0  0  0  0  0  0  0  0  0
   -1.4937    1.8780   -1.0222 H   0  0  0  0  0  0  0  0  0  0  0  0
    3.6719   -0.0897    0.4598 H   0  0  0  0  0  0  0  0  0  0  0  0
    3.0979   -1.7659    0.2501 H   0  0  0  0  0  0  0  0  0  0  0  0
    2.4551    2.3080    0.6749 H   0  0  0  0  0  0  0  0  0  0  0  0
    0.8529    2.9362    0.2033 H   0  0  0  0  0  0  0  0  0  0  0  0
   -0.9534   -2.3251   -0.3874 H   0  0  0  0  0  0  0  0  0  0  0  0
    0.6664   -2.9092    0.0814 H   0  0  0  0  0  0  0  0  0  0  0  0
   -3.5000   -0.8330    1.0541 H   0  0  0  0  0  0  0  0  0  0  0  0
   -4.2244   -0.6992   -0.5607 H   0  0  0  0  0  0  0  0  0  0  0  0
    3.7538   -0.4393    2.9258 H   0  0  0  0  0  0  0  0  0  0  0  0
    3.1877   -2.0923    2.7191 H   0  0  0  0  0  0  0  0  0  0  0  0
    4.7771   -1.6194    2.0729 H   0  0  0  0  0  0  0  0  0  0  0  0
    3.3843    3.0942   -1.5012 H   0  0  0  0  0  0  0  0  0  0  0  0
    1.8026    3.7107   -1.9635 H   0  0  0  0  0  0  0  0  0  0  0  0
    2.6621    4.4382   -0.5853 H   0  0  0  0  0  0  0  0  0  0  0  0
   -0.5342   -3.0613   -2.7273 H   0  0  0  0  0  0  0  0  0  0  0  0
    1.0628   -3.6402   -2.2692 H   0  0  0  0  0  0  0  0  0  0  0  0
   -0.3845   -4.4191   -1.5867 H   0  0  0  0  0  0  0  0  0  0  0  0
   -5.9375   -1.1787    1.1586 H   0  0  0  0  0  0  0  0  0  0  0  0
   -6.2328    0.4083    0.4401 H   0  0  0  0  0  0  0  0  0  0  0  0
   -5.4979    0.2797    2.0546 H   0  0  0  0  0  0  0  0  0  0  0  0
  1  7  1  0  0  0  0
  1 11  1  0  0  0  0
  2  3  1  0  0  0  0
  2  4  1  0  0  0  0
  2  5  1  0  0  0  0
  2  6  1  0  0  0  0
  3  8  1  0  0  0  0
  4  9  1  0  0  0  0
  5 10  1  0  0  0  0
  6  7  1  0  0  0  0
  6 16  1  0  0  0  0
  6 17  1  0  0  0  0
  7 18  1  0  0  0  0
  7 19  1  0  0  0  0
  8 12  1  0  0  0  0
  8 20  1  0  0  0  0
  8 21  1  0  0  0  0
  9 13  1  0  0  0  0
  9 22  1  0  0  0  0
  9 23  1  0  0  0  0
 10 14  1  0  0  0  0
 10 24  1  0  0  0  0
 10 25  1  0  0  0  0
 11 15  1  0  0  0  0
 11 26  1  0  0  0  0
 11 27  1  0  0  0  0
 12 28  1  0  0  0  0
 12 29  1  0  0  0  0
 12 30  1  0  0  0  0
 13 31  1  0  0  0  0
 13 32  1  0  0  0  0
 13 33  1  0  0  0  0
 14 34  1  0  0  0  0
 14 35  1  0  0  0  0
 14 36  1  0  0  0  0
 15 37  1  0  0  0  0
 15 38  1  0  0  0  0
 15 39  1  0  0  0  0
M  END
> <PUBCHEM_COMPOUND_CID>
12481172

> <PUBCHEM_CONFORMER_RMSD>
1

> <PUBCHEM_CONFORMER_DIVERSEORDER>
1
27
18
21
13
3
5
4
17
11
23
22
7
6
12
26
20
29
2
9
24
10
8
15
14
25
28
19
16

> <PUBCHEM_MMFF94_PARTIAL_CHARGES>
11
1 -0.46
10 0.28
11 0.23
2 0.97
3 -0.58
4 -0.58
5 -0.58
6 -0.08
7 0.23
8 0.28
9 0.28

> <PUBCHEM_EFFECTIVE_ROTOR_COUNT>
10

> <PUBCHEM_PHARMACOPHORE_FEATURES>
1
1 15 hydrophobe

> <PUBCHEM_HEAVY_ATOM_COUNT>
15

> <PUBCHEM_ATOM_DEF_STEREO_COUNT>
0

> <PUBCHEM_ATOM_UDEF_STEREO_COUNT>
0

> <PUBCHEM_BOND_DEF_STEREO_COUNT>
0

> <PUBCHEM_BOND_UDEF_STEREO_COUNT>
0

> <PUBCHEM_ISOTOPIC_ATOM_COUNT>
0

> <PUBCHEM_COMPONENT_COUNT>
1

> <PUBCHEM_CACTVS_TAUTO_COUNT>
1

> <PUBCHEM_CONFORMER_ID>
00BE729400000001

> <PUBCHEM_MMFF94_ENERGY>
8.5963

> <PUBCHEM_FEATURE_SELFOVERLAP>
5.074

> <PUBCHEM_SHAPE_FINGERPRINT>
10610426 29 16009584643097687418
10756046 70 18337661014449413838
12788726 201 16610818912651675072
14178342 30 18054512409232255969
14943834 7 18049703403128150614
17041 49 18115872884582130777
20600515 1 17317880253081083260
20645477 70 18409171009179656805
20711985 344 17410208834209452526
21524375 3 18119544364186715972
23419403 2 15721323583731365560
23557571 272 17759519967480934340
23558518 356 17257935321495826516
266924 1 17905875226278805790
266924 78 17533194596023948390
3060560 45 18341347637924133805
3286 77 17676486116651473025
394222 165 18263656223689148664
5104073 3 18187940478058201073
59554788 248 18339067229565177485
68419 9 18052523667643827724
81228 2 17764539461986067602
9999458 23 17896047709751212036

> <PUBCHEM_SHAPE_MULTIPOLES>
313.15
7.52
3.63
1.68
10.99
0.15
-0.26
0.77
-4.87
-3.05
2.68
-1.43
-1.11
-1.43

> <PUBCHEM_SHAPE_SELFOVERLAP>
545.91

> <PUBCHEM_SHAPE_VOLUME>
207.8

> <PUBCHEM_COORDINATE_TYPE>
2
5
10

$$$$
