137296900
  -OEChem-11012401053D

 30 29  0     0  0  0  0  0  0999 V2000
    0.1747    0.8699    1.6918 O   0  5  0  0  0  0  0  0  0  0  0  0
   -0.1741    0.8678   -1.6932 O   0  5  0  0  0  0  0  0  0  0  0  0
    0.4649    0.8693    0.4528 N   0  3  0  0  0  0  0  0  0  0  0  0
   -0.4682    0.8686   -0.4532 N   0  3  0  0  0  0  0  0  0  0  0  0
    2.2934   -0.5846   -0.1767 C   0  0  0  0  0  0  0  0  0  0  0  0
   -2.2926   -0.5846    0.1774 C   0  0  0  0  0  0  0  0  0  0  0  0
    1.8626    0.8692    0.0127 C   0  0  0  0  0  0  0  0  0  0  0  0
   -1.8621    0.8688   -0.0142 C   0  0  0  0  0  0  0  0  0  0  0  0
    2.1754   -1.3865    1.1225 C   0  0  0  0  0  0  0  0  0  0  0  0
    3.7346   -0.6349   -0.6866 C   0  0  0  0  0  0  0  0  0  0  0  0
   -2.1747   -1.3884   -1.1207 C   0  0  0  0  0  0  0  0  0  0  0  0
   -3.7339   -0.6345    0.6873 C   0  0  0  0  0  0  0  0  0  0  0  0
    1.6555   -1.0664   -0.9284 H   0  0  0  0  0  0  0  0  0  0  0  0
   -1.6548   -1.0654    0.9298 H   0  0  0  0  0  0  0  0  0  0  0  0
    1.9796    1.4681   -0.8959 H   0  0  0  0  0  0  0  0  0  0  0  0
    2.4515    1.3581    0.7982 H   0  0  0  0  0  0  0  0  0  0  0  0
   -2.4520    1.3562   -0.7999 H   0  0  0  0  0  0  0  0  0  0  0  0
   -1.9804    1.4689    0.8936 H   0  0  0  0  0  0  0  0  0  0  0  0
    2.7004   -0.8925    1.9471 H   0  0  0  0  0  0  0  0  0  0  0  0
    2.6109   -2.3846    0.9997 H   0  0  0  0  0  0  0  0  0  0  0  0
    1.1312   -1.5341    1.4139 H   0  0  0  0  0  0  0  0  0  0  0  0
    4.4276   -0.1873    0.0340 H   0  0  0  0  0  0  0  0  0  0  0  0
    4.0502   -1.6687   -0.8630 H   0  0  0  0  0  0  0  0  0  0  0  0
    3.8307   -0.0916   -1.6326 H   0  0  0  0  0  0  0  0  0  0  0  0
   -2.6998   -0.8957   -1.9460 H   0  0  0  0  0  0  0  0  0  0  0  0
   -2.6100   -2.3863   -0.9964 H   0  0  0  0  0  0  0  0  0  0  0  0
   -1.1305   -1.5362   -1.4120 H   0  0  0  0  0  0  0  0  0  0  0  0
   -4.4270   -0.1880   -0.0339 H   0  0  0  0  0  0  0  0  0  0  0  0
   -4.0492   -1.6681    0.8652 H   0  0  0  0  0  0  0  0  0  0  0  0
   -3.8301   -0.0899    1.6326 H   0  0  0  0  0  0  0  0  0  0  0  0
  1  3  1  0  0  0  0
  2  4  1  0  0  0  0
  3  4  2  0  0  0  0
  3  7  1  0  0  0  0
  4  8  1  0  0  0  0
  5  7  1  0  0  0  0
  5  9  1  0  0  0  0
  5 10  1  0  0  0  0
  5 13  1  0  0  0  0
  6  8  1  0  0  0  0
  6 11  1  0  0  0  0
  6 12  1  0  0  0  0
  6 14  1  0  0  0  0
  7 15  1  0  0  0  0
  7 16  1  0  0  0  0
  8 17  1  0  0  0  0
  8 18  1  0  0  0  0
  9 19  1  0  0  0  0
  9 20  1  0  0  0  0
  9 21  1  0  0  0  0
 10 22  1  0  0  0  0
 10 23  1  0  0  0  0
 10 24  1  0  0  0  0
 11 25  1  0  0  0  0
 11 26  1  0  0  0  0
 11 27  1  0  0  0  0
 12 28  1  0  0  0  0
 12 29  1  0  0  0  0
 12 30  1  0  0  0  0
M  CHG  4   1  -1   2  -1   3   1   4   1
M  END
> <PUBCHEM_COMPOUND_CID>
137296900

> <PUBCHEM_CONFORMER_RMSD>
0.6

> <PUBCHEM_CONFORMER_DIVERSEORDER>
1
14
9
15
12
13
17
2
10
16
11
3
7
4
5
8
6

> <PUBCHEM_MMFF94_PARTIAL_CHARGES>
6
1 -0.63
2 -0.63
3 0.53
4 0.53
7 0.1
8 0.1

> <PUBCHEM_EFFECTIVE_ROTOR_COUNT>
4

> <PUBCHEM_PHARMACOPHORE_FEATURES>
4
1 1 anion
1 2 anion
3 5 9 10 hydrophobe
3 6 11 12 hydrophobe

> <PUBCHEM_HEAVY_ATOM_COUNT>
12

> <PUBCHEM_ATOM_DEF_STEREO_COUNT>
0

> <PUBCHEM_ATOM_UDEF_STEREO_COUNT>
0

> <PUBCHEM_BOND_DEF_STEREO_COUNT>
1

> <PUBCHEM_BOND_UDEF_STEREO_COUNT>
0

> <PUBCHEM_ISOTOPIC_ATOM_COUNT>
0

> <PUBCHEM_COMPONENT_COUNT>
1

> <PUBCHEM_CACTVS_TAUTO_COUNT>
-1

> <PUBCHEM_CONFORMER_ID>
082EFC0400000001

> <PUBCHEM_MMFF94_ENERGY>
20.7411

> <PUBCHEM_FEATURE_SELFOVERLAP>
20.298

> <PUBCHEM_SHAPE_FINGERPRINT>
10857977 72 16845570928575774621
124424 183 17847065463271289345
12897270 3 17530683203943874854
12932764 1 18410848863058557541
14128692 85 18412266155306330100
14390081 3 11169909476696740631
15310529 11 17749669580410029774
15375462 189 18413670210090863162
17841504 4 17131262609857103307
18186145 218 14635151183604726150
18511873 20 17917719002203242707
20281407 28 18409445886390275059
20653085 51 11026070205857101916
20711983 138 17631448956394261946
20711985 344 17533471505371185173
20871999 31 17167579388997458095
21028194 46 9583513222289762086
21293036 1 15430043179134657453
22169311 14 15769775757957983127
23402539 116 16370721500983748758
528716 315 17603310336151416047

> <PUBCHEM_SHAPE_MULTIPOLES>
225.25
5.63
1.41
1.31
0
0.16
0
2.4
0
0
0
0
0
-0.23

> <PUBCHEM_SHAPE_SELFOVERLAP>
418.196

> <PUBCHEM_SHAPE_VOLUME>
143.5

> <PUBCHEM_COORDINATE_TYPE>
2
5
10

$$$$
