136187
  -OEChem-11012401023D

  9  8  0     0  0  0  0  0  0999 V2000
    0.9437   -1.0902   -0.2836 F   0  0  0  0  0  0  0  0  0  0  0  0
    0.9445    1.0898   -0.2838 F   0  0  0  0  0  0  0  0  0  0  0  0
   -1.5858    0.0002   -0.5594 O   0  0  0  0  0  0  0  0  0  0  0  0
   -0.8968    0.0002    0.6848 C   0  0  0  0  0  0  0  0  0  0  0  0
    0.5943    0.0000    0.4420 C   0  0  0  0  0  0  0  0  0  0  0  0
   -1.1991   -0.8959    1.2333 H   0  0  0  0  0  0  0  0  0  0  0  0
   -1.2045    0.8877    1.2450 H   0  0  0  0  0  0  0  0  0  0  0  0
    1.1629   -0.0003    1.3757 H   0  0  0  0  0  0  0  0  0  0  0  0
   -1.2984    0.7882   -1.0516 H   0  0  0  0  0  0  0  0  0  0  0  0
  1  5  1  0  0  0  0
  2  5  1  0  0  0  0
  3  4  1  0  0  0  0
  3  9  1  0  0  0  0
  4  5  1  0  0  0  0
  4  6  1  0  0  0  0
  4  7  1  0  0  0  0
  5  8  1  0  0  0  0
M  END
> <PUBCHEM_COMPOUND_CID>
136187

> <PUBCHEM_CONFORMER_RMSD>
0.4

> <PUBCHEM_CONFORMER_DIVERSEORDER>
1
2
3

> <PUBCHEM_MMFF94_PARTIAL_CHARGES>
6
1 -0.34
2 -0.34
3 -0.68
4 0.28
5 0.68
9 0.4

> <PUBCHEM_EFFECTIVE_ROTOR_COUNT>
1

> <PUBCHEM_PHARMACOPHORE_FEATURES>
2
1 3 acceptor
1 3 donor

> <PUBCHEM_HEAVY_ATOM_COUNT>
5

> <PUBCHEM_ATOM_DEF_STEREO_COUNT>
0

> <PUBCHEM_ATOM_UDEF_STEREO_COUNT>
0

> <PUBCHEM_BOND_DEF_STEREO_COUNT>
0

> <PUBCHEM_BOND_UDEF_STEREO_COUNT>
0

> <PUBCHEM_ISOTOPIC_ATOM_COUNT>
0

> <PUBCHEM_COMPONENT_COUNT>
1

> <PUBCHEM_CACTVS_TAUTO_COUNT>
1

> <PUBCHEM_CONFORMER_ID>
000213FB00000001

> <PUBCHEM_MMFF94_ENERGY>
0.5357

> <PUBCHEM_FEATURE_SELFOVERLAP>
10.148

> <PUBCHEM_SHAPE_FINGERPRINT>
139733 1 8069153649746000890
20096714 4 18042965561060038461
21015797 1 10953736750401616576
5943 1 11738261554104623762

> <PUBCHEM_SHAPE_MULTIPOLES>
82.48
1.57
0.93
0.78
0.44
0
0.09
0
-0.22
-0.37
-0.1
0.15
0
0

> <PUBCHEM_SHAPE_SELFOVERLAP>
144.206

> <PUBCHEM_SHAPE_VOLUME>
54.7

> <PUBCHEM_COORDINATE_TYPE>
2
5
10

$$$$
