638324
  -OEChem-11012400453D

 20 19  0     0  0  0  0  0  0999 V2000
   -4.5270    0.2282    0.0026 O   0  0  0  0  0  0  0  0  0  0  0  0
    2.6839   -0.0162    0.0542 N   0  0  0  0  0  0  0  0  0  0  0  0
    1.4134   -0.4918   -0.0058 C   0  0  0  0  0  0  0  0  0  0  0  0
    3.8397   -0.9063   -0.0227 C   0  0  0  0  0  0  0  0  0  0  0  0
    2.9745    1.4115   -0.0514 C   0  0  0  0  0  0  0  0  0  0  0  0
    0.2764    0.2134    0.0529 C   0  0  0  0  0  0  0  0  0  0  0  0
   -1.0351   -0.3902   -0.0217 C   0  0  0  0  0  0  0  0  0  0  0  0
   -2.1645    0.3257    0.0381 C   0  0  0  0  0  0  0  0  0  0  0  0
   -3.4613   -0.3742   -0.0462 C   0  0  0  0  0  0  0  0  0  0  0  0
    1.3719   -1.5740   -0.0959 H   0  0  0  0  0  0  0  0  0  0  0  0
    4.1696   -1.0060   -1.0619 H   0  0  0  0  0  0  0  0  0  0  0  0
    3.6058   -1.9044    0.3642 H   0  0  0  0  0  0  0  0  0  0  0  0
    4.6727   -0.5177    0.5733 H   0  0  0  0  0  0  0  0  0  0  0  0
    4.0517    1.6092   -0.0153 H   0  0  0  0  0  0  0  0  0  0  0  0
    2.5183    1.9627    0.7780 H   0  0  0  0  0  0  0  0  0  0  0  0
    2.5994    1.8135   -0.9991 H   0  0  0  0  0  0  0  0  0  0  0  0
    0.3047    1.2950    0.1559 H   0  0  0  0  0  0  0  0  0  0  0  0
   -1.0757   -1.4714   -0.1305 H   0  0  0  0  0  0  0  0  0  0  0  0
   -2.1763    1.4042    0.1463 H   0  0  0  0  0  0  0  0  0  0  0  0
   -3.4192   -1.4708   -0.1560 H   0  0  0  0  0  0  0  0  0  0  0  0
  1  9  2  0  0  0  0
  2  3  1  0  0  0  0
  2  4  1  0  0  0  0
  2  5  1  0  0  0  0
  3  6  2  0  0  0  0
  3 10  1  0  0  0  0
  4 11  1  0  0  0  0
  4 12  1  0  0  0  0
  4 13  1  0  0  0  0
  5 14  1  0  0  0  0
  5 15  1  0  0  0  0
  5 16  1  0  0  0  0
  6  7  1  0  0  0  0
  6 17  1  0  0  0  0
  7  8  2  0  0  0  0
  7 18  1  0  0  0  0
  8  9  1  0  0  0  0
  8 19  1  0  0  0  0
  9 20  1  0  0  0  0
M  END
> <PUBCHEM_COMPOUND_CID>
638324

> <PUBCHEM_CONFORMER_RMSD>
0.6

> <PUBCHEM_CONFORMER_DIVERSEORDER>
1
3
4
2

> <PUBCHEM_MMFF94_PARTIAL_CHARGES>
14
1 -0.57
10 0.15
17 0.15
18 0.15
19 0.15
2 -0.84
20 0.06
3 -0.05
4 0.37
5 0.37
6 -0.15
7 -0.15
8 -0.14
9 0.5

> <PUBCHEM_EFFECTIVE_ROTOR_COUNT>
3

> <PUBCHEM_PHARMACOPHORE_FEATURES>
2
1 1 acceptor
1 2 cation

> <PUBCHEM_HEAVY_ATOM_COUNT>
9

> <PUBCHEM_ATOM_DEF_STEREO_COUNT>
0

> <PUBCHEM_ATOM_UDEF_STEREO_COUNT>
0

> <PUBCHEM_BOND_DEF_STEREO_COUNT>
2

> <PUBCHEM_BOND_UDEF_STEREO_COUNT>
0

> <PUBCHEM_ISOTOPIC_ATOM_COUNT>
0

> <PUBCHEM_COMPONENT_COUNT>
1

> <PUBCHEM_CACTVS_TAUTO_COUNT>
1

> <PUBCHEM_CONFORMER_ID>
0009BD7400000001

> <PUBCHEM_MMFF94_ENERGY>
14.2183

> <PUBCHEM_FEATURE_SELFOVERLAP>
10.148

> <PUBCHEM_SHAPE_FINGERPRINT>
11062470 55 18408604768780003301
12932764 1 17240750800782454330
14325111 11 18410574011074333163
190213 19 17489590060556866275
20645477 70 18412545388126015750
20719005 15 18410855464892744427
23402539 116 17703781492853197373
3248919 1 17274835661264602862

> <PUBCHEM_SHAPE_MULTIPOLES>
174.37
8.09
1.01
0.6
3.83
0.21
0
-0.16
0.09
-0.99
0.01
-0.02
0
-0.03

> <PUBCHEM_SHAPE_SELFOVERLAP>
323.153

> <PUBCHEM_SHAPE_VOLUME>
110.7

> <PUBCHEM_COORDINATE_TYPE>
2
5
10

$$$$
