520238
  -OEChem-11012400323D

 23 25  0     0  0  0  0  0  0999 V2000
   -2.4030   -1.3923    0.0005 N   0  0  0  0  0  0  0  0  0  0  0  0
    1.2166    0.7123   -0.0010 C   0  0  0  0  0  0  0  0  0  0  0  0
    1.2040   -0.6974   -0.0013 C   0  0  0  0  0  0  0  0  0  0  0  0
   -1.2275    0.7088   -0.0004 C   0  0  0  0  0  0  0  0  0  0  0  0
   -1.2485   -0.6988   -0.0002 C   0  0  0  0  0  0  0  0  0  0  0  0
   -0.0043    1.4012   -0.0010 C   0  0  0  0  0  0  0  0  0  0  0  0
   -0.0301   -1.3732   -0.0011 C   0  0  0  0  0  0  0  0  0  0  0  0
    2.4464    1.3915   -0.0003 C   0  0  0  0  0  0  0  0  0  0  0  0
    2.4244   -1.3937   -0.0007 C   0  0  0  0  0  0  0  0  0  0  0  0
   -2.4542    1.3869    0.0001 C   0  0  0  0  0  0  0  0  0  0  0  0
    3.6493    0.6855    0.0018 C   0  0  0  0  0  0  0  0  0  0  0  0
    3.6382   -0.7059    0.0017 C   0  0  0  0  0  0  0  0  0  0  0  0
   -3.6457    0.6763    0.0007 C   0  0  0  0  0  0  0  0  0  0  0  0
   -3.5656   -0.7011    0.0012 C   0  0  0  0  0  0  0  0  0  0  0  0
   -0.0058    2.4910   -0.0009 H   0  0  0  0  0  0  0  0  0  0  0  0
   -0.0378   -2.4638   -0.0011 H   0  0  0  0  0  0  0  0  0  0  0  0
    2.4771    2.4792   -0.0001 H   0  0  0  0  0  0  0  0  0  0  0  0
    2.4393   -2.4817   -0.0007 H   0  0  0  0  0  0  0  0  0  0  0  0
   -2.4879    2.4740    0.0000 H   0  0  0  0  0  0  0  0  0  0  0  0
    4.5937    1.2218    0.0032 H   0  0  0  0  0  0  0  0  0  0  0  0
    4.5741   -1.2570    0.0030 H   0  0  0  0  0  0  0  0  0  0  0  0
   -4.6025    1.1848    0.0011 H   0  0  0  0  0  0  0  0  0  0  0  0
   -4.4632   -1.3107    0.0018 H   0  0  0  0  0  0  0  0  0  0  0  0
  1  5  1  0  0  0  0
  1 14  2  0  0  0  0
  2  3  1  0  0  0  0
  2  6  1  0  0  0  0
  2  8  2  0  0  0  0
  3  7  1  0  0  0  0
  3  9  2  0  0  0  0
  4  5  1  0  0  0  0
  4  6  2  0  0  0  0
  4 10  1  0  0  0  0
  5  7  2  0  0  0  0
  6 15  1  0  0  0  0
  7 16  1  0  0  0  0
  8 11  1  0  0  0  0
  8 17  1  0  0  0  0
  9 12  1  0  0  0  0
  9 18  1  0  0  0  0
 10 13  2  0  0  0  0
 10 19  1  0  0  0  0
 11 12  2  0  0  0  0
 11 20  1  0  0  0  0
 12 21  1  0  0  0  0
 13 14  1  0  0  0  0
 13 22  1  0  0  0  0
 14 23  1  0  0  0  0
M  END
> <PUBCHEM_COMPOUND_CID>
520238

> <PUBCHEM_CONFORMER_RMSD>
0.4

> <PUBCHEM_CONFORMER_DIVERSEORDER>
1

> <PUBCHEM_MMFF94_PARTIAL_CHARGES>
20
1 -0.62
10 -0.15
11 -0.15
12 -0.15
13 -0.15
14 0.16
15 0.15
16 0.15
17 0.15
18 0.15
19 0.15
20 0.15
21 0.15
22 0.15
23 0.15
5 0.31
6 -0.15
7 -0.15
8 -0.15
9 -0.15

> <PUBCHEM_EFFECTIVE_ROTOR_COUNT>
0

> <PUBCHEM_PHARMACOPHORE_FEATURES>
4
1 1 acceptor
6 1 4 5 10 13 14 rings
6 2 3 4 5 6 7 rings
6 2 3 8 9 11 12 rings

> <PUBCHEM_HEAVY_ATOM_COUNT>
14

> <PUBCHEM_ATOM_DEF_STEREO_COUNT>
0

> <PUBCHEM_ATOM_UDEF_STEREO_COUNT>
0

> <PUBCHEM_BOND_DEF_STEREO_COUNT>
0

> <PUBCHEM_BOND_UDEF_STEREO_COUNT>
0

> <PUBCHEM_ISOTOPIC_ATOM_COUNT>
0

> <PUBCHEM_COMPONENT_COUNT>
1

> <PUBCHEM_CACTVS_TAUTO_COUNT>
1

> <PUBCHEM_CONFORMER_ID>
0007F02E00000001

> <PUBCHEM_MMFF94_ENERGY>
44.2163

> <PUBCHEM_FEATURE_SELFOVERLAP>
20.353

> <PUBCHEM_SHAPE_FINGERPRINT>
10411042 1 15744725194776030697
10608611 8 18410570686638102052
10967382 1 18410575058946094118
11132069 177 18411412912650155344
11471102 20 18410851053655285548
11806522 49 18338231691043927143
12032990 46 18410580582226628962
12932764 1 17458337503246510564
13221675 6 18410573980877699778
13296908 3 18410294709203433202
13380535 76 18410573985162377414
14144814 61 18410855447248547776
14325111 11 18410855460149468672
15196674 1 18410573985151457636
15219456 202 18411699885058300276
15309172 13 18343591737067243491
15442244 35 18194965136823598610
15536298 74 18343019991226177380
15775835 57 18410296908231879040
16945 1 18266460897425528724
17844478 74 17968100802430921421
18186145 218 18335139752334320172
18522853 276 18413668015272670240
193761 8 17689999363411566664
200 152 18059846282130714485
20201158 50 18411700963111117190
20510252 161 18272934899246972753
20645477 70 18340201899737618775
21267235 1 18410583880761772130
21501502 16 18410856563940044620
21501925 9 18410001139973259650
2334 1 18410574019516470756
23402539 116 18271515446783150414
23402655 69 18341607088582889269
23463225 33 18408603647640636252
23559900 14 18341890741551019882
2748010 2 18410575088963327620
3312278 4 18411984671528681841
335352 9 18050285868943486324
474 4 16951980668091908356
5104073 3 18410855460128169281
528886 8 18411132532821448986
53812653 166 18343297098031536576
57096353 35 18338797934814998948
69090 78 18343297068072156495
7364860 26 18269554940632323974
8809292 202 18260834820954136923
9709674 26 18411423924930971718

> <PUBCHEM_SHAPE_MULTIPOLES>
283.13
6.48
1.7
0.61
0.25
0
0
0.03
0
-0.06
0
-0.01
0.01
0

> <PUBCHEM_SHAPE_SELFOVERLAP>
643.095

> <PUBCHEM_SHAPE_VOLUME>
147.1

> <PUBCHEM_COORDINATE_TYPE>
2
5
10

$$$$
