21671
  -OEChem-11012401253D

 28 28  0     1  0  0  0  0  0999 V2000
   -0.7283    0.0011    0.1753 C   0  0  1  0  0  0  0  0  0  0  0  0
   -2.1906    0.0260   -0.2642 C   0  0  0  0  0  0  0  0  0  0  0  0
   -0.0072   -1.2355   -0.3704 C   0  0  0  0  0  0  0  0  0  0  0  0
   -0.0025    1.2800   -0.2723 C   0  0  0  0  0  0  0  0  0  0  0  0
    1.4447   -1.2894    0.1151 C   0  0  0  0  0  0  0  0  0  0  0  0
    2.1540    0.0403    0.0564 C   0  0  0  0  0  0  0  0  0  0  0  0
    1.4892    1.1929   -0.1339 C   0  0  0  0  0  0  0  0  0  0  0  0
   -2.8982   -1.2615    0.1519 C   0  0  0  0  0  0  0  0  0  0  0  0
   -2.9054    1.2437    0.3173 C   0  0  0  0  0  0  0  0  0  0  0  0
    3.6442    0.0025    0.2248 C   0  0  0  0  0  0  0  0  0  0  0  0
   -0.6890   -0.0461    1.2738 H   0  0  0  0  0  0  0  0  0  0  0  0
   -2.2488    0.0971   -1.3585 H   0  0  0  0  0  0  0  0  0  0  0  0
   -0.0255   -1.2239   -1.4682 H   0  0  0  0  0  0  0  0  0  0  0  0
   -0.4845   -2.1672   -0.0517 H   0  0  0  0  0  0  0  0  0  0  0  0
   -0.3379    2.1270    0.3373 H   0  0  0  0  0  0  0  0  0  0  0  0
   -0.2357    1.5170   -1.3176 H   0  0  0  0  0  0  0  0  0  0  0  0
    1.9846   -2.0263   -0.4917 H   0  0  0  0  0  0  0  0  0  0  0  0
    1.4681   -1.6477    1.1520 H   0  0  0  0  0  0  0  0  0  0  0  0
    2.0371    2.1299   -0.1914 H   0  0  0  0  0  0  0  0  0  0  0  0
   -2.7337   -1.4895    1.2105 H   0  0  0  0  0  0  0  0  0  0  0  0
   -3.9799   -1.1736   -0.0023 H   0  0  0  0  0  0  0  0  0  0  0  0
   -2.5754   -2.1186   -0.4466 H   0  0  0  0  0  0  0  0  0  0  0  0
   -2.7968    1.2905    1.4063 H   0  0  0  0  0  0  0  0  0  0  0  0
   -3.9773    1.2059    0.0921 H   0  0  0  0  0  0  0  0  0  0  0  0
   -2.5315    2.1796   -0.1087 H   0  0  0  0  0  0  0  0  0  0  0  0
    3.9050   -0.4430    1.1903 H   0  0  0  0  0  0  0  0  0  0  0  0
    4.0899    1.0021    0.1878 H   0  0  0  0  0  0  0  0  0  0  0  0
    4.1014   -0.5961   -0.5696 H   0  0  0  0  0  0  0  0  0  0  0  0
  1  2  1  0  0  0  0
  1  3  1  0  0  0  0
  1  4  1  0  0  0  0
  1 11  1  0  0  0  0
  2  8  1  0  0  0  0
  2  9  1  0  0  0  0
  2 12  1  0  0  0  0
  3  5  1  0  0  0  0
  3 13  1  0  0  0  0
  3 14  1  0  0  0  0
  4  7  1  0  0  0  0
  4 15  1  0  0  0  0
  4 16  1  0  0  0  0
  5  6  1  0  0  0  0
  5 17  1  0  0  0  0
  5 18  1  0  0  0  0
  6  7  2  0  0  0  0
  6 10  1  0  0  0  0
  7 19  1  0  0  0  0
  8 20  1  0  0  0  0
  8 21  1  0  0  0  0
  8 22  1  0  0  0  0
  9 23  1  0  0  0  0
  9 24  1  0  0  0  0
  9 25  1  0  0  0  0
 10 26  1  0  0  0  0
 10 27  1  0  0  0  0
 10 28  1  0  0  0  0
M  END
> <PUBCHEM_COMPOUND_CID>
21671

> <PUBCHEM_CONFORMER_RMSD>
0.4

> <PUBCHEM_CONFORMER_DIVERSEORDER>
1
2

> <PUBCHEM_MMFF94_PARTIAL_CHARGES>
6
10 0.14
19 0.15
4 0.14
5 0.14
6 -0.28
7 -0.29

> <PUBCHEM_EFFECTIVE_ROTOR_COUNT>
1.8

> <PUBCHEM_PHARMACOPHORE_FEATURES>
2
3 2 8 9 hydrophobe
6 1 3 4 5 6 7 rings

> <PUBCHEM_HEAVY_ATOM_COUNT>
10

> <PUBCHEM_ATOM_DEF_STEREO_COUNT>
0

> <PUBCHEM_ATOM_UDEF_STEREO_COUNT>
1

> <PUBCHEM_BOND_DEF_STEREO_COUNT>
0

> <PUBCHEM_BOND_UDEF_STEREO_COUNT>
0

> <PUBCHEM_ISOTOPIC_ATOM_COUNT>
0

> <PUBCHEM_COMPONENT_COUNT>
1

> <PUBCHEM_CACTVS_TAUTO_COUNT>
1

> <PUBCHEM_CONFORMER_ID>
000054A700000001

> <PUBCHEM_MMFF94_ENERGY>
9.9043

> <PUBCHEM_FEATURE_SELFOVERLAP>
10.148

> <PUBCHEM_SHAPE_FINGERPRINT>
10219947 1 18335420166633515084
10857977 72 18409720789908695939
12032990 46 18411425011852810838
13380535 76 18339922624116199951
14325111 11 18411418431725361056
15775835 57 18411985736612103281
16945 1 18335136453767872692
193761 8 17546164104377344044
19973954 147 18410015450772706157
20201158 50 18334573538306220907
21040471 1 18339924934423372884
23235685 24 18411412895602135336
23380061 330 18341889727237079190
23402655 69 18197481958180210229
23463225 33 18334854992029478706
23552423 10 18260832609135273239
2748010 2 18195245520704542910
29004967 10 18333734606480790648
5084963 1 17895188965072508477
528886 8 18411412882527284049
53812653 166 18343297050712965336

> <PUBCHEM_SHAPE_MULTIPOLES>
205.8
5.06
1.56
0.67
0.49
0.03
0
-0.02
-0.6
-0.46
0.03
-0.03
0
-0.1

> <PUBCHEM_SHAPE_SELFOVERLAP>
399.372

> <PUBCHEM_SHAPE_VOLUME>
124.7

> <PUBCHEM_COORDINATE_TYPE>
2
5
10

$$$$
