69291
  -OEChem-11012400433D

 31 32  0     0  0  0  0  0  0999 V2000
   -0.9513    1.6392   -0.0009 C   0  0  0  0  0  0  0  0  0  0  0  0
    0.4502    1.0613   -0.0006 C   0  0  0  0  0  0  0  0  0  0  0  0
    3.0069    0.0086    0.0000 C   0  0  0  0  0  0  0  0  0  0  0  0
   -2.0223    0.6010   -0.0003 C   0  0  0  0  0  0  0  0  0  0  0  0
    1.0721    0.8043   -1.2085 C   0  0  0  0  0  0  0  0  0  0  0  0
    1.0723    0.8061    1.2076 C   0  0  0  0  0  0  0  0  0  0  0  0
    4.3856   -0.5595    0.0002 C   0  0  0  0  0  0  0  0  0  0  0  0
    2.3618    0.2732   -1.2081 C   0  0  0  0  0  0  0  0  0  0  0  0
    2.3622    0.2750    1.2078 C   0  0  0  0  0  0  0  0  0  0  0  0
   -2.5231    0.1161    1.2079 C   0  0  0  0  0  0  0  0  0  0  0  0
   -2.5228    0.1147   -1.2080 C   0  0  0  0  0  0  0  0  0  0  0  0
    4.3817   -2.0870    0.0013 C   0  0  0  0  0  0  0  0  0  0  0  0
   -3.5244   -0.8551    1.2085 C   0  0  0  0  0  0  0  0  0  0  0  0
   -3.5241   -0.8564   -1.2076 C   0  0  0  0  0  0  0  0  0  0  0  0
   -4.0248   -1.3413    0.0008 C   0  0  0  0  0  0  0  0  0  0  0  0
   -1.0732    2.3050   -0.8667 H   0  0  0  0  0  0  0  0  0  0  0  0
   -1.0731    2.3059    0.8642 H   0  0  0  0  0  0  0  0  0  0  0  0
    0.5783    1.0074   -2.1542 H   0  0  0  0  0  0  0  0  0  0  0  0
    0.5787    1.0106    2.1530 H   0  0  0  0  0  0  0  0  0  0  0  0
    4.9405   -0.1976   -0.8744 H   0  0  0  0  0  0  0  0  0  0  0  0
    4.9407   -0.1963    0.8741 H   0  0  0  0  0  0  0  0  0  0  0  0
    2.8527    0.0684   -2.1559 H   0  0  0  0  0  0  0  0  0  0  0  0
    2.8533    0.0717    2.1558 H   0  0  0  0  0  0  0  0  0  0  0  0
   -2.1431    0.4865    2.1564 H   0  0  0  0  0  0  0  0  0  0  0  0
   -2.1427    0.4839   -2.1568 H   0  0  0  0  0  0  0  0  0  0  0  0
    3.8725   -2.4811    0.8873 H   0  0  0  0  0  0  0  0  0  0  0  0
    5.4082   -2.4670    0.0014 H   0  0  0  0  0  0  0  0  0  0  0  0
    3.8722   -2.4824   -0.8840 H   0  0  0  0  0  0  0  0  0  0  0  0
   -3.9143   -1.2326    2.1492 H   0  0  0  0  0  0  0  0  0  0  0  0
   -3.9141   -1.2351   -2.1479 H   0  0  0  0  0  0  0  0  0  0  0  0
   -4.8045   -2.0975    0.0011 H   0  0  0  0  0  0  0  0  0  0  0  0
  1  2  1  0  0  0  0
  1  4  1  0  0  0  0
  1 16  1  0  0  0  0
  1 17  1  0  0  0  0
  2  5  2  0  0  0  0
  2  6  1  0  0  0  0
  3  7  1  0  0  0  0
  3  8  2  0  0  0  0
  3  9  1  0  0  0  0
  4 10  2  0  0  0  0
  4 11  1  0  0  0  0
  5  8  1  0  0  0  0
  5 18  1  0  0  0  0
  6  9  2  0  0  0  0
  6 19  1  0  0  0  0
  7 12  1  0  0  0  0
  7 20  1  0  0  0  0
  7 21  1  0  0  0  0
  8 22  1  0  0  0  0
  9 23  1  0  0  0  0
 10 13  1  0  0  0  0
 10 24  1  0  0  0  0
 11 14  2  0  0  0  0
 11 25  1  0  0  0  0
 12 26  1  0  0  0  0
 12 27  1  0  0  0  0
 12 28  1  0  0  0  0
 13 15  2  0  0  0  0
 13 29  1  0  0  0  0
 14 15  1  0  0  0  0
 14 30  1  0  0  0  0
 15 31  1  0  0  0  0
M  END
> <PUBCHEM_COMPOUND_CID>
69291

> <PUBCHEM_CONFORMER_RMSD>
0.6

> <PUBCHEM_CONFORMER_DIVERSEORDER>
1
5
6
4
3
2
7

> <PUBCHEM_MMFF94_PARTIAL_CHARGES>
23
1 0.29
10 -0.15
11 -0.15
13 -0.15
14 -0.15
15 -0.15
18 0.15
19 0.15
2 -0.14
22 0.15
23 0.15
24 0.15
25 0.15
29 0.15
3 -0.14
30 0.15
31 0.15
4 -0.14
5 -0.15
6 -0.15
7 0.14
8 -0.15
9 -0.15

> <PUBCHEM_EFFECTIVE_ROTOR_COUNT>
3

> <PUBCHEM_PHARMACOPHORE_FEATURES>
3
1 12 hydrophobe
6 2 3 5 6 8 9 rings
6 4 10 11 13 14 15 rings

> <PUBCHEM_HEAVY_ATOM_COUNT>
15

> <PUBCHEM_ATOM_DEF_STEREO_COUNT>
0

> <PUBCHEM_ATOM_UDEF_STEREO_COUNT>
0

> <PUBCHEM_BOND_DEF_STEREO_COUNT>
0

> <PUBCHEM_BOND_UDEF_STEREO_COUNT>
0

> <PUBCHEM_ISOTOPIC_ATOM_COUNT>
0

> <PUBCHEM_COMPONENT_COUNT>
1

> <PUBCHEM_CACTVS_TAUTO_COUNT>
1

> <PUBCHEM_CONFORMER_ID>
00010EAB00000001

> <PUBCHEM_MMFF94_ENERGY>
36.0687

> <PUBCHEM_FEATURE_SELFOVERLAP>
15.223

> <PUBCHEM_SHAPE_FINGERPRINT>
10465860 71 17095240315260467196
10498660 4 11747206992046659479
11046707 91 18343019977929903366
11127187 94 17167858690810244707
11132069 177 15051731975756529144
11543360 7 16081094796224716670
11769659 78 18338232657553707570
12251169 10 15841555197281945949
12363563 72 18410293631345925013
12382932 28 15698008422289275193
12633257 1 16415200113186392259
12644460 14 17274527828833116200
12670546 177 16443360775254045158
12892183 10 14620802586805740271
13296908 3 18411974788972827625
13675066 3 13542466462417682796
13693222 15 17489864972871157889
13705890 14 17821732749600377076
13764800 53 9295012414065642021
14123260 362 11386371430410963903
14178342 30 16200441260128685007
1420 369 18412266129373470222
14848178 5 18116418255651232242
15209294 21 12607393365701852966
15239191 94 18344148085545024526
15375462 189 17917712387937827906
17870717 6 17530685372850008063
1813 80 18200889430023189996
18186145 218 16298110895051239844
19050596 39 15913328039330387739
193927 3 18335149656872211678
19862831 5 16732982024513002333
200 152 17894631469606324585
20112054 13 12391513079018279776
20281475 54 18342460365102819461
20361792 2 18338234972472930789
20645477 70 17822012063754896231
20671657 53 17530682108706362372
20871999 31 16660363662375497995
21065199 12 14908191845257587575
21713013 43 16805888502100461227
21731228 192 13254797953576703261
22485316 2 18342457040840395392
22646028 28 18408604768432032103
231179 274 9655578504683094830
23379529 103 17677917775148860562
23402539 116 17749391413064571652
23402655 69 14851871539688947031
23403322 49 18333448725020913867
23503953 91 15769779078262868355
23503958 8 18343868822603241211
23557571 272 17823115939054303133
23559900 14 18333723620508757632
25 1 13407067072570926857
27216 239 11312051063302946999
3082319 5 15357969079795951841
3286 77 17489299828046835321
3472631 163 8214153940973195275
4028521 119 12540684938461409775
4280585 95 16230237866671179546
465052 167 18118136981504323979
474 4 7781517022774027327
76465 3 18201429272994334974
93112 12 15864066606975720813

> <PUBCHEM_SHAPE_MULTIPOLES>
308.69
8.61
1.52
1.39
2.04
0.4
0
5.55
0
0.46
0
-0.51
-0.07
0

> <PUBCHEM_SHAPE_SELFOVERLAP>
654.952

> <PUBCHEM_SHAPE_VOLUME>
162.7

> <PUBCHEM_COORDINATE_TYPE>
2
5
10

$$$$
