17723
  -OEChem-11012400523D

 18 18  0     1  0  0  0  0  0999 V2000
    0.3633    1.1637    0.1691 O   0  0  0  0  0  0  0  0  0  0  0  0
    0.0440   -2.3629    0.4126 O   0  0  0  0  0  0  0  0  0  0  0  0
   -2.4869   -0.7296   -0.5483 O   0  0  0  0  0  0  0  0  0  0  0  0
    3.1587    0.7368   -0.0062 O   0  0  0  0  0  0  0  0  0  0  0  0
   -1.7761    1.9835    0.0288 O   0  0  0  0  0  0  0  0  0  0  0  0
   -0.1109   -1.0968   -0.2021 C   0  0  2  0  0  0  0  0  0  0  0  0
    0.9555   -0.1379    0.2905 C   0  0  1  0  0  0  0  0  0  0  0  0
   -1.3772   -0.4060    0.2529 C   0  0  1  0  0  0  0  0  0  0  0  0
    2.2306   -0.1970   -0.5328 C   0  0  0  0  0  0  0  0  0  0  0  0
   -1.0011    1.0462    0.1355 C   0  0  0  0  0  0  0  0  0  0  0  0
   -0.0968   -1.2281   -1.2901 H   0  0  0  0  0  0  0  0  0  0  0  0
    1.2006   -0.2882    1.3498 H   0  0  0  0  0  0  0  0  0  0  0  0
   -1.6145   -0.6339    1.2980 H   0  0  0  0  0  0  0  0  0  0  0  0
    2.0485    0.0694   -1.5791 H   0  0  0  0  0  0  0  0  0  0  0  0
    2.6825   -1.1924   -0.4941 H   0  0  0  0  0  0  0  0  0  0  0  0
    0.0108   -2.2437    1.3769 H   0  0  0  0  0  0  0  0  0  0  0  0
   -3.2557   -0.2526   -0.1919 H   0  0  0  0  0  0  0  0  0  0  0  0
    2.7428    1.6152   -0.0409 H   0  0  0  0  0  0  0  0  0  0  0  0
  1  7  1  0  0  0  0
  1 10  1  0  0  0  0
  2  6  1  0  0  0  0
  2 16  1  0  0  0  0
  3  8  1  0  0  0  0
  3 17  1  0  0  0  0
  4  9  1  0  0  0  0
  4 18  1  0  0  0  0
  5 10  2  0  0  0  0
  6  7  1  0  0  0  0
  6  8  1  0  0  0  0
  6 11  1  0  0  0  0
  7  9  1  0  0  0  0
  7 12  1  0  0  0  0
  8 10  1  0  0  0  0
  8 13  1  0  0  0  0
  9 14  1  0  0  0  0
  9 15  1  0  0  0  0
M  END
> <PUBCHEM_COMPOUND_CID>
17723

> <PUBCHEM_CONFORMER_RMSD>
0.4

> <PUBCHEM_CONFORMER_DIVERSEORDER>
1
6
2
5
3
4

> <PUBCHEM_MMFF94_PARTIAL_CHARGES>
13
1 -0.43
10 0.66
16 0.4
17 0.4
18 0.4
2 -0.68
3 -0.68
4 -0.68
5 -0.57
6 0.28
7 0.28
8 0.34
9 0.28

> <PUBCHEM_EFFECTIVE_ROTOR_COUNT>
1.8

> <PUBCHEM_PHARMACOPHORE_FEATURES>
8
1 2 acceptor
1 2 donor
1 3 acceptor
1 3 donor
1 4 acceptor
1 4 donor
1 5 acceptor
5 1 6 7 8 10 rings

> <PUBCHEM_HEAVY_ATOM_COUNT>
10

> <PUBCHEM_ATOM_DEF_STEREO_COUNT>
3

> <PUBCHEM_ATOM_UDEF_STEREO_COUNT>
0

> <PUBCHEM_BOND_DEF_STEREO_COUNT>
0

> <PUBCHEM_BOND_UDEF_STEREO_COUNT>
0

> <PUBCHEM_ISOTOPIC_ATOM_COUNT>
0

> <PUBCHEM_COMPONENT_COUNT>
1

> <PUBCHEM_CACTVS_TAUTO_COUNT>
6

> <PUBCHEM_CONFORMER_ID>
0000453B00000001

> <PUBCHEM_MMFF94_ENERGY>
14.3982

> <PUBCHEM_FEATURE_SELFOVERLAP>
40.6

> <PUBCHEM_SHAPE_FINGERPRINT>
12423570 1 17775289408091145687
12716758 59 18411987953321571666
14325111 11 18411139095927213428
16714656 1 18339365261424548774
16945 1 18337680826917272174
21040471 1 18052252895356567913
23552423 10 18192151499258096110
241688 4 18125434465261459115
2748010 2 18338804394572477190
29004967 10 15841556262444215958
369184 2 18343303669383986848
5084963 1 18130790070341091960

> <PUBCHEM_SHAPE_MULTIPOLES>
176.45
3.21
1.85
0.66
1.67
0.31
0.02
-0.8
0.45
-0.63
-0.18
0
0.08
-0.07

> <PUBCHEM_SHAPE_SELFOVERLAP>
357.15

> <PUBCHEM_SHAPE_VOLUME>
104.5

> <PUBCHEM_COORDINATE_TYPE>
2
5
10

$$$$
