138380
  -OEChem-11012400323D

 23 24  0     0  0  0  0  0  0999 V2000
   -0.3813    1.0957   -0.0011 C   0  0  0  0  0  0  0  0  0  0  0  0
    1.0114   -1.0975    0.0011 C   0  0  0  0  0  0  0  0  0  0  0  0
    0.5295    1.0506    1.2474 C   0  0  0  0  0  0  0  0  0  0  0  0
    0.5290    1.0480   -1.2498 C   0  0  0  0  0  0  0  0  0  0  0  0
    1.3584   -0.2554    1.2485 C   0  0  0  0  0  0  0  0  0  0  0  0
    1.3567   -0.2589   -1.2492 C   0  0  0  0  0  0  0  0  0  0  0  0
   -1.2147   -0.1766    0.0007 C   0  0  0  0  0  0  0  0  0  0  0  0
   -0.4883   -1.3092    0.0022 C   0  0  0  0  0  0  0  0  0  0  0  0
   -2.7007   -0.0968    0.0001 C   0  0  0  0  0  0  0  0  0  0  0  0
   -1.0024    1.9968   -0.0019 H   0  0  0  0  0  0  0  0  0  0  0  0
    1.5491   -2.0502    0.0020 H   0  0  0  0  0  0  0  0  0  0  0  0
   -0.0740    1.1041    2.1622 H   0  0  0  0  0  0  0  0  0  0  0  0
    1.2015    1.9170    1.2609 H   0  0  0  0  0  0  0  0  0  0  0  0
    1.2018    1.9138   -1.2649 H   0  0  0  0  0  0  0  0  0  0  0  0
   -0.0747    1.1005   -2.1644 H   0  0  0  0  0  0  0  0  0  0  0  0
    2.4286   -0.0167    1.2630 H   0  0  0  0  0  0  0  0  0  0  0  0
    1.1485   -0.8230    2.1637 H   0  0  0  0  0  0  0  0  0  0  0  0
    1.1447   -0.8287   -2.1625 H   0  0  0  0  0  0  0  0  0  0  0  0
    2.4271   -0.0211   -1.2662 H   0  0  0  0  0  0  0  0  0  0  0  0
   -0.9232   -2.3002    0.0032 H   0  0  0  0  0  0  0  0  0  0  0  0
   -3.0529    0.4379    0.8877 H   0  0  0  0  0  0  0  0  0  0  0  0
   -3.1598   -1.0907    0.0013 H   0  0  0  0  0  0  0  0  0  0  0  0
   -3.0523    0.4355   -0.8893 H   0  0  0  0  0  0  0  0  0  0  0  0
  1  3  1  0  0  0  0
  1  4  1  0  0  0  0
  1  7  1  0  0  0  0
  1 10  1  0  0  0  0
  2  5  1  0  0  0  0
  2  6  1  0  0  0  0
  2  8  1  0  0  0  0
  2 11  1  0  0  0  0
  3  5  1  0  0  0  0
  3 12  1  0  0  0  0
  3 13  1  0  0  0  0
  4  6  1  0  0  0  0
  4 14  1  0  0  0  0
  4 15  1  0  0  0  0
  5 16  1  0  0  0  0
  5 17  1  0  0  0  0
  6 18  1  0  0  0  0
  6 19  1  0  0  0  0
  7  8  2  0  0  0  0
  7  9  1  0  0  0  0
  8 20  1  0  0  0  0
  9 21  1  0  0  0  0
  9 22  1  0  0  0  0
  9 23  1  0  0  0  0
M  END
> <PUBCHEM_COMPOUND_CID>
138380

> <PUBCHEM_CONFORMER_RMSD>
0.4

> <PUBCHEM_CONFORMER_DIVERSEORDER>
1

> <PUBCHEM_MMFF94_PARTIAL_CHARGES>
6
1 0.14
2 0.14
20 0.15
7 -0.28
8 -0.29
9 0.14

> <PUBCHEM_EFFECTIVE_ROTOR_COUNT>
0.8

> <PUBCHEM_PHARMACOPHORE_FEATURES>
1
8 1 2 3 4 5 6 7 8 rings

> <PUBCHEM_HEAVY_ATOM_COUNT>
9

> <PUBCHEM_ATOM_DEF_STEREO_COUNT>
0

> <PUBCHEM_ATOM_UDEF_STEREO_COUNT>
0

> <PUBCHEM_BOND_DEF_STEREO_COUNT>
0

> <PUBCHEM_BOND_UDEF_STEREO_COUNT>
0

> <PUBCHEM_ISOTOPIC_ATOM_COUNT>
0

> <PUBCHEM_COMPONENT_COUNT>
1

> <PUBCHEM_CACTVS_TAUTO_COUNT>
1

> <PUBCHEM_CONFORMER_ID>
00021C8C00000001

> <PUBCHEM_MMFF94_ENERGY>
21.6253

> <PUBCHEM_FEATURE_SELFOVERLAP>
5.074

> <PUBCHEM_SHAPE_FINGERPRINT>
12423570 1 17033615738024145020
13024252 1 13563370149546238478
137420 1 10813794329323031178
16945 1 18410854356495717994
20653091 64 16660361480806593657
21040471 1 18266458896155352611
29004967 10 16153972578454883576
5084963 1 18335139791368970203
68250623 7 17695052689109814088

> <PUBCHEM_SHAPE_MULTIPOLES>
185.22
2.22
1.34
1.31
1.7
0
0
-0.29
0
-0.13
0
-0.65
0.27
0

> <PUBCHEM_SHAPE_SELFOVERLAP>
387.294

> <PUBCHEM_SHAPE_VOLUME>
100.6

> <PUBCHEM_COORDINATE_TYPE>
2
5
10

$$$$
