66099
  -OEChem-11012400433D

 38 38  0     0  0  0  0  0  0999 V2000
   -2.4098    1.7380    0.0027 O   0  0  0  0  0  0  0  0  0  0  0  0
   -0.1526    3.3361   -0.0005 O   0  0  0  0  0  0  0  0  0  0  0  0
   -2.2398   -1.1046    0.0015 C   0  0  0  0  0  0  0  0  0  0  0  0
    2.7252   -0.6064   -0.0013 C   0  0  0  0  0  0  0  0  0  0  0  0
   -1.0364   -0.2203   -0.0001 C   0  0  0  0  0  0  0  0  0  0  0  0
    1.3260    0.0314   -0.0018 C   0  0  0  0  0  0  0  0  0  0  0  0
    0.2331   -0.7982   -0.0008 C   0  0  0  0  0  0  0  0  0  0  0  0
   -1.8330   -2.6100    0.0020 C   0  0  0  0  0  0  0  0  0  0  0  0
   -3.1245   -0.8552   -1.2584 C   0  0  0  0  0  0  0  0  0  0  0  0
   -3.1974   -0.9299    1.2257 C   0  0  0  0  0  0  0  0  0  0  0  0
    2.5947   -2.1448    0.0000 C   0  0  0  0  0  0  0  0  0  0  0  0
    3.4989   -0.1612    1.2587 C   0  0  0  0  0  0  0  0  0  0  0  0
    3.5875   -0.2227   -1.2252 C   0  0  0  0  0  0  0  0  0  0  0  0
   -1.1708    1.1683    0.0001 C   0  0  0  0  0  0  0  0  0  0  0  0
    1.2341    1.4007   -0.0017 C   0  0  0  0  0  0  0  0  0  0  0  0
   -0.0354    1.9787   -0.0007 C   0  0  0  0  0  0  0  0  0  0  0  0
    0.3378   -1.8659   -0.0009 H   0  0  0  0  0  0  0  0  0  0  0  0
   -1.2658   -2.8900   -0.8940 H   0  0  0  0  0  0  0  0  0  0  0  0
   -1.2766   -2.8934    0.9037 H   0  0  0  0  0  0  0  0  0  0  0  0
   -2.7294   -3.2442   -0.0086 H   0  0  0  0  0  0  0  0  0  0  0  0
   -2.5250   -0.9291   -2.1737 H   0  0  0  0  0  0  0  0  0  0  0  0
   -3.9232   -1.6034   -1.3290 H   0  0  0  0  0  0  0  0  0  0  0  0
   -3.6120    0.1235   -1.2600 H   0  0  0  0  0  0  0  0  0  0  0  0
   -2.6479   -1.0749    2.1632 H   0  0  0  0  0  0  0  0  0  0  0  0
   -3.6524    0.0639    1.2656 H   0  0  0  0  0  0  0  0  0  0  0  0
   -4.0161   -1.6584    1.1994 H   0  0  0  0  0  0  0  0  0  0  0  0
    3.5941   -2.6009    0.0117 H   0  0  0  0  0  0  0  0  0  0  0  0
    2.0947   -2.5291    0.8975 H   0  0  0  0  0  0  0  0  0  0  0  0
    2.1071   -2.5326   -0.9027 H   0  0  0  0  0  0  0  0  0  0  0  0
    2.9356   -0.3950    2.1701 H   0  0  0  0  0  0  0  0  0  0  0  0
    4.4654   -0.6741    1.3288 H   0  0  0  0  0  0  0  0  0  0  0  0
    3.7037    0.9150    1.2650 H   0  0  0  0  0  0  0  0  0  0  0  0
    4.5593   -0.7292   -1.2064 H   0  0  0  0  0  0  0  0  0  0  0  0
    3.0825   -0.4978   -2.1586 H   0  0  0  0  0  0  0  0  0  0  0  0
    3.7797    0.8552   -1.2665 H   0  0  0  0  0  0  0  0  0  0  0  0
    2.1098    2.0416   -0.0072 H   0  0  0  0  0  0  0  0  0  0  0  0
   -2.3583    2.6324   -0.3714 H   0  0  0  0  0  0  0  0  0  0  0  0
   -1.0214    3.5883    0.3517 H   0  0  0  0  0  0  0  0  0  0  0  0
  1 14  1  0  0  0  0
  1 37  1  0  0  0  0
  2 16  1  0  0  0  0
  2 38  1  0  0  0  0
  3  5  1  0  0  0  0
  3  8  1  0  0  0  0
  3  9  1  0  0  0  0
  3 10  1  0  0  0  0
  4  6  1  0  0  0  0
  4 11  1  0  0  0  0
  4 12  1  0  0  0  0
  4 13  1  0  0  0  0
  5  7  1  0  0  0  0
  5 14  2  0  0  0  0
  6  7  2  0  0  0  0
  6 15  1  0  0  0  0
  7 17  1  0  0  0  0
  8 18  1  0  0  0  0
  8 19  1  0  0  0  0
  8 20  1  0  0  0  0
  9 21  1  0  0  0  0
  9 22  1  0  0  0  0
  9 23  1  0  0  0  0
 10 24  1  0  0  0  0
 10 25  1  0  0  0  0
 10 26  1  0  0  0  0
 11 27  1  0  0  0  0
 11 28  1  0  0  0  0
 11 29  1  0  0  0  0
 12 30  1  0  0  0  0
 12 31  1  0  0  0  0
 12 32  1  0  0  0  0
 13 33  1  0  0  0  0
 13 34  1  0  0  0  0
 13 35  1  0  0  0  0
 14 16  1  0  0  0  0
 15 16  2  0  0  0  0
 15 36  1  0  0  0  0
M  END
> <PUBCHEM_COMPOUND_CID>
66099

> <PUBCHEM_CONFORMER_RMSD>
0.6

> <PUBCHEM_CONFORMER_DIVERSEORDER>
2
1

> <PUBCHEM_MMFF94_PARTIAL_CHARGES>
14
1 -0.53
14 0.08
15 -0.15
16 0.08
17 0.15
2 -0.53
3 0.14
36 0.15
37 0.45
38 0.45
4 0.14
5 -0.14
6 -0.14
7 -0.15

> <PUBCHEM_EFFECTIVE_ROTOR_COUNT>
2

> <PUBCHEM_PHARMACOPHORE_FEATURES>
5
1 1 donor
1 2 donor
4 3 8 9 10 hydrophobe
4 4 11 12 13 hydrophobe
6 5 6 7 14 15 16 rings

> <PUBCHEM_HEAVY_ATOM_COUNT>
16

> <PUBCHEM_ATOM_DEF_STEREO_COUNT>
0

> <PUBCHEM_ATOM_UDEF_STEREO_COUNT>
0

> <PUBCHEM_BOND_DEF_STEREO_COUNT>
0

> <PUBCHEM_BOND_UDEF_STEREO_COUNT>
0

> <PUBCHEM_ISOTOPIC_ATOM_COUNT>
0

> <PUBCHEM_COMPONENT_COUNT>
1

> <PUBCHEM_CACTVS_TAUTO_COUNT>
10

> <PUBCHEM_CONFORMER_ID>
0001023300000002

> <PUBCHEM_MMFF94_ENERGY>
70.1468

> <PUBCHEM_FEATURE_SELFOVERLAP>
25.376

> <PUBCHEM_SHAPE_FINGERPRINT>
10618630 7 18408888425463229646
10967382 1 18338516468433574983
11206711 2 18408319973551012669
11543360 7 15647057117740375814
12202030 40 16988010375443102262
12382932 28 18411976923592309314
12553582 1 18410580620934387470
12932764 1 18060420188208461238
13140716 1 18122625230032115091
13296908 3 18202280278025172622
13538477 17 18115873997183738948
13583140 156 13901905587771163023
14144814 61 18410575089032269698
14289901 80 15625938793689979094
15001771 113 18339086020020664737
15375462 189 18187370977324695338
15490181 7 17619346507215883053
15490181 8 17472700226192985153
15848700 24 18343013423910101655
16752209 62 18336255743867915175
16945 1 18410855511720705255
18186145 218 16950569852664957838
19591789 44 17620199732697671257
19868273 325 18410855455933518876
20361792 2 18341894129557439239
20510252 161 18270960124781590520
20645477 70 17905316687352444559
20871998 184 18271529680362797997
20871998 22 18341056288938869754
21296965 67 18410013273171468235
21501502 16 18267585702432358462
21524375 3 17475232401498581793
22721475 48 18336830882748689875
22802520 49 18057048995363296054
2334 1 18338517426211554819
23388829 49 18269826682991160620
23402539 116 18270381837600194839
23419403 2 17612544138234518460
23552423 10 17977388557554962135
23557571 272 18273215283808171092
23559900 14 18269833126222839382
23598291 2 17985560080854859207
23598294 1 18336834086862637514
2748010 2 18411972589786054844
34934 24 18410845586088311426
352729 6 17906171746025021548
5902787 121 18190172580281259322
6338986 31 18341035410955235503
7364860 26 17981610677678896808
74978 22 18267304425040000135
81228 2 18337669694246340904
8809292 202 18196372516123646190

> <PUBCHEM_SHAPE_MULTIPOLES>
317.53
5.63
2.71
1
1.53
1.3
0
-2.6
0
-0.69
0.01
0.07
-0.21
0.04

> <PUBCHEM_SHAPE_SELFOVERLAP>
657.291

> <PUBCHEM_SHAPE_VOLUME>
185.6

> <PUBCHEM_COORDINATE_TYPE>
2
5
10

$$$$
