141788
  -OEChem-11012400333D

 17 19  0     0  0  0  0  0  0999 V2000
    0.7099    0.1473    0.0000 C   0  0  0  0  0  0  0  0  0  0  0  0
   -0.7100    0.1473    0.0000 C   0  0  0  0  0  0  0  0  0  0  0  0
    0.0000    1.4526    0.0011 C   0  0  0  0  0  0  0  0  0  0  0  0
    1.8017   -0.4376    0.7674 C   0  0  0  0  0  0  0  0  0  0  0  0
    1.8021   -0.4359   -0.7678 C   0  0  0  0  0  0  0  0  0  0  0  0
   -1.8018   -0.4373    0.7673 C   0  0  0  0  0  0  0  0  0  0  0  0
   -1.8019   -0.4363   -0.7679 C   0  0  0  0  0  0  0  0  0  0  0  0
    0.0000    2.0313    0.9155 H   0  0  0  0  0  0  0  0  0  0  0  0
    0.0000    2.0329   -0.9123 H   0  0  0  0  0  0  0  0  0  0  0  0
    1.6333   -1.3847    1.2636 H   0  0  0  0  0  0  0  0  0  0  0  0
    2.4942    0.2270    1.2675 H   0  0  0  0  0  0  0  0  0  0  0  0
    2.4948    0.2297   -1.2661 H   0  0  0  0  0  0  0  0  0  0  0  0
    1.6340   -1.3819   -1.2662 H   0  0  0  0  0  0  0  0  0  0  0  0
   -2.4944    0.2274    1.2670 H   0  0  0  0  0  0  0  0  0  0  0  0
   -1.6335   -1.3842    1.2639 H   0  0  0  0  0  0  0  0  0  0  0  0
   -1.6336   -1.3824   -1.2659 H   0  0  0  0  0  0  0  0  0  0  0  0
   -2.4946    0.2292   -1.2666 H   0  0  0  0  0  0  0  0  0  0  0  0
  1  2  1  0  0  0  0
  1  3  1  0  0  0  0
  1  4  1  0  0  0  0
  1  5  1  0  0  0  0
  2  3  1  0  0  0  0
  2  6  1  0  0  0  0
  2  7  1  0  0  0  0
  3  8  1  0  0  0  0
  3  9  1  0  0  0  0
  4  5  1  0  0  0  0
  4 10  1  0  0  0  0
  4 11  1  0  0  0  0
  5 12  1  0  0  0  0
  5 13  1  0  0  0  0
  6  7  1  0  0  0  0
  6 14  1  0  0  0  0
  6 15  1  0  0  0  0
  7 16  1  0  0  0  0
  7 17  1  0  0  0  0
M  END
> <PUBCHEM_COMPOUND_CID>
141788

> <PUBCHEM_CONFORMER_RMSD>
0.4

> <PUBCHEM_CONFORMER_DIVERSEORDER>
1

> <PUBCHEM_MMFF94_PARTIAL_CHARGES>
15
10 0.1
11 0.1
12 0.1
13 0.1
14 0.1
15 0.1
16 0.1
17 0.1
3 -0.2
4 -0.2
5 -0.2
6 -0.2
7 -0.2
8 0.1
9 0.1

> <PUBCHEM_EFFECTIVE_ROTOR_COUNT>
1

> <PUBCHEM_PHARMACOPHORE_FEATURES>
0

> <PUBCHEM_HEAVY_ATOM_COUNT>
7

> <PUBCHEM_ATOM_DEF_STEREO_COUNT>
0

> <PUBCHEM_ATOM_UDEF_STEREO_COUNT>
0

> <PUBCHEM_BOND_DEF_STEREO_COUNT>
0

> <PUBCHEM_BOND_UDEF_STEREO_COUNT>
0

> <PUBCHEM_ISOTOPIC_ATOM_COUNT>
0

> <PUBCHEM_COMPONENT_COUNT>
1

> <PUBCHEM_CACTVS_TAUTO_COUNT>
1

> <PUBCHEM_CONFORMER_ID>
000229DC00000001

> <PUBCHEM_MMFF94_ENERGY>
33.4931

> <PUBCHEM_FEATURE_SELFOVERLAP>
0

> <PUBCHEM_SHAPE_FINGERPRINT>
12897270 3 15647347388773191935
21040471 1 17690280408923560000
23552423 10 17897170117627882042
24536 1 18410576188474974721
29004967 10 18409733984085139498

> <PUBCHEM_SHAPE_MULTIPOLES>
144.06
2.62
1.03
0.95
0
0.39
0
-0.79
0
0
0
0
-0.15
0

> <PUBCHEM_SHAPE_SELFOVERLAP>
300.307

> <PUBCHEM_SHAPE_VOLUME>
87.2

> <PUBCHEM_COORDINATE_TYPE>
2
5
10

$$$$
