7257
  -OEChem-11012401223D

 14 14  0     0  0  0  0  0  0999 V2000
    1.8498   -2.0561    0.0000 Cl  0  0  0  0  0  0  0  0  0  0  0  0
    2.7474    1.0527   -0.0001 Cl  0  0  0  0  0  0  0  0  0  0  0  0
   -2.9909   -0.4334   -0.0002 N   0  0  0  0  0  0  0  0  0  0  0  0
   -1.6218   -0.0953    0.0001 C   0  0  0  0  0  0  0  0  0  0  0  0
   -0.6548   -1.1006    0.0002 C   0  0  0  0  0  0  0  0  0  0  0  0
   -1.2347    1.2448    0.0000 C   0  0  0  0  0  0  0  0  0  0  0  0
    0.6993   -0.7658    0.0000 C   0  0  0  0  0  0  0  0  0  0  0  0
    0.1194    1.5795    0.0001 C   0  0  0  0  0  0  0  0  0  0  0  0
    1.0864    0.5742    0.0001 C   0  0  0  0  0  0  0  0  0  0  0  0
   -0.9619   -2.1445    0.0002 H   0  0  0  0  0  0  0  0  0  0  0  0
   -1.9788    2.0372   -0.0001 H   0  0  0  0  0  0  0  0  0  0  0  0
    0.4033    2.6289    0.0000 H   0  0  0  0  0  0  0  0  0  0  0  0
   -3.6922    0.2953    0.0004 H   0  0  0  0  0  0  0  0  0  0  0  0
   -3.2727   -1.4046    0.0005 H   0  0  0  0  0  0  0  0  0  0  0  0
  1  7  1  0  0  0  0
  2  9  1  0  0  0  0
  3  4  1  0  0  0  0
  3 13  1  0  0  0  0
  3 14  1  0  0  0  0
  4  5  2  0  0  0  0
  4  6  1  0  0  0  0
  5  7  1  0  0  0  0
  5 10  1  0  0  0  0
  6  8  2  0  0  0  0
  6 11  1  0  0  0  0
  7  9  2  0  0  0  0
  8  9  1  0  0  0  0
  8 12  1  0  0  0  0
M  END
> <PUBCHEM_COMPOUND_CID>
7257

> <PUBCHEM_CONFORMER_RMSD>
0.4

> <PUBCHEM_CONFORMER_DIVERSEORDER>
1

> <PUBCHEM_MMFF94_PARTIAL_CHARGES>
14
1 -0.18
10 0.15
11 0.15
12 0.15
13 0.4
14 0.4
2 -0.18
3 -0.9
4 0.1
5 -0.15
6 -0.15
7 0.18
8 -0.15
9 0.18

> <PUBCHEM_EFFECTIVE_ROTOR_COUNT>
0

> <PUBCHEM_PHARMACOPHORE_FEATURES>
3
1 3 cation
1 3 donor
6 4 5 6 7 8 9 rings

> <PUBCHEM_HEAVY_ATOM_COUNT>
9

> <PUBCHEM_ATOM_DEF_STEREO_COUNT>
0

> <PUBCHEM_ATOM_UDEF_STEREO_COUNT>
0

> <PUBCHEM_BOND_DEF_STEREO_COUNT>
0

> <PUBCHEM_BOND_UDEF_STEREO_COUNT>
0

> <PUBCHEM_ISOTOPIC_ATOM_COUNT>
0

> <PUBCHEM_COMPONENT_COUNT>
1

> <PUBCHEM_CACTVS_TAUTO_COUNT>
1

> <PUBCHEM_CONFORMER_ID>
00001C5900000001

> <PUBCHEM_MMFF94_ENERGY>
29.3052

> <PUBCHEM_FEATURE_SELFOVERLAP>
15.223

> <PUBCHEM_SHAPE_FINGERPRINT>
12423570 1 16597902373970385916
14128692 85 18195816171729608542
161256 15 18339366266599831526
16945 1 18338516446995772197
18185500 45 18341046423314477959
193761 8 18194682562140269572
21040471 1 17762337319956049924
23235685 24 18336823211952832516
23402655 69 18268411496453899941
23552423 10 18261960622176711374
241688 4 18120094983240921104
2748010 2 18337669689893078469
29004967 10 18334019427416451025
5084963 1 18128811950017376778
528862 383 18334286574466807578

> <PUBCHEM_SHAPE_MULTIPOLES>
183.97
3.4
1.97
0.62
0.42
0.36
0
0.12
0
-0.97
0
-0.05
0
0

> <PUBCHEM_SHAPE_SELFOVERLAP>
364.453

> <PUBCHEM_SHAPE_VOLUME>
110.7

> <PUBCHEM_COORDINATE_TYPE>
2
5
10

$$$$
