524968
  -OEChem-11012401023D

 30 31  0     1  0  0  0  0  0999 V2000
    1.4938    0.2671   -0.0008 Si  0  0  0  0  0  0  0  0  0  0  0  0
    0.4036    1.4826    0.3890 O   0  0  0  0  0  0  0  0  0  0  0  0
    1.0920   -0.3411   -1.5129 O   0  0  0  0  0  0  0  0  0  0  0  0
    1.3279   -0.9666    1.1263 O   0  0  0  0  0  0  0  0  0  0  0  0
   -1.5863   -0.8875    0.0004 N   0  0  0  0  0  0  0  0  0  0  0  0
   -1.8815    0.5218    0.2458 C   0  0  0  0  0  0  0  0  0  0  0  0
   -0.8617    1.5634   -0.2729 C   0  0  1  0  0  0  0  0  0  0  0  0
   -1.2036   -1.2749   -1.3535 C   0  0  0  0  0  0  0  0  0  0  0  0
   -1.0523   -1.6735    1.1082 C   0  0  0  0  0  0  0  0  0  0  0  0
    0.2914   -1.5155   -1.6192 C   0  0  0  0  0  0  0  0  0  0  0  0
    0.1291   -1.0759    1.8895 C   0  0  0  0  0  0  0  0  0  0  0  0
   -1.3924    2.9730    0.0014 C   0  0  0  0  0  0  0  0  0  0  0  0
    3.2402    0.9273   -0.0013 C   0  0  0  0  0  0  0  0  0  0  0  0
   -2.0572    0.6805    1.3177 H   0  0  0  0  0  0  0  0  0  0  0  0
   -2.8469    0.7303   -0.2343 H   0  0  0  0  0  0  0  0  0  0  0  0
   -0.7329    1.4849   -1.3599 H   0  0  0  0  0  0  0  0  0  0  0  0
   -1.5875   -0.5444   -2.0764 H   0  0  0  0  0  0  0  0  0  0  0  0
   -1.7299   -2.2099   -1.5845 H   0  0  0  0  0  0  0  0  0  0  0  0
   -0.7847   -2.6791    0.7605 H   0  0  0  0  0  0  0  0  0  0  0  0
   -1.8715   -1.8259    1.8226 H   0  0  0  0  0  0  0  0  0  0  0  0
    0.6988   -2.3322   -1.0100 H   0  0  0  0  0  0  0  0  0  0  0  0
    0.3909   -1.8551   -2.6578 H   0  0  0  0  0  0  0  0  0  0  0  0
   -0.1263   -0.1230    2.3703 H   0  0  0  0  0  0  0  0  0  0  0  0
    0.3588   -1.7612    2.7148 H   0  0  0  0  0  0  0  0  0  0  0  0
   -2.3546    3.1403   -0.4924 H   0  0  0  0  0  0  0  0  0  0  0  0
   -1.5132    3.1450    1.0767 H   0  0  0  0  0  0  0  0  0  0  0  0
   -0.6814    3.7245   -0.3593 H   0  0  0  0  0  0  0  0  0  0  0  0
    3.9538    0.1375   -0.2542 H   0  0  0  0  0  0  0  0  0  0  0  0
    3.3505    1.7327   -0.7334 H   0  0  0  0  0  0  0  0  0  0  0  0
    3.5058    1.3236    0.9832 H   0  0  0  0  0  0  0  0  0  0  0  0
  1  2  1  0  0  0  0
  1  3  1  0  0  0  0
  1  4  1  0  0  0  0
  1 13  1  0  0  0  0
  2  7  1  0  0  0  0
  3 10  1  0  0  0  0
  4 11  1  0  0  0  0
  5  6  1  0  0  0  0
  5  8  1  0  0  0  0
  5  9  1  0  0  0  0
  6  7  1  0  0  0  0
  6 14  1  0  0  0  0
  6 15  1  0  0  0  0
  7 12  1  0  0  0  0
  7 16  1  0  0  0  0
  8 10  1  0  0  0  0
  8 17  1  0  0  0  0
  8 18  1  0  0  0  0
  9 11  1  0  0  0  0
  9 19  1  0  0  0  0
  9 20  1  0  0  0  0
 10 21  1  0  0  0  0
 10 22  1  0  0  0  0
 11 23  1  0  0  0  0
 11 24  1  0  0  0  0
 12 25  1  0  0  0  0
 12 26  1  0  0  0  0
 12 27  1  0  0  0  0
 13 28  1  0  0  0  0
 13 29  1  0  0  0  0
 13 30  1  0  0  0  0
M  END
> <PUBCHEM_COMPOUND_CID>
524968

> <PUBCHEM_CONFORMER_RMSD>
0.6

> <PUBCHEM_CONFORMER_DIVERSEORDER>
1
2

> <PUBCHEM_MMFF94_PARTIAL_CHARGES>
12
1 0.97
10 0.28
11 0.28
13 -0.08
2 -0.58
3 -0.58
4 -0.58
5 -0.81
6 0.27
7 0.28
8 0.27
9 0.27

> <PUBCHEM_EFFECTIVE_ROTOR_COUNT>
1.8

> <PUBCHEM_PHARMACOPHORE_FEATURES>
1
1 5 cation

> <PUBCHEM_HEAVY_ATOM_COUNT>
13

> <PUBCHEM_ATOM_DEF_STEREO_COUNT>
0

> <PUBCHEM_ATOM_UDEF_STEREO_COUNT>
1

> <PUBCHEM_BOND_DEF_STEREO_COUNT>
0

> <PUBCHEM_BOND_UDEF_STEREO_COUNT>
0

> <PUBCHEM_ISOTOPIC_ATOM_COUNT>
0

> <PUBCHEM_COMPONENT_COUNT>
1

> <PUBCHEM_CACTVS_TAUTO_COUNT>
1

> <PUBCHEM_CONFORMER_ID>
000802A800000001

> <PUBCHEM_MMFF94_ENERGY>
41.9551

> <PUBCHEM_FEATURE_SELFOVERLAP>
5.074

> <PUBCHEM_SHAPE_FINGERPRINT>
10702982 57 18045486535322360136
12423570 1 15363823974655199763
13024252 1 17604703507905006546
141345 1 10509589707008720323
144361 1 17700121390073699147
14817 1 16187967279126056967
15557651 10 18060699519695642266
15775835 57 17755031795476499452
16945 1 18408604768611380200
20511035 2 17690532231435250225
23419403 2 17046325095982514394
241688 4 15822703679402315448
2748010 2 18056775233873575116
4175511 376 16751501309344777279
430814 3 18045211648683290768
44249140 249 17702686396198548702
528886 8 17988640843399652775
535629 181 18195796599368234550
68250623 7 18338792304577304842

> <PUBCHEM_SHAPE_MULTIPOLES>
263.16
2.8
2.46
1.58
2
1.75
0
0.65
0
-1.27
0
-0.03
-1.06
0

> <PUBCHEM_SHAPE_SELFOVERLAP>
513.993

> <PUBCHEM_SHAPE_VOLUME>
157.4

> <PUBCHEM_COORDINATE_TYPE>
2
5
10

$$$$
