136922
  -OEChem-11012401203D

 23 22  0     0  0  0  0  0  0999 V2000
    1.4194    1.8846    0.4642 O   0  0  0  0  0  0  0  0  0  0  0  0
    0.9227   -2.1713    0.4642 O   0  0  0  0  0  0  0  0  0  0  0  0
   -2.3418    0.2867    0.4642 O   0  0  0  0  0  0  0  0  0  0  0  0
    2.1637    0.0424   -0.7078 O   0  0  0  0  0  0  0  0  0  0  0  0
   -1.0451   -1.8952   -0.7074 O   0  0  0  0  0  0  0  0  0  0  0  0
   -1.1189    1.8527   -0.7076 O   0  0  0  0  0  0  0  0  0  0  0  0
    0.0000    0.0001    0.4077 C   0  0  0  0  0  0  0  0  0  0  0  0
    1.3219    0.6132   -0.0265 C   0  0  0  0  0  0  0  0  0  0  0  0
   -0.1299   -1.4514   -0.0262 C   0  0  0  0  0  0  0  0  0  0  0  0
   -1.1921    0.8383   -0.0264 C   0  0  0  0  0  0  0  0  0  0  0  0
    2.6244    2.5822    0.1340 C   0  0  0  0  0  0  0  0  0  0  0  0
    0.9243   -3.5637    0.1337 C   0  0  0  0  0  0  0  0  0  0  0  0
   -3.5486    0.9813    0.1338 C   0  0  0  0  0  0  0  0  0  0  0  0
    0.0001    0.0002    1.5068 H   0  0  0  0  0  0  0  0  0  0  0  0
    2.7128    2.6920   -0.9511 H   0  0  0  0  0  0  0  0  0  0  0  0
    3.4916    2.0541    0.5416 H   0  0  0  0  0  0  0  0  0  0  0  0
    2.5756    3.5771    0.5844 H   0  0  0  0  0  0  0  0  0  0  0  0
    1.8103   -4.0189    0.5840 H   0  0  0  0  0  0  0  0  0  0  0  0
    0.9750   -3.6949   -0.9514 H   0  0  0  0  0  0  0  0  0  0  0  0
    0.0334   -4.0508    0.5414 H   0  0  0  0  0  0  0  0  0  0  0  0
   -3.6878    1.0029   -0.9512 H   0  0  0  0  0  0  0  0  0  0  0  0
   -3.5252    1.9963    0.5416 H   0  0  0  0  0  0  0  0  0  0  0  0
   -4.3857    0.4413    0.5842 H   0  0  0  0  0  0  0  0  0  0  0  0
  1  8  1  0  0  0  0
  1 11  1  0  0  0  0
  2  9  1  0  0  0  0
  2 12  1  0  0  0  0
  3 10  1  0  0  0  0
  3 13  1  0  0  0  0
  4  8  2  0  0  0  0
  5  9  2  0  0  0  0
  6 10  2  0  0  0  0
  7  8  1  0  0  0  0
  7  9  1  0  0  0  0
  7 10  1  0  0  0  0
  7 14  1  0  0  0  0
 11 15  1  0  0  0  0
 11 16  1  0  0  0  0
 11 17  1  0  0  0  0
 12 18  1  0  0  0  0
 12 19  1  0  0  0  0
 12 20  1  0  0  0  0
 13 21  1  0  0  0  0
 13 22  1  0  0  0  0
 13 23  1  0  0  0  0
M  END
> <PUBCHEM_COMPOUND_CID>
136922

> <PUBCHEM_CONFORMER_RMSD>
0.6

> <PUBCHEM_CONFORMER_DIVERSEORDER>
1
11
2
5
8
10
9
7
6
3
4

> <PUBCHEM_MMFF94_PARTIAL_CHARGES>
13
1 -0.43
10 0.66
11 0.28
12 0.28
13 0.28
2 -0.43
3 -0.43
4 -0.57
5 -0.57
6 -0.57
7 0.18
8 0.66
9 0.66

> <PUBCHEM_EFFECTIVE_ROTOR_COUNT>
6

> <PUBCHEM_PHARMACOPHORE_FEATURES>
4
1 4 acceptor
1 5 acceptor
1 6 acceptor
1 7 anion

> <PUBCHEM_HEAVY_ATOM_COUNT>
13

> <PUBCHEM_ATOM_DEF_STEREO_COUNT>
0

> <PUBCHEM_ATOM_UDEF_STEREO_COUNT>
0

> <PUBCHEM_BOND_DEF_STEREO_COUNT>
0

> <PUBCHEM_BOND_UDEF_STEREO_COUNT>
0

> <PUBCHEM_ISOTOPIC_ATOM_COUNT>
0

> <PUBCHEM_COMPONENT_COUNT>
1

> <PUBCHEM_CACTVS_TAUTO_COUNT>
1

> <PUBCHEM_CONFORMER_ID>
000216DA00000001

> <PUBCHEM_MMFF94_ENERGY>
23.3716

> <PUBCHEM_FEATURE_SELFOVERLAP>
20.298

> <PUBCHEM_SHAPE_FINGERPRINT>
1 1 18410013208509627413
12138202 78 18191863423301682517
12423570 1 12711260466290862528
12532896 13 18268151040018168773
13380535 76 18199186381116901388
14817 1 16545463825315398554
15490181 7 18411418418835113109
16945 1 18337952285982710841
17990270 104 18048594824708335779
20645477 70 18263921030799167967
20711985 344 17691677209734449594
21501502 16 18196368350158356388
21524375 3 18272930569877804857
23402539 116 17693361652837169438
23598294 1 18047178941463310832
2748010 2 18264219177868367263
3071541 250 17979084777400024271
5255222 1 18336828597894400525
528862 383 18265049141733459803
54338 74 17542769254562545272
58554843 112 18336273357839909139
7364860 26 18267019462169738249
81228 2 17690279738792214785

> <PUBCHEM_SHAPE_MULTIPOLES>
232.32
3.63
3.63
0.72
2.26
2.91
-0.03
-2.91
0.11
-2.26
0.11
0
0
0

> <PUBCHEM_SHAPE_SELFOVERLAP>
453.141

> <PUBCHEM_SHAPE_VOLUME>
140

> <PUBCHEM_COORDINATE_TYPE>
2
5
10

$$$$
