79013
  -OEChem-11012400453D

 74 78  0     0  0  0  0  0  0999 V2000
   -1.9960    0.4938   -0.2211 N   0  0  0  0  0  0  0  0  0  0  0  0
    0.5368    2.1617   -0.5208 N   0  0  0  0  0  0  0  0  0  0  0  0
   -0.4541   -1.9414    0.0020 N   0  0  0  0  0  0  0  0  0  0  0  0
    1.9645   -0.3801   -0.0016 N   0  0  0  0  0  0  0  0  0  0  0  0
    0.3019    4.1862    0.3478 C   0  0  0  0  0  0  0  0  0  0  0  0
   -0.3964    3.1142   -0.1757 C   0  0  0  0  0  0  0  0  0  0  0  0
   -4.2071    0.3139   -0.6466 C   0  0  0  0  0  0  0  0  0  0  0  0
   -2.4392    1.7716   -0.4545 C   0  0  0  0  0  0  0  0  0  0  0  0
   -3.8824    1.6263   -0.7251 C   0  0  0  0  0  0  0  0  0  0  0  0
   -2.9919   -0.4462   -0.3244 C   0  0  0  0  0  0  0  0  0  0  0  0
    1.6774    3.8568    0.3387 C   0  0  0  0  0  0  0  0  0  0  0  0
    1.8036    2.5856   -0.1862 C   0  0  0  0  0  0  0  0  0  0  0  0
   -1.7806    2.9426   -0.4392 C   0  0  0  0  0  0  0  0  0  0  0  0
   -0.2812    5.4582    0.8286 C   0  0  0  0  0  0  0  0  0  0  0  0
    4.1719   -0.3701   -0.6221 C   0  0  0  0  0  0  0  0  0  0  0  0
    2.9958    0.4521   -0.3760 C   0  0  0  0  0  0  0  0  0  0  0  0
   -5.5357   -0.3335   -0.8397 C   0  0  0  0  0  0  0  0  0  0  0  0
   -0.3500   -4.1215    0.6952 C   0  0  0  0  0  0  0  0  0  0  0  0
   -1.6417   -2.4592    0.1220 C   0  0  0  0  0  0  0  0  0  0  0  0
   -2.9244   -1.7773   -0.1708 C   0  0  0  0  0  0  0  0  0  0  0  0
    2.9464    1.7922   -0.4624 C   0  0  0  0  0  0  0  0  0  0  0  0
   -1.6604   -3.8689    0.5627 C   0  0  0  0  0  0  0  0  0  0  0  0
    3.8863   -1.6608   -0.4004 C   0  0  0  0  0  0  0  0  0  0  0  0
    0.4233   -2.9386    0.3518 C   0  0  0  0  0  0  0  0  0  0  0  0
    2.4628   -1.5826   -0.0124 C   0  0  0  0  0  0  0  0  0  0  0  0
   -4.7705    2.7848   -1.0289 C   0  0  0  0  0  0  0  0  0  0  0  0
    1.7601   -2.8360    0.3565 C   0  0  0  0  0  0  0  0  0  0  0  0
    2.7812    4.7229    0.8078 C   0  0  0  0  0  0  0  0  0  0  0  0
    5.4795    0.2027   -1.0567 C   0  0  0  0  0  0  0  0  0  0  0  0
    0.2868   -5.4003    1.1249 C   0  0  0  0  0  0  0  0  0  0  0  0
   -0.6369    5.4217    2.3173 C   0  0  0  0  0  0  0  0  0  0  0  0
   -6.3157   -0.4313    0.4608 C   0  0  0  0  0  0  0  0  0  0  0  0
   -2.8602   -4.7047    0.7900 C   0  0  0  0  0  0  0  0  0  0  0  0
    4.7027   -2.8904   -0.5133 C   0  0  0  0  0  0  0  0  0  0  0  0
    6.3603    0.5673    0.1257 C   0  0  0  0  0  0  0  0  0  0  0  0
    0.5832   -6.3116   -0.0539 C   0  0  0  0  0  0  0  0  0  0  0  0
   -2.3420    3.8574   -0.6122 H   0  0  0  0  0  0  0  0  0  0  0  0
   -1.0535    0.2587    0.0465 H   0  0  0  0  0  0  0  0  0  0  0  0
    0.3296    1.2866   -0.9824 H   0  0  0  0  0  0  0  0  0  0  0  0
    0.4197    6.2835    0.6539 H   0  0  0  0  0  0  0  0  0  0  0  0
   -1.1805    5.7121    0.2555 H   0  0  0  0  0  0  0  0  0  0  0  0
   -6.1288    0.2499   -1.5545 H   0  0  0  0  0  0  0  0  0  0  0  0
   -5.4402   -1.3223   -1.3010 H   0  0  0  0  0  0  0  0  0  0  0  0
   -3.8051   -2.4014   -0.2622 H   0  0  0  0  0  0  0  0  0  0  0  0
    3.8476    2.3463   -0.7095 H   0  0  0  0  0  0  0  0  0  0  0  0
   -4.4425    3.2944   -1.9408 H   0  0  0  0  0  0  0  0  0  0  0  0
   -5.8098    2.4790   -1.1801 H   0  0  0  0  0  0  0  0  0  0  0  0
   -4.7634    3.5039   -0.2032 H   0  0  0  0  0  0  0  0  0  0  0  0
    2.3834   -3.6818    0.6230 H   0  0  0  0  0  0  0  0  0  0  0  0
    3.6813    4.1461    1.0434 H   0  0  0  0  0  0  0  0  0  0  0  0
    2.5021    5.2648    1.7169 H   0  0  0  0  0  0  0  0  0  0  0  0
    3.0405    5.4565    0.0376 H   0  0  0  0  0  0  0  0  0  0  0  0
    6.0161   -0.5305   -1.6718 H   0  0  0  0  0  0  0  0  0  0  0  0
    5.3437    1.0685   -1.7138 H   0  0  0  0  0  0  0  0  0  0  0  0
   -0.3838   -5.9325    1.8109 H   0  0  0  0  0  0  0  0  0  0  0  0
    1.1971   -5.2227    1.7077 H   0  0  0  0  0  0  0  0  0  0  0  0
   -1.3784    4.6429    2.5253 H   0  0  0  0  0  0  0  0  0  0  0  0
   -1.0558    6.3837    2.6289 H   0  0  0  0  0  0  0  0  0  0  0  0
    0.2462    5.2184    2.9318 H   0  0  0  0  0  0  0  0  0  0  0  0
   -5.7893   -1.0479    1.1969 H   0  0  0  0  0  0  0  0  0  0  0  0
   -6.4827    0.5575    0.9014 H   0  0  0  0  0  0  0  0  0  0  0  0
   -7.2944   -0.8873    0.2797 H   0  0  0  0  0  0  0  0  0  0  0  0
   -3.5102   -4.2492    1.5436 H   0  0  0  0  0  0  0  0  0  0  0  0
   -3.4291   -4.8217   -0.1377 H   0  0  0  0  0  0  0  0  0  0  0  0
   -2.5992   -5.7071    1.1415 H   0  0  0  0  0  0  0  0  0  0  0  0
    4.2484   -3.5915   -1.2203 H   0  0  0  0  0  0  0  0  0  0  0  0
    4.7922   -3.3837    0.4597 H   0  0  0  0  0  0  0  0  0  0  0  0
    5.7161   -2.6777   -0.8655 H   0  0  0  0  0  0  0  0  0  0  0  0
    7.3194    0.9607   -0.2264 H   0  0  0  0  0  0  0  0  0  0  0  0
    6.5668   -0.3060    0.7540 H   0  0  0  0  0  0  0  0  0  0  0  0
    5.8931    1.3344    0.7521 H   0  0  0  0  0  0  0  0  0  0  0  0
   -0.3293   -6.5580   -0.6075 H   0  0  0  0  0  0  0  0  0  0  0  0
    1.2895   -5.8476   -0.7504 H   0  0  0  0  0  0  0  0  0  0  0  0
    1.0257   -7.2494    0.2970 H   0  0  0  0  0  0  0  0  0  0  0  0
  1  8  1  0  0  0  0
  1 10  1  0  0  0  0
  1 38  1  0  0  0  0
  2  6  1  0  0  0  0
  2 12  1  0  0  0  0
  2 39  1  0  0  0  0
  3 19  2  0  0  0  0
  3 24  1  0  0  0  0
  4 16  1  0  0  0  0
  4 25  2  0  0  0  0
  5  6  2  0  0  0  0
  5 11  1  0  0  0  0
  5 14  1  0  0  0  0
  6 13  1  0  0  0  0
  7  9  2  0  0  0  0
  7 10  1  0  0  0  0
  7 17  1  0  0  0  0
  8  9  1  0  0  0  0
  8 13  2  0  0  0  0
  9 26  1  0  0  0  0
 10 20  2  0  0  0  0
 11 12  2  0  0  0  0
 11 28  1  0  0  0  0
 12 21  1  0  0  0  0
 13 37  1  0  0  0  0
 14 31  1  0  0  0  0
 14 40  1  0  0  0  0
 14 41  1  0  0  0  0
 15 16  1  0  0  0  0
 15 23  2  0  0  0  0
 15 29  1  0  0  0  0
 16 21  2  0  0  0  0
 17 32  1  0  0  0  0
 17 42  1  0  0  0  0
 17 43  1  0  0  0  0
 18 22  2  0  0  0  0
 18 24  1  0  0  0  0
 18 30  1  0  0  0  0
 19 20  1  0  0  0  0
 19 22  1  0  0  0  0
 20 44  1  0  0  0  0
 21 45  1  0  0  0  0
 22 33  1  0  0  0  0
 23 25  1  0  0  0  0
 23 34  1  0  0  0  0
 24 27  2  0  0  0  0
 25 27  1  0  0  0  0
 26 46  1  0  0  0  0
 26 47  1  0  0  0  0
 26 48  1  0  0  0  0
 27 49  1  0  0  0  0
 28 50  1  0  0  0  0
 28 51  1  0  0  0  0
 28 52  1  0  0  0  0
 29 35  1  0  0  0  0
 29 53  1  0  0  0  0
 29 54  1  0  0  0  0
 30 36  1  0  0  0  0
 30 55  1  0  0  0  0
 30 56  1  0  0  0  0
 31 57  1  0  0  0  0
 31 58  1  0  0  0  0
 31 59  1  0  0  0  0
 32 60  1  0  0  0  0
 32 61  1  0  0  0  0
 32 62  1  0  0  0  0
 33 63  1  0  0  0  0
 33 64  1  0  0  0  0
 33 65  1  0  0  0  0
 34 66  1  0  0  0  0
 34 67  1  0  0  0  0
 34 68  1  0  0  0  0
 35 69  1  0  0  0  0
 35 70  1  0  0  0  0
 35 71  1  0  0  0  0
 36 72  1  0  0  0  0
 36 73  1  0  0  0  0
 36 74  1  0  0  0  0
M  END
> <PUBCHEM_COMPOUND_CID>
79013

> <PUBCHEM_CONFORMER_RMSD>
0.8

> <PUBCHEM_CONFORMER_DIVERSEORDER>
1
2

> <PUBCHEM_MMFF94_PARTIAL_CHARGES>
38
1 -0.6
10 0.1
11 -0.18
12 -0.2
13 -0.11
14 0.18
15 -0.14
16 0.17
17 0.14
18 -0.14
19 0.42
2 0.03
20 -0.14
21 -0.11
22 -0.12
23 -0.12
24 0.17
25 0.42
26 0.14
27 -0.14
28 0.18
29 0.14
3 -0.62
30 0.14
33 0.14
34 0.14
37 0.15
38 0.4
39 0.27
4 -0.62
44 0.15
45 0.15
49 0.15
5 -0.18
6 -0.2
7 -0.14
8 0.1
9 -0.14

> <PUBCHEM_EFFECTIVE_ROTOR_COUNT>
4

> <PUBCHEM_PHARMACOPHORE_FEATURES>
14
1 1 cation
1 1 donor
1 2 cation
1 2 donor
1 3 acceptor
1 31 hydrophobe
1 32 hydrophobe
1 35 hydrophobe
1 36 hydrophobe
1 4 acceptor
5 1 7 8 9 10 rings
5 2 5 6 11 12 rings
5 3 18 19 22 24 rings
5 4 15 16 23 25 rings

> <PUBCHEM_HEAVY_ATOM_COUNT>
36

> <PUBCHEM_ATOM_DEF_STEREO_COUNT>
0

> <PUBCHEM_ATOM_UDEF_STEREO_COUNT>
0

> <PUBCHEM_BOND_DEF_STEREO_COUNT>
0

> <PUBCHEM_BOND_UDEF_STEREO_COUNT>
0

> <PUBCHEM_ISOTOPIC_ATOM_COUNT>
0

> <PUBCHEM_COMPONENT_COUNT>
1

> <PUBCHEM_CACTVS_TAUTO_COUNT>
2

> <PUBCHEM_CONFORMER_ID>
000134A500000001

> <PUBCHEM_MMFF94_ENERGY>
85.0094

> <PUBCHEM_FEATURE_SELFOVERLAP>
71.049

> <PUBCHEM_SHAPE_FINGERPRINT>
10190206 1 18194423108410289830
10439779 11 18337378410017571760
10675989 125 17613990803225869885
1100329 8 18337673125845666741
11014199 57 17545032707102994219
11513181 2 17696479859440009582
12677640 9 18341623667884392369
12788726 201 18269274569498975700
13140716 1 18193273215782013105
13402501 40 18409449193351543405
140371 6 18341623616049898604
14394314 77 18340492157780583441
14415360 78 18262498365015215285
14647877 51 18051413165200373160
14725015 67 18410567383955840685
15320467 1 18409729590291423590
15351339 4 18335411318974459769
15890870 6 18334294253583444614
15927050 60 18051976115264304839
17627616 140 17974852761350069574
19311894 1 18411992346931242890
19930381 70 18263921038946094783
20028762 73 18123745358257630150
20764821 26 18408882923393592264
20775438 99 17478576437613864055
21133410 221 17769628100815895920
23559900 14 18195803196470357669
238918 7 17334492100367150760
3178227 256 18335997415134373963
3383291 50 18337388339618352947
3882209 13 17260431170236474094
463206 1 18339363071039012709
50150288 127 17055266285996478033
5171179 24 17908991250758501836
5309563 4 18339922589745925141
5776283 40 18263655128983976436
653340 110 17042603691884289537
9961470 85 18123464153605090761

> <PUBCHEM_SHAPE_MULTIPOLES>
720.94
10.31
9.92
1.06
0.15
1.97
0.33
-0.07
-3.13
-0.19
4.8
0.23
-0.78
1.2

> <PUBCHEM_SHAPE_SELFOVERLAP>
1576.367

> <PUBCHEM_SHAPE_VOLUME>
399.7

> <PUBCHEM_COORDINATE_TYPE>
2
5
10

$$$$
