5463124
  -OEChem-11012400303D

 54 54  0     1  0  0  0  0  0999 V2000
    1.8949    3.6778    0.5587 O   0  0  0  0  0  0  0  0  0  0  0  0
    6.5582   -2.4296    0.9542 O   0  0  0  0  0  0  0  0  0  0  0  0
   -2.7104   -0.9714   -1.0881 C   0  0  0  0  0  0  0  0  0  0  0  0
   -2.9703   -2.4430   -0.6707 C   0  0  0  0  0  0  0  0  0  0  0  0
   -2.9229   -0.0013    0.0928 C   0  0  0  0  0  0  0  0  0  0  0  0
   -4.2440   -2.5895    0.1450 C   0  0  0  0  0  0  0  0  0  0  0  0
   -4.1533   -1.7586    1.4172 C   0  0  0  0  0  0  0  0  0  0  0  0
   -3.5531   -0.3819    1.2313 C   0  0  0  0  0  0  0  0  0  0  0  0
   -3.6668   -0.5959   -2.2417 C   0  0  0  0  0  0  0  0  0  0  0  0
   -1.2597   -0.9077   -1.6147 C   0  0  0  0  0  0  0  0  0  0  0  0
   -2.3957    1.4038   -0.1013 C   0  0  0  0  0  0  0  0  0  0  0  0
   -3.7149    0.4914    2.4508 C   0  0  0  0  0  0  0  0  0  0  0  0
   -0.9839    1.5478    0.3877 C   0  0  0  0  0  0  0  0  0  0  0  0
   -0.0276    2.3822   -0.0700 C   0  0  0  0  0  0  0  0  0  0  0  0
    1.3547    2.3554    0.5641 C   0  0  1  0  0  0  0  0  0  0  0  0
   -0.2332    3.3538   -1.2044 C   0  0  0  0  0  0  0  0  0  0  0  0
    2.2989    1.4307   -0.1611 C   0  0  0  0  0  0  0  0  0  0  0  0
    2.9356    0.4103    0.4379 C   0  0  0  0  0  0  0  0  0  0  0  0
    3.8636   -0.5345   -0.1878 C   0  0  0  0  0  0  0  0  0  0  0  0
    4.1457   -0.3622   -1.6574 C   0  0  0  0  0  0  0  0  0  0  0  0
    4.4104   -1.5018    0.5781 C   0  0  0  0  0  0  0  0  0  0  0  0
    5.3740   -2.5758    0.1794 C   0  0  0  0  0  0  0  0  0  0  0  0
   -3.0281   -3.0889   -1.5560 H   0  0  0  0  0  0  0  0  0  0  0  0
   -2.1278   -2.8177   -0.0727 H   0  0  0  0  0  0  0  0  0  0  0  0
   -5.1146   -2.2799   -0.4445 H   0  0  0  0  0  0  0  0  0  0  0  0
   -4.4037   -3.6423    0.4053 H   0  0  0  0  0  0  0  0  0  0  0  0
   -5.1609   -1.6691    1.8416 H   0  0  0  0  0  0  0  0  0  0  0  0
   -3.5450   -2.2992    2.1539 H   0  0  0  0  0  0  0  0  0  0  0  0
   -3.6169   -1.3344   -3.0504 H   0  0  0  0  0  0  0  0  0  0  0  0
   -4.7081   -0.5399   -1.9063 H   0  0  0  0  0  0  0  0  0  0  0  0
   -3.4160    0.3747   -2.6831 H   0  0  0  0  0  0  0  0  0  0  0  0
   -1.0249    0.0554   -2.0800 H   0  0  0  0  0  0  0  0  0  0  0  0
   -0.5328   -1.0913   -0.8152 H   0  0  0  0  0  0  0  0  0  0  0  0
   -1.0946   -1.6713   -2.3846 H   0  0  0  0  0  0  0  0  0  0  0  0
   -2.4883    1.6861   -1.1529 H   0  0  0  0  0  0  0  0  0  0  0  0
   -3.0268    2.1253    0.4304 H   0  0  0  0  0  0  0  0  0  0  0  0
   -3.4096   -0.0592    3.3477 H   0  0  0  0  0  0  0  0  0  0  0  0
   -4.7646    0.7799    2.5675 H   0  0  0  0  0  0  0  0  0  0  0  0
   -3.1136    1.4024    2.4329 H   0  0  0  0  0  0  0  0  0  0  0  0
   -0.7193    0.9128    1.2338 H   0  0  0  0  0  0  0  0  0  0  0  0
    1.2667    2.0674    1.6194 H   0  0  0  0  0  0  0  0  0  0  0  0
   -0.1123    4.3837   -0.8527 H   0  0  0  0  0  0  0  0  0  0  0  0
   -1.2249    3.2911   -1.6573 H   0  0  0  0  0  0  0  0  0  0  0  0
    0.4969    3.1695   -1.9991 H   0  0  0  0  0  0  0  0  0  0  0  0
    2.4591    1.6389   -1.2158 H   0  0  0  0  0  0  0  0  0  0  0  0
    2.7676    3.6424    0.9867 H   0  0  0  0  0  0  0  0  0  0  0  0
    2.7452    0.2541    1.4991 H   0  0  0  0  0  0  0  0  0  0  0  0
    3.2220   -0.4558   -2.2394 H   0  0  0  0  0  0  0  0  0  0  0  0
    4.5853    0.6227   -1.8513 H   0  0  0  0  0  0  0  0  0  0  0  0
    4.8437   -1.0993   -2.0590 H   0  0  0  0  0  0  0  0  0  0  0  0
    4.1361   -1.5430    1.6330 H   0  0  0  0  0  0  0  0  0  0  0  0
    4.9421   -3.5555    0.4060 H   0  0  0  0  0  0  0  0  0  0  0  0
    5.6524   -2.5725   -0.8750 H   0  0  0  0  0  0  0  0  0  0  0  0
    6.9683   -1.5828    0.7069 H   0  0  0  0  0  0  0  0  0  0  0  0
  1 15  1  0  0  0  0
  1 46  1  0  0  0  0
  2 22  1  0  0  0  0
  2 54  1  0  0  0  0
  3  4  1  0  0  0  0
  3  5  1  0  0  0  0
  3  9  1  0  0  0  0
  3 10  1  0  0  0  0
  4  6  1  0  0  0  0
  4 23  1  0  0  0  0
  4 24  1  0  0  0  0
  5  8  2  0  0  0  0
  5 11  1  0  0  0  0
  6  7  1  0  0  0  0
  6 25  1  0  0  0  0
  6 26  1  0  0  0  0
  7  8  1  0  0  0  0
  7 27  1  0  0  0  0
  7 28  1  0  0  0  0
  8 12  1  0  0  0  0
  9 29  1  0  0  0  0
  9 30  1  0  0  0  0
  9 31  1  0  0  0  0
 10 32  1  0  0  0  0
 10 33  1  0  0  0  0
 10 34  1  0  0  0  0
 11 13  1  0  0  0  0
 11 35  1  0  0  0  0
 11 36  1  0  0  0  0
 12 37  1  0  0  0  0
 12 38  1  0  0  0  0
 12 39  1  0  0  0  0
 13 14  2  0  0  0  0
 13 40  1  0  0  0  0
 14 15  1  0  0  0  0
 14 16  1  0  0  0  0
 15 17  1  0  0  0  0
 15 41  1  0  0  0  0
 16 42  1  0  0  0  0
 16 43  1  0  0  0  0
 16 44  1  0  0  0  0
 17 18  2  0  0  0  0
 17 45  1  0  0  0  0
 18 19  1  0  0  0  0
 18 47  1  0  0  0  0
 19 20  1  0  0  0  0
 19 21  2  0  0  0  0
 20 48  1  0  0  0  0
 20 49  1  0  0  0  0
 20 50  1  0  0  0  0
 21 22  1  0  0  0  0
 21 51  1  0  0  0  0
 22 52  1  0  0  0  0
 22 53  1  0  0  0  0
M  END
> <PUBCHEM_COMPOUND_CID>
5463124

> <PUBCHEM_CONFORMER_RMSD>
0.8

> <PUBCHEM_CONFORMER_DIVERSEORDER>
6
17
276
360
119
112
394
438
194
174
257
410
218
290
143
328
431
236
398
352
37
448
245
77
26
43
405
403
151
428
39
372
281
187
451
249
269
171
173
446
197
216
231
319
35
320
293
208
139
452
366
60
412
23
164
369
354
8
380
232
74
94
443
207
384
86
176
258
213
407
426
205
72
364
45
316
395
14
284
36
335
332
162
13
259
450
101
454
302
254
291
95
253
423
98
48
62
221
178
5
248
414
222
309
55
419
133
220
58
88
82
361
170
251
166
406
341
172
18
129
374
138
435
411
427
168
315
83
339
421
184
111
114
326
301
371
1
377
128
4
203
242
424
47
61
432
440
145
156
381
146
325
223
310
400
300
152
188
415
240
434
327
439
159
97
186
103
383
137
340
346
81
402
54
32
255
69
237
393
109
397
65
456
376
453
256
134
115
399
244
368
127
84
70
147
304
149
177
322
344
250
79
243
277
215
102
93
262
271
52
356
169
386
313
122
370
306
196
99
201
59
225
351
388
349
66
140
68
132
444
378
206
230
308
317
64
382
136
437
92
148
267
387
314
182
430
318
283
2
106
264
71
33
49
76
121
404
234
375
275
150
63
38
299
363
73
198
20
46
100
460
202
263
25
118
108
329
458
261
22
348
116
347
229
158
209
342
153
289
330
357
107
298
246
165
90
9
28
266
210
21
333
418
260
296
89
312
135
455
441
268
422
157
12
185
417
247
331
183
10
179
192
355
57
78
457
50
433
396
359
193
91
160
105
75
80
211
274
345
270
365
305
272
391
87
212
27
425
392
265
227
15
181
273
241
19
337
125
29
120
16
323
449
334
350
413
292
367
311
163
44
303
56
34
252
442
336
154
204
104
390
373
238
239
41
175
85
31
141
286
123
282
96
167
385
228
131
278
358
362
401
117
447
459
11
295
285
219
53
51
379
161
40
24
279
445
214
189
191
144
142
195
307
199
353
324
126
190
416
113
42
7
389
224
436
3
235
155
280
420
287
200
110
30
288
124
408
343
67
321
409
217
294
338
226
180
233
130
297
429

> <PUBCHEM_MMFF94_PARTIAL_CHARGES>
24
1 -0.68
11 0.28
12 0.14
13 -0.29
14 -0.28
15 0.56
16 0.14
17 -0.29
18 -0.15
19 -0.14
2 -0.68
20 0.14
21 -0.29
22 0.42
3 0.14
40 0.15
45 0.15
46 0.4
47 0.15
5 -0.28
51 0.15
54 0.4
7 0.14
8 -0.28

> <PUBCHEM_EFFECTIVE_ROTOR_COUNT>
6.8

> <PUBCHEM_PHARMACOPHORE_FEATURES>
8
1 1 acceptor
1 1 donor
1 16 hydrophobe
1 2 acceptor
1 2 donor
1 20 hydrophobe
3 3 9 10 hydrophobe
6 3 4 5 6 7 8 rings

> <PUBCHEM_HEAVY_ATOM_COUNT>
22

> <PUBCHEM_ATOM_DEF_STEREO_COUNT>
0

> <PUBCHEM_ATOM_UDEF_STEREO_COUNT>
1

> <PUBCHEM_BOND_DEF_STEREO_COUNT>
3

> <PUBCHEM_BOND_UDEF_STEREO_COUNT>
0

> <PUBCHEM_ISOTOPIC_ATOM_COUNT>
0

> <PUBCHEM_COMPONENT_COUNT>
1

> <PUBCHEM_CACTVS_TAUTO_COUNT>
1

> <PUBCHEM_CONFORMER_ID>
00535C5400000006

> <PUBCHEM_MMFF94_ENERGY>
36.764

> <PUBCHEM_FEATURE_SELFOVERLAP>
40.596

> <PUBCHEM_SHAPE_FINGERPRINT>
10928967 22 18411427219424283902
12107183 9 18270418113363677257
12174731 88 17177699062266270914
12422481 6 17916321453825333675
12553582 1 18341618109547786758
12633257 1 17703794691250761556
12990986 174 18338513041677452734
13103583 49 18200328653064251042
13533116 47 17984707981134654339
14251764 30 17677353704277143955
14480069 147 17531537464481543042
14844126 61 18122339086868935592
14863182 85 17831861622478049844
14866123 147 18267583507888745121
15537594 2 18337971042431920660
16110190 28 18273217495695242586
17780758 139 17917711258276923322
1813 80 18338250335164747484
20291156 8 18411421738797535436
21095088 737 7997963549134197243
21388113 180 10807670964379877586
21403212 168 18127985113959562905
235170 7 16008752424454294786
445580 182 17560806485176241234
484985 159 18262513694022083811
5486654 36 18411142406909357121
56633871 153 18271813380338952187
6431902 208 18262795164983798594
7097593 13 17985274216442924121
7808743 9 9294989298593742310
7970288 3 18335423482301639810
88748 71 18407762555541971882

> <PUBCHEM_SHAPE_MULTIPOLES>
441.01
11.69
3.9
1.77
13.96
1.89
-0.13
-12.58
2.72
2.18
0.11
-1.91
-0.21
-0.84

> <PUBCHEM_SHAPE_SELFOVERLAP>
872.956

> <PUBCHEM_SHAPE_VOLUME>
262.3

> <PUBCHEM_COORDINATE_TYPE>
2
5
10

$$$$
