21601662
  -OEChem-11012401273D

 31 31  0     0  0  0  0  0  0999 V2000
    0.5866    1.0226    1.6815 O   0  0  0  0  0  0  0  0  0  0  0  0
    2.6667    0.3773    0.0419 N   0  0  0  0  0  0  0  0  0  0  0  0
    1.4764   -0.4872   -0.0101 C   0  0  0  0  0  0  0  0  0  0  0  0
    1.1914   -0.7623   -1.4887 C   0  0  0  0  0  0  0  0  0  0  0  0
    1.8018   -1.7816    0.7384 C   0  0  0  0  0  0  0  0  0  0  0  0
    0.3624    0.2797    0.7257 C   0  0  0  0  0  0  0  0  0  0  0  0
    2.3906    1.6507   -0.6146 C   0  0  0  0  0  0  0  0  0  0  0  0
    3.8016   -0.2936   -0.5832 C   0  0  0  0  0  0  0  0  0  0  0  0
   -1.0478    0.1354    0.3102 C   0  0  0  0  0  0  0  0  0  0  0  0
   -1.6596   -1.1179    0.3420 C   0  0  0  0  0  0  0  0  0  0  0  0
   -1.7680    1.2524   -0.1136 C   0  0  0  0  0  0  0  0  0  0  0  0
   -2.9912   -1.2542   -0.0500 C   0  0  0  0  0  0  0  0  0  0  0  0
   -3.0997    1.1160   -0.5056 C   0  0  0  0  0  0  0  0  0  0  0  0
   -3.7113   -0.1373   -0.4738 C   0  0  0  0  0  0  0  0  0  0  0  0
    1.9901   -1.2712   -2.0341 H   0  0  0  0  0  0  0  0  0  0  0  0
    0.3468   -1.4593   -1.5693 H   0  0  0  0  0  0  0  0  0  0  0  0
    0.8737    0.1196   -2.0541 H   0  0  0  0  0  0  0  0  0  0  0  0
    2.4160   -2.4763    0.1553 H   0  0  0  0  0  0  0  0  0  0  0  0
    2.3096   -1.5820    1.6906 H   0  0  0  0  0  0  0  0  0  0  0  0
    0.8988   -2.3386    0.9992 H   0  0  0  0  0  0  0  0  0  0  0  0
    1.5115    2.1884   -0.2497 H   0  0  0  0  0  0  0  0  0  0  0  0
    2.3239    1.5859   -1.7063 H   0  0  0  0  0  0  0  0  0  0  0  0
    3.2298    2.3287   -0.4110 H   0  0  0  0  0  0  0  0  0  0  0  0
    4.0695   -1.2505   -0.1280 H   0  0  0  0  0  0  0  0  0  0  0  0
    4.6907    0.3296   -0.4141 H   0  0  0  0  0  0  0  0  0  0  0  0
    3.7428   -0.4069   -1.6698 H   0  0  0  0  0  0  0  0  0  0  0  0
   -1.1349   -2.0027    0.6817 H   0  0  0  0  0  0  0  0  0  0  0  0
   -1.3016    2.2337   -0.1449 H   0  0  0  0  0  0  0  0  0  0  0  0
   -3.4690   -2.2292   -0.0219 H   0  0  0  0  0  0  0  0  0  0  0  0
   -3.6604    1.9855   -0.8360 H   0  0  0  0  0  0  0  0  0  0  0  0
   -4.7484   -0.2433   -0.7783 H   0  0  0  0  0  0  0  0  0  0  0  0
  1  6  2  0  0  0  0
  2  3  1  0  0  0  0
  2  7  1  0  0  0  0
  2  8  1  0  0  0  0
  3  4  1  0  0  0  0
  3  5  1  0  0  0  0
  3  6  1  0  0  0  0
  4 15  1  0  0  0  0
  4 16  1  0  0  0  0
  4 17  1  0  0  0  0
  5 18  1  0  0  0  0
  5 19  1  0  0  0  0
  5 20  1  0  0  0  0
  6  9  1  0  0  0  0
  7 21  1  0  0  0  0
  7 22  1  0  0  0  0
  7 23  1  0  0  0  0
  8 24  1  0  0  0  0
  8 25  1  0  0  0  0
  8 26  1  0  0  0  0
  9 10  2  0  0  0  0
  9 11  1  0  0  0  0
 10 12  1  0  0  0  0
 10 27  1  0  0  0  0
 11 13  2  0  0  0  0
 11 28  1  0  0  0  0
 12 14  2  0  0  0  0
 12 29  1  0  0  0  0
 13 14  1  0  0  0  0
 13 30  1  0  0  0  0
 14 31  1  0  0  0  0
M  END
> <PUBCHEM_COMPOUND_CID>
21601662

> <PUBCHEM_CONFORMER_RMSD>
0.6

> <PUBCHEM_CONFORMER_DIVERSEORDER>
1
15
4
20
18
22
11
10
2
26
13
9
27
16
21
14
24
17
5
8
6
23
19
3
25
12
7

> <PUBCHEM_MMFF94_PARTIAL_CHARGES>
17
1 -0.57
10 -0.15
11 -0.15
12 -0.15
13 -0.15
14 -0.15
2 -0.81
27 0.15
28 0.15
29 0.15
3 0.33
30 0.15
31 0.15
6 0.42
7 0.27
8 0.27
9 0.09

> <PUBCHEM_EFFECTIVE_ROTOR_COUNT>
3

> <PUBCHEM_PHARMACOPHORE_FEATURES>
4
1 1 acceptor
1 2 cation
3 3 4 5 hydrophobe
6 9 10 11 12 13 14 rings

> <PUBCHEM_HEAVY_ATOM_COUNT>
14

> <PUBCHEM_ATOM_DEF_STEREO_COUNT>
0

> <PUBCHEM_ATOM_UDEF_STEREO_COUNT>
0

> <PUBCHEM_BOND_DEF_STEREO_COUNT>
0

> <PUBCHEM_BOND_UDEF_STEREO_COUNT>
0

> <PUBCHEM_ISOTOPIC_ATOM_COUNT>
0

> <PUBCHEM_COMPONENT_COUNT>
1

> <PUBCHEM_CACTVS_TAUTO_COUNT>
1

> <PUBCHEM_CONFORMER_ID>
01499D7E00000001

> <PUBCHEM_MMFF94_ENERGY>
57.7807

> <PUBCHEM_FEATURE_SELFOVERLAP>
20.297

> <PUBCHEM_SHAPE_FINGERPRINT>
10608611 8 18407755954182746621
12491281 212 17967540038362665573
12897270 3 18334579070065641157
12932764 1 18187936036206824117
15219456 202 18201150070081632873
15775835 57 17822293431552609821
16945 1 18335425664086126602
18186145 218 18409453552769676845
18534176 82 18335990843180516787
200 152 17775847895520785839
20201158 50 18131634461006665039
20361792 2 16200431364360783745
20645476 183 18113334207002223759
20671657 53 18193843630842795422
20871999 31 18261382391410185271
21119208 17 18333452036292681422
21501502 16 18338513049977159099
22344851 262 17676494938340160878
23402539 116 18335974311666648573
23402655 69 18261951851880009981
23419403 2 16039765515594069268
23552423 10 18188201018709857811
23557571 272 18409737252871977381
23559900 14 18269829836035460074
2748010 2 17618498126779315627
3248919 1 17917148304049529065
474 4 16806176590983988276
528886 8 18186236234116664938
57812782 119 18410858776212192604
7364860 26 18335416812322456058
8030462 33 18113904835966539835
81228 2 16986883324073743313
93112 12 18334857212263755357

> <PUBCHEM_SHAPE_MULTIPOLES>
277.26
5.95
1.6
1.1
0.92
0.02
0.05
-0.11
-1.45
-0.1
0.06
-0.38
-0.03
-0.02

> <PUBCHEM_SHAPE_SELFOVERLAP>
570.605

> <PUBCHEM_SHAPE_VOLUME>
160.8

> <PUBCHEM_COORDINATE_TYPE>
2
5
10

$$$$
