61818
  -OEChem-10312420362D

 38 37  0     1  0  0  0  0  0999 V2000
    5.4641   -1.2500    0.0000 O   0  0  0  0  0  0  0  0  0  0  0  0
    6.3301    1.2500    0.0000 O   0  0  0  0  0  0  0  0  0  0  0  0
    3.7320   -0.2500    0.0000 O   0  0  0  0  0  0  0  0  0  0  0  0
    8.0622    0.2500    0.0000 O   0  0  0  0  0  0  0  0  0  0  0  0
    3.7320    1.7500    0.0000 O   0  0  0  0  0  0  0  0  0  0  0  0
    8.0622   -1.7500    0.0000 O   0  0  0  0  0  0  0  0  0  0  0  0
    4.5981   -2.7500    0.0000 O   0  5  0  0  0  0  0  0  0  0  0  0
    7.1962    2.7500    0.0000 O   0  5  0  0  0  0  0  0  0  0  0  0
    3.7320   -1.2500    0.0000 O   0  0  0  0  0  0  0  0  0  0  0  0
    8.0622    1.2500    0.0000 O   0  0  0  0  0  0  0  0  0  0  0  0
    2.0000   -0.2500    0.0000 O   0  5  0  0  0  0  0  0  0  0  0  0
    9.7942    0.2500    0.0000 O   0  5  0  0  0  0  0  0  0  0  0  0
    2.8660    1.2500    0.0000 O   0  0  0  0  0  0  0  0  0  0  0  0
    8.9282   -1.2500    0.0000 O   0  0  0  0  0  0  0  0  0  0  0  0
    2.8660    3.2500    0.0000 O   0  5  0  0  0  0  0  0  0  0  0  0
    8.9282   -3.2500    0.0000 O   0  5  0  0  0  0  0  0  0  0  0  0
    4.5981    3.2500    0.0000 O   0  0  0  0  0  0  0  0  0  0  0  0
    7.1962   -3.2500    0.0000 O   0  0  0  0  0  0  0  0  0  0  0  0
    4.5981   -1.7500    0.0000 N   0  3  0  0  0  0  0  0  0  0  0  0
    7.1962    1.7500    0.0000 N   0  3  0  0  0  0  0  0  0  0  0  0
    2.8660    0.2500    0.0000 N   0  3  0  0  0  0  0  0  0  0  0  0
    8.9282   -0.2500    0.0000 N   0  3  0  0  0  0  0  0  0  0  0  0
    3.7320    2.7500    0.0000 N   0  3  0  0  0  0  0  0  0  0  0  0
    8.0622   -2.7500    0.0000 N   0  3  0  0  0  0  0  0  0  0  0  0
    5.4641   -0.2500    0.0000 C   0  0  1  0  0  0  0  0  0  0  0  0
    6.3301    0.2500    0.0000 C   0  0  1  0  0  0  0  0  0  0  0  0
    4.5981    0.2500    0.0000 C   0  0  1  0  0  0  0  0  0  0  0  0
    7.1962   -0.2500    0.0000 C   0  0  1  0  0  0  0  0  0  0  0  0
    4.5981    1.2500    0.0000 C   0  0  0  0  0  0  0  0  0  0  0  0
    7.1962   -1.2500    0.0000 C   0  0  0  0  0  0  0  0  0  0  0  0
    6.0010   -0.5600    0.0000 H   0  0  0  0  0  0  0  0  0  0  0  0
    6.8671    0.5600    0.0000 H   0  0  0  0  0  0  0  0  0  0  0  0
    4.5981   -0.3700    0.0000 H   0  0  0  0  0  0  0  0  0  0  0  0
    7.7331   -0.5600    0.0000 H   0  0  0  0  0  0  0  0  0  0  0  0
    5.2087    1.1423    0.0000 H   0  0  0  0  0  0  0  0  0  0  0  0
    4.8101    1.8326    0.0000 H   0  0  0  0  0  0  0  0  0  0  0  0
    6.5856   -1.1423    0.0000 H   0  0  0  0  0  0  0  0  0  0  0  0
    6.9841   -1.8326    0.0000 H   0  0  0  0  0  0  0  0  0  0  0  0
  1 19  1  0  0  0  0
 25  1  1  6  0  0  0
  2 20  1  0  0  0  0
 26  2  1  6  0  0  0
  3 21  1  0  0  0  0
 27  3  1  6  0  0  0
  4 22  1  0  0  0  0
 28  4  1  6  0  0  0
  5 23  1  0  0  0  0
  5 29  1  0  0  0  0
  6 24  1  0  0  0  0
  6 30  1  0  0  0  0
  7 19  1  0  0  0  0
  8 20  1  0  0  0  0
  9 19  2  0  0  0  0
 10 20  2  0  0  0  0
 11 21  1  0  0  0  0
 12 22  1  0  0  0  0
 13 21  2  0  0  0  0
 14 22  2  0  0  0  0
 15 23  1  0  0  0  0
 16 24  1  0  0  0  0
 17 23  2  0  0  0  0
 18 24  2  0  0  0  0
 25 26  1  0  0  0  0
 25 27  1  0  0  0  0
 25 31  1  0  0  0  0
 26 28  1  0  0  0  0
 26 32  1  0  0  0  0
 27 29  1  0  0  0  0
 27 33  1  0  0  0  0
 28 30  1  0  0  0  0
 28 34  1  0  0  0  0
 29 35  1  0  0  0  0
 29 36  1  0  0  0  0
 30 37  1  0  0  0  0
 30 38  1  0  0  0  0
M  CHG  8   7  -1   8  -1  11  -1  12  -1  15  -1  16  -1  19   1  20   1
M  CHG  4  21   1  22   1  23   1  24   1
M  END
> <PUBCHEM_COMPOUND_CID>
61818

> <PUBCHEM_COMPOUND_CANONICALIZED>
1

> <PUBCHEM_CACTVS_COMPLEXITY>
579

> <PUBCHEM_CACTVS_HBOND_ACCEPTOR>
18

> <PUBCHEM_CACTVS_HBOND_DONOR>
0

> <PUBCHEM_CACTVS_ROTATABLE_BOND>
11

> <PUBCHEM_CACTVS_SUBSKEYS>
AAADccBjvgAAAAAAAAAAAAAAAAAAAAAAAAAAAAAAAAAAAAAAAAAAGgAEAAAACBSggAIAAAAAQAABAAAAAQAAAAAAAAAAAAAAAAABAAIAAAAAAAAFAAAAAAHAYAQAAAAAAAAAAAAAAAAAAAAAAAAAAAAAAA==

> <PUBCHEM_IUPAC_OPENEYE_NAME>
[(1R,2R,3R)-1-[(1R)-1,2-dinitrooxyethyl]-2,3,4-trinitrooxy-butyl] nitrate

> <PUBCHEM_IUPAC_CAS_NAME>
nitric acid [(2R,3R,4R,5R)-1,2,4,5,6-pentanitrooxyhexan-3-yl] ester

> <PUBCHEM_IUPAC_NAME_MARKUP>
[(2<I>R</I>,3<I>R</I>,4<I>R</I>,5<I>R</I>)-1,2,4,5,6-pentanitrooxyhexan-3-yl] nitrate

> <PUBCHEM_IUPAC_NAME>
[(2R,3R,4R,5R)-1,2,4,5,6-pentanitrooxyhexan-3-yl] nitrate

> <PUBCHEM_IUPAC_SYSTEMATIC_NAME>
[(2R,3R,4R,5R)-1,2,4,5,6-pentanitrooxyhexan-3-yl] nitrate

> <PUBCHEM_IUPAC_TRADITIONAL_NAME>
nitric acid [(1R,2R,3R)-1-[(1R)-1,2-dinitrooxyethyl]-2,3,4-trinitrooxy-butyl] ester

> <PUBCHEM_IUPAC_INCHI>
InChI=1S/C6H8N6O18/c13-7(14)25-1-3(27-9(17)18)5(29-11(21)22)6(30-12(23)24)4(28-10(19)20)2-26-8(15)16/h3-6H,1-2H2/t3-,4-,5-,6-/m1/s1

> <PUBCHEM_IUPAC_INCHIKEY>
DGMJZELBSFOPHH-KVTDHHQDSA-N

> <PUBCHEM_XLOGP3_AA>
2.1

> <PUBCHEM_EXACT_MASS>
451.98950743

> <PUBCHEM_MOLECULAR_FORMULA>
C6H8N6O18

> <PUBCHEM_MOLECULAR_WEIGHT>
452.16

> <PUBCHEM_OPENEYE_CAN_SMILES>
C(C(C(C(C(CO[N+](=O)[O-])O[N+](=O)[O-])O[N+](=O)[O-])O[N+](=O)[O-])O[N+](=O)[O-])O[N+](=O)[O-]

> <PUBCHEM_OPENEYE_ISO_SMILES>
C([C@H]([C@H]([C@@H]([C@@H](CO[N+](=O)[O-])O[N+](=O)[O-])O[N+](=O)[O-])O[N+](=O)[O-])O[N+](=O)[O-])O[N+](=O)[O-]

> <PUBCHEM_CACTVS_TPSA>
330

> <PUBCHEM_MONOISOTOPIC_WEIGHT>
451.98950743

> <PUBCHEM_TOTAL_CHARGE>
0

> <PUBCHEM_HEAVY_ATOM_COUNT>
30

> <PUBCHEM_ATOM_DEF_STEREO_COUNT>
4

> <PUBCHEM_ATOM_UDEF_STEREO_COUNT>
0

> <PUBCHEM_BOND_DEF_STEREO_COUNT>
0

> <PUBCHEM_BOND_UDEF_STEREO_COUNT>
0

> <PUBCHEM_ISOTOPIC_ATOM_COUNT>
0

> <PUBCHEM_COMPONENT_COUNT>
1

> <PUBCHEM_CACTVS_TAUTO_COUNT>
-1

> <PUBCHEM_COORDINATE_TYPE>
1
5
255

> <PUBCHEM_BONDANNOTATIONS>
25  1  6
26  2  6
27  3  6
28  4  6

$$$$
