61156
  -OEChem-11012400563D

 50 52  0     0  0  0  0  0  0999 V2000
    0.0615   -0.8476   -0.8106 O   0  0  0  0  0  0  0  0  0  0  0  0
    1.8875    1.2381   -0.7512 O   0  0  0  0  0  0  0  0  0  0  0  0
   -2.2680    0.6845   -1.0352 O   0  0  0  0  0  0  0  0  0  0  0  0
    0.3519   -2.3893   -2.4952 O   0  0  0  0  0  0  0  0  0  0  0  0
    2.0508    3.3855    0.0619 O   0  0  0  0  0  0  0  0  0  0  0  0
   -4.1614    0.7979   -2.3394 O   0  0  0  0  0  0  0  0  0  0  0  0
   -0.0210    0.2054   -1.7738 C   0  0  0  0  0  0  0  0  0  0  0  0
    0.5366    1.4709   -1.1355 C   0  0  0  0  0  0  0  0  0  0  0  0
   -1.4791    0.3827   -2.1814 C   0  0  0  0  0  0  0  0  0  0  0  0
    0.2494   -2.0949   -1.3144 C   0  0  0  0  0  0  0  0  0  0  0  0
    0.3160   -3.0933   -0.2175 C   0  0  0  0  0  0  0  0  0  0  0  0
    2.5282    2.2839   -0.1615 C   0  0  0  0  0  0  0  0  0  0  0  0
   -3.5976    0.8685   -1.2584 C   0  0  0  0  0  0  0  0  0  0  0  0
    3.9231    1.9146    0.1882 C   0  0  0  0  0  0  0  0  0  0  0  0
   -4.3046    1.1767    0.0103 C   0  0  0  0  0  0  0  0  0  0  0  0
    0.5041   -4.4434   -0.5137 C   0  0  0  0  0  0  0  0  0  0  0  0
    0.1909   -2.6812    1.1093 C   0  0  0  0  0  0  0  0  0  0  0  0
    4.7581    2.8474    0.8035 C   0  0  0  0  0  0  0  0  0  0  0  0
   -5.6812    1.4027    0.0045 C   0  0  0  0  0  0  0  0  0  0  0  0
    4.3986    0.6348   -0.0979 C   0  0  0  0  0  0  0  0  0  0  0  0
   -3.5925    1.2400    1.2081 C   0  0  0  0  0  0  0  0  0  0  0  0
    0.5670   -5.3814    0.5169 C   0  0  0  0  0  0  0  0  0  0  0  0
    0.2539   -3.6193    2.1398 C   0  0  0  0  0  0  0  0  0  0  0  0
    0.4419   -4.9694    1.8434 C   0  0  0  0  0  0  0  0  0  0  0  0
    6.0686    2.5005    1.1323 C   0  0  0  0  0  0  0  0  0  0  0  0
   -6.3454    1.6921    1.1963 C   0  0  0  0  0  0  0  0  0  0  0  0
    5.7090    0.2880    0.2311 C   0  0  0  0  0  0  0  0  0  0  0  0
   -4.2570    1.5294    2.3999 C   0  0  0  0  0  0  0  0  0  0  0  0
    6.5440    1.2209    0.8462 C   0  0  0  0  0  0  0  0  0  0  0  0
   -5.6335    1.7554    2.3939 C   0  0  0  0  0  0  0  0  0  0  0  0
    0.5942   -0.0296   -2.6516 H   0  0  0  0  0  0  0  0  0  0  0  0
   -0.0322    1.7288   -0.2340 H   0  0  0  0  0  0  0  0  0  0  0  0
    0.4929    2.3058   -1.8445 H   0  0  0  0  0  0  0  0  0  0  0  0
   -1.8551   -0.5457   -2.6272 H   0  0  0  0  0  0  0  0  0  0  0  0
   -1.5688    1.1931   -2.9143 H   0  0  0  0  0  0  0  0  0  0  0  0
    0.6039   -4.7848   -1.5405 H   0  0  0  0  0  0  0  0  0  0  0  0
    0.0433   -1.6411    1.3861 H   0  0  0  0  0  0  0  0  0  0  0  0
    4.4070    3.8494    1.0349 H   0  0  0  0  0  0  0  0  0  0  0  0
   -6.2541    1.3579   -0.9178 H   0  0  0  0  0  0  0  0  0  0  0  0
    3.7833   -0.1228   -0.5750 H   0  0  0  0  0  0  0  0  0  0  0  0
   -2.5206    1.0705    1.2590 H   0  0  0  0  0  0  0  0  0  0  0  0
    0.7134   -6.4326    0.2865 H   0  0  0  0  0  0  0  0  0  0  0  0
    0.1564   -3.2992    3.1731 H   0  0  0  0  0  0  0  0  0  0  0  0
    0.4909   -5.6997    2.6458 H   0  0  0  0  0  0  0  0  0  0  0  0
    6.7188    3.2266    1.6113 H   0  0  0  0  0  0  0  0  0  0  0  0
   -7.4171    1.8681    1.1920 H   0  0  0  0  0  0  0  0  0  0  0  0
    6.0798   -0.7084    0.0088 H   0  0  0  0  0  0  0  0  0  0  0  0
   -3.7031    1.5786    3.3330 H   0  0  0  0  0  0  0  0  0  0  0  0
    7.5643    0.9507    1.1024 H   0  0  0  0  0  0  0  0  0  0  0  0
   -6.1507    1.9806    3.3220 H   0  0  0  0  0  0  0  0  0  0  0  0
  1  7  1  0  0  0  0
  1 10  1  0  0  0  0
  2  8  1  0  0  0  0
  2 12  1  0  0  0  0
  3  9  1  0  0  0  0
  3 13  1  0  0  0  0
  4 10  2  0  0  0  0
  5 12  2  0  0  0  0
  6 13  2  0  0  0  0
  7  8  1  0  0  0  0
  7  9  1  0  0  0  0
  7 31  1  0  0  0  0
  8 32  1  0  0  0  0
  8 33  1  0  0  0  0
  9 34  1  0  0  0  0
  9 35  1  0  0  0  0
 10 11  1  0  0  0  0
 11 16  2  0  0  0  0
 11 17  1  0  0  0  0
 12 14  1  0  0  0  0
 13 15  1  0  0  0  0
 14 18  2  0  0  0  0
 14 20  1  0  0  0  0
 15 19  2  0  0  0  0
 15 21  1  0  0  0  0
 16 22  1  0  0  0  0
 16 36  1  0  0  0  0
 17 23  2  0  0  0  0
 17 37  1  0  0  0  0
 18 25  1  0  0  0  0
 18 38  1  0  0  0  0
 19 26  1  0  0  0  0
 19 39  1  0  0  0  0
 20 27  2  0  0  0  0
 20 40  1  0  0  0  0
 21 28  2  0  0  0  0
 21 41  1  0  0  0  0
 22 24  2  0  0  0  0
 22 42  1  0  0  0  0
 23 24  1  0  0  0  0
 23 43  1  0  0  0  0
 24 44  1  0  0  0  0
 25 29  2  0  0  0  0
 25 45  1  0  0  0  0
 26 30  2  0  0  0  0
 26 46  1  0  0  0  0
 27 29  1  0  0  0  0
 27 47  1  0  0  0  0
 28 30  1  0  0  0  0
 28 48  1  0  0  0  0
 29 49  1  0  0  0  0
 30 50  1  0  0  0  0
M  END
> <PUBCHEM_COMPOUND_CID>
61156

> <PUBCHEM_CONFORMER_RMSD>
1

> <PUBCHEM_CONFORMER_DIVERSEORDER>
1
3
40
28
27
44
84
17
35
25
38
61
86
7
69
71
75
43
18
21
77
23
52
85
24
72
48
9
64
78
80
87
2
50
22
49
45
12
74
19
16
81
54
65
37
60
36
70
88
41
53
29
58
8
14
83
4
34
73
62
39
63
31
89
57
42
55
67
15
11
79
66
10
32
76
5
51
33
30
59
6
56
47
20
46
13
68
26
82

> <PUBCHEM_MMFF94_PARTIAL_CHARGES>
45
1 -0.43
10 0.63
11 0.09
12 0.63
13 0.63
14 0.09
15 0.09
16 -0.15
17 -0.15
18 -0.15
19 -0.15
2 -0.43
20 -0.15
21 -0.15
22 -0.15
23 -0.15
24 -0.15
25 -0.15
26 -0.15
27 -0.15
28 -0.15
29 -0.15
3 -0.43
30 -0.15
36 0.15
37 0.15
38 0.15
39 0.15
4 -0.57
40 0.15
41 0.15
42 0.15
43 0.15
44 0.15
45 0.15
46 0.15
47 0.15
48 0.15
49 0.15
5 -0.57
50 0.15
6 -0.57
7 0.28
8 0.28
9 0.28

> <PUBCHEM_EFFECTIVE_ROTOR_COUNT>
11

> <PUBCHEM_PHARMACOPHORE_FEATURES>
6
1 4 acceptor
1 5 acceptor
1 6 acceptor
6 11 16 17 22 23 24 rings
6 14 18 20 25 27 29 rings
6 15 19 21 26 28 30 rings

> <PUBCHEM_HEAVY_ATOM_COUNT>
30

> <PUBCHEM_ATOM_DEF_STEREO_COUNT>
0

> <PUBCHEM_ATOM_UDEF_STEREO_COUNT>
0

> <PUBCHEM_BOND_DEF_STEREO_COUNT>
0

> <PUBCHEM_BOND_UDEF_STEREO_COUNT>
0

> <PUBCHEM_ISOTOPIC_ATOM_COUNT>
0

> <PUBCHEM_COMPONENT_COUNT>
1

> <PUBCHEM_CACTVS_TAUTO_COUNT>
1

> <PUBCHEM_CONFORMER_ID>
0000EEE400000001

> <PUBCHEM_MMFF94_ENERGY>
85.1268

> <PUBCHEM_FEATURE_SELFOVERLAP>
30.448

> <PUBCHEM_SHAPE_FINGERPRINT>
10906281 52 18130513041389594164
11007060 377 18193540371686607548
11070050 100 18265352654144999291
12293681 160 13110970828941429764
12788726 201 17837187634979812334
13383668 40 17460312145343607097
13692114 37 18336276746749142363
13726171 33 16629702643291987177
14020679 6 18341326799222912824
14444916 359 18334859386382675694
14705955 166 17768231763533348218
15347590 135 18271259321774442899
15392192 29 18411415130145737124
15775530 1 17176279618128411908
15815584 197 18261959527060512501
17913733 40 18335703810705951241
21120745 212 17036998355582980533
22889206 1 18049722919433221883
24893989 43 14428913748059523665
255183 313 18114172082027809192
50080093 196 17272885071855875584
508180 173 16702024223078333792
563151 74 18339095787393799841
58260988 521 17822017471482725194
5912855 24 17684089459018095148
6376802 137 17696186290136345991
7288768 16 18342741865902204957
79837 15 18338238296413555863
86090 222 17898031060817884730

> <PUBCHEM_SHAPE_MULTIPOLES>
582.17
13.61
6.39
2.34
0.15
12.57
0.13
-19.46
-7.46
4
-2.9
-2.69
0.46
-0.34

> <PUBCHEM_SHAPE_SELFOVERLAP>
1251.232

> <PUBCHEM_SHAPE_VOLUME>
317.3

> <PUBCHEM_COORDINATE_TYPE>
2
5
10

$$$$
