83791
  -OEChem-11012401053D

 11 10  0     0  0  0  0  0  0999 V2000
    0.4986   -0.1438   -0.0212 S   0  0  0  0  0  0  0  0  0  0  0  0
    1.4873    1.1223    0.2555 O   0  0  0  0  0  0  0  0  0  0  0  0
    0.5549   -1.0363    1.1181 O   0  0  0  0  0  0  0  0  0  0  0  0
    0.7115   -0.6125   -1.3753 O   0  0  0  0  0  0  0  0  0  0  0  0
   -2.2144   -0.0926   -0.0107 N   0  0  0  0  0  0  0  0  0  0  0  0
   -1.0380    0.7629    0.0337 C   0  0  0  0  0  0  0  0  0  0  0  0
   -1.0437    1.4585   -0.8103 H   0  0  0  0  0  0  0  0  0  0  0  0
   -1.0459    1.3364    0.9653 H   0  0  0  0  0  0  0  0  0  0  0  0
   -2.1863   -0.7519    0.7659 H   0  0  0  0  0  0  0  0  0  0  0  0
   -2.1965   -0.6528   -0.8618 H   0  0  0  0  0  0  0  0  0  0  0  0
    1.4749    1.4778    1.1752 H   0  0  0  0  0  0  0  0  0  0  0  0
  1  2  1  0  0  0  0
  1  3  2  0  0  0  0
  1  4  2  0  0  0  0
  1  6  1  0  0  0  0
  2 11  1  0  0  0  0
  5  6  1  0  0  0  0
  5  9  1  0  0  0  0
  5 10  1  0  0  0  0
  6  7  1  0  0  0  0
  6  8  1  0  0  0  0
M  END
> <PUBCHEM_COMPOUND_CID>
83791

> <PUBCHEM_CONFORMER_RMSD>
0.4

> <PUBCHEM_CONFORMER_DIVERSEORDER>
1

> <PUBCHEM_MMFF94_PARTIAL_CHARGES>
9
1 1.38
10 0.36
11 0.5
2 -0.68
3 -0.65
4 -0.65
5 -0.99
6 0.38
9 0.36

> <PUBCHEM_EFFECTIVE_ROTOR_COUNT>
1

> <PUBCHEM_PHARMACOPHORE_FEATURES>
6
1 2 acceptor
1 3 acceptor
1 4 acceptor
1 5 cation
1 5 donor
4 1 2 3 4 anion

> <PUBCHEM_HEAVY_ATOM_COUNT>
6

> <PUBCHEM_ATOM_DEF_STEREO_COUNT>
0

> <PUBCHEM_ATOM_UDEF_STEREO_COUNT>
0

> <PUBCHEM_BOND_DEF_STEREO_COUNT>
0

> <PUBCHEM_BOND_UDEF_STEREO_COUNT>
0

> <PUBCHEM_ISOTOPIC_ATOM_COUNT>
0

> <PUBCHEM_COMPONENT_COUNT>
1

> <PUBCHEM_CACTVS_TAUTO_COUNT>
1

> <PUBCHEM_CONFORMER_ID>
0001474F00000001

> <PUBCHEM_MMFF94_ENERGY>
1.7289

> <PUBCHEM_FEATURE_SELFOVERLAP>
30.5

> <PUBCHEM_SHAPE_FINGERPRINT>
139733 1 13396899952999492795
20096714 4 18271800284756501648
24536 1 17774151276391886801
29004967 10 17631186185788973038
5943 1 10972480206909354246

> <PUBCHEM_SHAPE_MULTIPOLES>
104.74
1.99
1.06
1.02
1.2
0.14
0.13
0.22
-0.01
-0.3
-0.12
-0.32
-0.34
0.04

> <PUBCHEM_SHAPE_SELFOVERLAP>
176.758

> <PUBCHEM_SHAPE_VOLUME>
71.2

> <PUBCHEM_COORDINATE_TYPE>
2
5
10

$$$$
