65057
  -OEChem-11012401183D

 26 28  0     0  0  0  0  0  0999 V2000
   -0.0283   -3.0564    0.0000 O   0  0  0  0  0  0  0  0  0  0  0  0
   -0.6383   -0.6576    0.0000 C   0  0  0  0  0  0  0  0  0  0  0  0
    0.6435   -0.6438    0.0001 C   0  0  0  0  0  0  0  0  0  0  0  0
   -0.0235   -1.8879   -0.0002 C   0  0  0  0  0  0  0  0  0  0  0  0
   -1.9616   -0.0536   -0.0001 C   0  0  0  0  0  0  0  0  0  0  0  0
    1.9294   -0.0695    0.0001 C   0  0  0  0  0  0  0  0  0  0  0  0
   -2.0943    1.3350   -0.0001 C   0  0  0  0  0  0  0  0  0  0  0  0
    2.1158    1.3367    0.0000 C   0  0  0  0  0  0  0  0  0  0  0  0
   -3.0978   -0.8628   -0.0001 C   0  0  0  0  0  0  0  0  0  0  0  0
    3.1012   -0.8693    0.0002 C   0  0  0  0  0  0  0  0  0  0  0  0
   -3.3631    1.9145    0.0001 C   0  0  0  0  0  0  0  0  0  0  0  0
    3.3894    1.9057   -0.0002 C   0  0  0  0  0  0  0  0  0  0  0  0
   -4.3666   -0.2833    0.0000 C   0  0  0  0  0  0  0  0  0  0  0  0
    4.3746   -0.3003    0.0001 C   0  0  0  0  0  0  0  0  0  0  0  0
   -4.4992    1.1054    0.0001 C   0  0  0  0  0  0  0  0  0  0  0  0
    4.5187    1.0872   -0.0001 C   0  0  0  0  0  0  0  0  0  0  0  0
   -1.2217    1.9826   -0.0001 H   0  0  0  0  0  0  0  0  0  0  0  0
    1.2523    1.9990    0.0000 H   0  0  0  0  0  0  0  0  0  0  0  0
   -3.0151   -1.9469   -0.0001 H   0  0  0  0  0  0  0  0  0  0  0  0
    3.0170   -1.9548    0.0004 H   0  0  0  0  0  0  0  0  0  0  0  0
   -3.4666    2.9956    0.0003 H   0  0  0  0  0  0  0  0  0  0  0  0
    3.5019    2.9859   -0.0004 H   0  0  0  0  0  0  0  0  0  0  0  0
   -5.2514   -0.9130    0.0001 H   0  0  0  0  0  0  0  0  0  0  0  0
    5.2543   -0.9372    0.0001 H   0  0  0  0  0  0  0  0  0  0  0  0
   -5.4871    1.5565    0.0001 H   0  0  0  0  0  0  0  0  0  0  0  0
    5.5104    1.5301   -0.0002 H   0  0  0  0  0  0  0  0  0  0  0  0
  1  4  2  0  0  0  0
  2  3  2  0  0  0  0
  2  4  1  0  0  0  0
  2  5  1  0  0  0  0
  3  4  1  0  0  0  0
  3  6  1  0  0  0  0
  5  7  2  0  0  0  0
  5  9  1  0  0  0  0
  6  8  2  0  0  0  0
  6 10  1  0  0  0  0
  7 11  1  0  0  0  0
  7 17  1  0  0  0  0
  8 12  1  0  0  0  0
  8 18  1  0  0  0  0
  9 13  2  0  0  0  0
  9 19  1  0  0  0  0
 10 14  2  0  0  0  0
 10 20  1  0  0  0  0
 11 15  2  0  0  0  0
 11 21  1  0  0  0  0
 12 16  2  0  0  0  0
 12 22  1  0  0  0  0
 13 15  1  0  0  0  0
 13 23  1  0  0  0  0
 14 16  1  0  0  0  0
 14 24  1  0  0  0  0
 15 25  1  0  0  0  0
 16 26  1  0  0  0  0
M  END
> <PUBCHEM_COMPOUND_CID>
65057

> <PUBCHEM_CONFORMER_RMSD>
0.6

> <PUBCHEM_CONFORMER_DIVERSEORDER>
1
3
2

> <PUBCHEM_MMFF94_PARTIAL_CHARGES>
26
1 -0.57
10 -0.15
11 -0.15
12 -0.15
13 -0.15
14 -0.15
15 -0.15
16 -0.15
17 0.15
18 0.15
19 0.15
2 -0.01
20 0.15
21 0.15
22 0.15
23 0.15
24 0.15
25 0.15
26 0.15
3 -0.01
4 0.54
5 0.03
6 0.03
7 -0.15
8 -0.15
9 -0.15

> <PUBCHEM_EFFECTIVE_ROTOR_COUNT>
2

> <PUBCHEM_PHARMACOPHORE_FEATURES>
3
1 1 acceptor
6 5 7 9 11 13 15 rings
6 6 8 10 12 14 16 rings

> <PUBCHEM_HEAVY_ATOM_COUNT>
16

> <PUBCHEM_ATOM_DEF_STEREO_COUNT>
0

> <PUBCHEM_ATOM_UDEF_STEREO_COUNT>
0

> <PUBCHEM_BOND_DEF_STEREO_COUNT>
0

> <PUBCHEM_BOND_UDEF_STEREO_COUNT>
0

> <PUBCHEM_ISOTOPIC_ATOM_COUNT>
0

> <PUBCHEM_COMPONENT_COUNT>
1

> <PUBCHEM_CACTVS_TAUTO_COUNT>
1

> <PUBCHEM_CONFORMER_ID>
0000FE2100000001

> <PUBCHEM_MMFF94_ENERGY>
100.4421

> <PUBCHEM_FEATURE_SELFOVERLAP>
15.223

> <PUBCHEM_SHAPE_FINGERPRINT>
10498660 4 18409164385770861461
10608611 8 18411136943710813192
10922049 32 18410858762958389191
11132069 177 18186522098787562957
12173636 292 18339637966199575070
122479 349 18334579087477768482
12346645 44 18409446964585380307
12916748 109 18411706499381847648
13081056 2 18411983563400979405
14415576 193 18410857620644469845
15196674 1 18410856559640244292
15536298 74 18413671301059847100
17802600 8 18410852165893942752
18186145 218 18201732725313158058
20510252 161 18342462577274669393
20645477 56 18339922740017097936
20645477 70 16916522397580245398
21267235 1 18410582785544858310
212916 134 18270941519494863498
21524375 3 18410573985156985731
21652331 79 18409166619058753781
23402539 116 18272363200439589284
23402655 69 18273496779906394412
23558518 356 17827918752400336970
23559900 14 18198058071406650314
2916195 48 18059845208125549400
351380 180 18410853265452854928
3545911 37 18410858758673776540
4214541 1 18410856555408333665
474 4 18409169887565471073
474229 33 18337955692340695699
4990 188 18060425698624797342
5104073 3 18409167701205435763
58051976 378 18342454803521208471
6138700 20 18195815055629592038
6333272 397 18409449197699277475
633830 44 18342738481441537383
6430166 295 18410007737069464864
69090 78 18340484560077648182
7364860 26 18124316008601862863
77779 3 18410857663446423620
7832392 63 18337669845166048236
9709674 26 18341619260615430926

> <PUBCHEM_SHAPE_MULTIPOLES>
323.4
9.4
2.26
0.61
0.15
0.71
0
-4.06
0
-0.02
0
0
-0.02
0

> <PUBCHEM_SHAPE_SELFOVERLAP>
712.844

> <PUBCHEM_SHAPE_VOLUME>
173.4

> <PUBCHEM_COORDINATE_TYPE>
2
5
10

$$$$
