137943
  -OEChem-11012400593D

 25 24  0     0  0  0  0  0  0999 V2000
    2.3985    0.3107   -0.0044 O   0  0  0  0  0  0  0  0  0  0  0  0
   -2.4023    0.3177   -0.0039 O   0  0  0  0  0  0  0  0  0  0  0  0
    0.0059    0.3157   -0.0211 C   0  0  0  0  0  0  0  0  0  0  0  0
    1.2611   -0.5409   -0.0051 C   0  0  0  0  0  0  0  0  0  0  0  0
   -1.2595   -0.5275   -0.0072 C   0  0  0  0  0  0  0  0  0  0  0  0
    3.6087   -0.4345    0.0104 C   0  0  0  0  0  0  0  0  0  0  0  0
   -3.6078   -0.4348    0.0090 C   0  0  0  0  0  0  0  0  0  0  0  0
    4.7689    0.5005    0.0105 C   0  0  0  0  0  0  0  0  0  0  0  0
   -4.7737    0.4931    0.0119 C   0  0  0  0  0  0  0  0  0  0  0  0
    0.0080    1.0012    0.8362 H   0  0  0  0  0  0  0  0  0  0  0  0
    0.0092    0.9727   -0.9002 H   0  0  0  0  0  0  0  0  0  0  0  0
    1.2746   -1.1707    0.8922 H   0  0  0  0  0  0  0  0  0  0  0  0
    1.2862   -1.1866   -0.8907 H   0  0  0  0  0  0  0  0  0  0  0  0
   -1.2741   -1.1612    0.8876 H   0  0  0  0  0  0  0  0  0  0  0  0
   -1.2858   -1.1727   -0.8934 H   0  0  0  0  0  0  0  0  0  0  0  0
    3.6398   -1.0656    0.9058 H   0  0  0  0  0  0  0  0  0  0  0  0
    3.6522   -1.0807   -0.8738 H   0  0  0  0  0  0  0  0  0  0  0  0
   -3.6477   -1.0789   -0.8769 H   0  0  0  0  0  0  0  0  0  0  0  0
   -3.6350   -1.0685    0.9028 H   0  0  0  0  0  0  0  0  0  0  0  0
    5.7172   -0.0449    0.0218 H   0  0  0  0  0  0  0  0  0  0  0  0
    4.7499    1.1469   -0.8734 H   0  0  0  0  0  0  0  0  0  0  0  0
    4.7376    1.1619    0.8829 H   0  0  0  0  0  0  0  0  0  0  0  0
   -5.7185   -0.0580    0.0218 H   0  0  0  0  0  0  0  0  0  0  0  0
   -4.7462    1.1524    0.8861 H   0  0  0  0  0  0  0  0  0  0  0  0
   -4.7587    1.1421   -0.8703 H   0  0  0  0  0  0  0  0  0  0  0  0
  1  4  1  0  0  0  0
  1  6  1  0  0  0  0
  2  5  1  0  0  0  0
  2  7  1  0  0  0  0
  3  4  1  0  0  0  0
  3  5  1  0  0  0  0
  3 10  1  0  0  0  0
  3 11  1  0  0  0  0
  4 12  1  0  0  0  0
  4 13  1  0  0  0  0
  5 14  1  0  0  0  0
  5 15  1  0  0  0  0
  6  8  1  0  0  0  0
  6 16  1  0  0  0  0
  6 17  1  0  0  0  0
  7  9  1  0  0  0  0
  7 18  1  0  0  0  0
  7 19  1  0  0  0  0
  8 20  1  0  0  0  0
  8 21  1  0  0  0  0
  8 22  1  0  0  0  0
  9 23  1  0  0  0  0
  9 24  1  0  0  0  0
  9 25  1  0  0  0  0
M  END
> <PUBCHEM_COMPOUND_CID>
137943

> <PUBCHEM_CONFORMER_RMSD>
0.6

> <PUBCHEM_CONFORMER_DIVERSEORDER>
1
20
32
80
70
25
79
43
36
31
41
5
62
37
71
50
75
8
54
51
10
19
64
49
22
55
29
81
82
68
15
77
28
4
63
67
39
59
30
53
74
6
23
61
7
3
56
76
48
16
65
58
21
73
66
26
57
11
24
42
52
40
2
27
14
18
33
72
17
78
35
60
34
69
46
9
47
13
44
12
45
38

> <PUBCHEM_MMFF94_PARTIAL_CHARGES>
6
1 -0.56
2 -0.56
4 0.28
5 0.28
6 0.28
7 0.28

> <PUBCHEM_EFFECTIVE_ROTOR_COUNT>
6

> <PUBCHEM_PHARMACOPHORE_FEATURES>
2
1 1 acceptor
1 2 acceptor

> <PUBCHEM_HEAVY_ATOM_COUNT>
9

> <PUBCHEM_ATOM_DEF_STEREO_COUNT>
0

> <PUBCHEM_ATOM_UDEF_STEREO_COUNT>
0

> <PUBCHEM_BOND_DEF_STEREO_COUNT>
0

> <PUBCHEM_BOND_UDEF_STEREO_COUNT>
0

> <PUBCHEM_ISOTOPIC_ATOM_COUNT>
0

> <PUBCHEM_COMPONENT_COUNT>
1

> <PUBCHEM_CACTVS_TAUTO_COUNT>
1

> <PUBCHEM_CONFORMER_ID>
00021AD700000001

> <PUBCHEM_MMFF94_ENERGY>
7.9865

> <PUBCHEM_FEATURE_SELFOVERLAP>
10.149

> <PUBCHEM_SHAPE_FINGERPRINT>
11062470 55 18410575084663098402
14123238 8 18335420179307381479
17834076 25 18411700984580477548
18342897 14 18410012134783738065
20645477 70 18058734593859867054
20719005 15 18410575088963353442
20828058 44 16298391279179805371
22485316 2 18410290315446738051
23402539 116 18341324548490907141
366044 4 18408603669226690859
42788 4 18410856559639809061

> <PUBCHEM_SHAPE_MULTIPOLES>
173.48
10.44
0.79
0.6
0.04
0.03
0
-1.65
0.08
-0.01
0
0
0.01
0

> <PUBCHEM_SHAPE_SELFOVERLAP>
303.5

> <PUBCHEM_SHAPE_VOLUME>
115.3

> <PUBCHEM_COORDINATE_TYPE>
2
5
10

$$$$
