7691
  -OEChem-11012400373D

 21 21  0     0  0  0  0  0  0999 V2000
   -3.2295    1.4705   -0.0016 O   0  0  0  0  0  0  0  0  0  0  0  0
    3.6466    1.3978    0.0018 O   0  5  0  0  0  0  0  0  0  0  0  0
    4.0046   -0.7681    0.0010 O   0  0  0  0  0  0  0  0  0  0  0  0
   -2.3043   -0.6980    0.0002 N   0  0  0  0  0  0  0  0  0  0  0  0
    3.2255    0.2156    0.0006 N   0  3  0  0  0  0  0  0  0  0  0  0
   -0.9278   -0.4707   -0.0008 C   0  0  0  0  0  0  0  0  0  0  0  0
   -0.4367    0.8348   -0.0008 C   0  0  0  0  0  0  0  0  0  0  0  0
   -0.0427   -1.5489   -0.0009 C   0  0  0  0  0  0  0  0  0  0  0  0
    1.8247   -0.0159   -0.0010 C   0  0  0  0  0  0  0  0  0  0  0  0
    0.9395    1.0622   -0.0010 C   0  0  0  0  0  0  0  0  0  0  0  0
    1.3336   -1.3216   -0.0009 C   0  0  0  0  0  0  0  0  0  0  0  0
   -3.3375    0.2486    0.0013 C   0  0  0  0  0  0  0  0  0  0  0  0
   -4.6959   -0.4064    0.0022 C   0  0  0  0  0  0  0  0  0  0  0  0
   -1.0590    1.7188   -0.0004 H   0  0  0  0  0  0  0  0  0  0  0  0
   -0.4120   -2.5714   -0.0006 H   0  0  0  0  0  0  0  0  0  0  0  0
    1.2874    2.0922   -0.0007 H   0  0  0  0  0  0  0  0  0  0  0  0
    1.9932   -2.1855   -0.0006 H   0  0  0  0  0  0  0  0  0  0  0  0
   -2.5826   -1.6772    0.0005 H   0  0  0  0  0  0  0  0  0  0  0  0
   -4.8183   -1.0040   -0.9056 H   0  0  0  0  0  0  0  0  0  0  0  0
   -5.4765    0.3588    0.0322 H   0  0  0  0  0  0  0  0  0  0  0  0
   -4.7972   -1.0503    0.8804 H   0  0  0  0  0  0  0  0  0  0  0  0
  1 12  2  0  0  0  0
  2  5  1  0  0  0  0
  3  5  2  0  0  0  0
  4  6  1  0  0  0  0
  4 12  1  0  0  0  0
  4 18  1  0  0  0  0
  5  9  1  0  0  0  0
  6  7  2  0  0  0  0
  6  8  1  0  0  0  0
  7 10  1  0  0  0  0
  7 14  1  0  0  0  0
  8 11  2  0  0  0  0
  8 15  1  0  0  0  0
  9 10  2  0  0  0  0
  9 11  1  0  0  0  0
 10 16  1  0  0  0  0
 11 17  1  0  0  0  0
 12 13  1  0  0  0  0
 13 19  1  0  0  0  0
 13 20  1  0  0  0  0
 13 21  1  0  0  0  0
M  CHG  2   2  -1   5   1
M  END
> <PUBCHEM_COMPOUND_CID>
7691

> <PUBCHEM_CONFORMER_RMSD>
0.6

> <PUBCHEM_CONFORMER_DIVERSEORDER>
1
2

> <PUBCHEM_MMFF94_PARTIAL_CHARGES>
18
1 -0.57
10 -0.15
11 -0.15
12 0.57
13 0.06
14 0.15
15 0.15
16 0.15
17 0.15
18 0.37
2 -0.52
3 -0.52
4 -0.55
5 0.91
6 0.12
7 -0.15
8 -0.15
9 0.13

> <PUBCHEM_EFFECTIVE_ROTOR_COUNT>
3

> <PUBCHEM_PHARMACOPHORE_FEATURES>
6
1 1 acceptor
1 2 acceptor
1 2 anion
1 3 acceptor
1 4 donor
6 6 7 8 9 10 11 rings

> <PUBCHEM_HEAVY_ATOM_COUNT>
13

> <PUBCHEM_ATOM_DEF_STEREO_COUNT>
0

> <PUBCHEM_ATOM_UDEF_STEREO_COUNT>
0

> <PUBCHEM_BOND_DEF_STEREO_COUNT>
0

> <PUBCHEM_BOND_UDEF_STEREO_COUNT>
0

> <PUBCHEM_ISOTOPIC_ATOM_COUNT>
0

> <PUBCHEM_COMPONENT_COUNT>
1

> <PUBCHEM_CACTVS_TAUTO_COUNT>
2

> <PUBCHEM_CONFORMER_ID>
00001E0B00000001

> <PUBCHEM_MMFF94_ENERGY>
39.4698

> <PUBCHEM_FEATURE_SELFOVERLAP>
30.527

> <PUBCHEM_SHAPE_FINGERPRINT>
10219947 1 18333734619365718468
10608611 8 18409164381422899685
11062470 55 18411138047511964617
11401426 45 18343576348098941706
11471102 20 18410289220261459884
11543360 7 15554158280871793856
12032990 46 18410580560799336750
12932764 1 17060041632783625483
13380535 76 18409450293079890475
13690532 89 18410573976582777994
14144814 61 18409729534862959201
14325111 11 18410855468723416612
14415576 193 18409452479217880564
18186145 218 18335700524860713220
18522853 276 18413109463866919865
193761 8 17689997830266497542
20645477 70 18343022151226099182
23402539 116 18131061623822075181
23402655 69 18341885252683036277
23463225 33 18335417929050551370
23559900 14 18273216435302492072
366044 4 18410292531845158594
4990 188 18060427893258198598
5104073 3 18409730638564215953
528886 8 18411414024946523219
53655031 270 18341332201790299608
53812653 166 18342172297440935016
69090 78 18130503119429103407

> <PUBCHEM_SHAPE_MULTIPOLES>
239.96
7.47
1.45
0.58
2.61
0
0
-0.83
0.01
-0.31
0
0.04
0.01
0

> <PUBCHEM_SHAPE_SELFOVERLAP>
498.517

> <PUBCHEM_SHAPE_VOLUME>
137

> <PUBCHEM_COORDINATE_TYPE>
2
5
10

$$$$
