137604
  -OEChem-11012401013D

 50 52  0     1  0  0  0  0  0999 V2000
    0.6178   -0.7970   -0.4651 C   0  0  1  0  0  0  0  0  0  0  0  0
   -0.6208   -0.7956    0.4647 C   0  0  1  0  0  0  0  0  0  0  0  0
    1.5167    0.4234   -0.2471 C   0  0  0  0  0  0  0  0  0  0  0  0
   -1.5151    0.4236    0.2470 C   0  0  0  0  0  0  0  0  0  0  0  0
    1.4448   -2.0794   -0.2691 C   0  0  0  0  0  0  0  0  0  0  0  0
   -1.4503   -2.0765    0.2691 C   0  0  0  0  0  0  0  0  0  0  0  0
    0.6041   -3.3376   -0.4579 C   0  0  0  0  0  0  0  0  0  0  0  0
   -0.6120   -3.3361    0.4586 C   0  0  0  0  0  0  0  0  0  0  0  0
    2.0461    0.4561    1.1931 C   0  0  0  0  0  0  0  0  0  0  0  0
    2.6738    0.4313   -1.2549 C   0  0  0  0  0  0  0  0  0  0  0  0
   -2.0446    0.4571   -1.1930 C   0  0  0  0  0  0  0  0  0  0  0  0
   -2.6722    0.4339    1.2550 C   0  0  0  0  0  0  0  0  0  0  0  0
    2.9884    1.6359    1.4205 C   0  0  0  0  0  0  0  0  0  0  0  0
    3.6152    1.6110   -1.0233 C   0  0  0  0  0  0  0  0  0  0  0  0
   -2.9845    1.6387   -1.4206 C   0  0  0  0  0  0  0  0  0  0  0  0
   -3.6113    1.6155    1.0232 C   0  0  0  0  0  0  0  0  0  0  0  0
    4.1324    1.6452    0.4114 C   0  0  0  0  0  0  0  0  0  0  0  0
   -4.1285    1.6505   -0.4116 C   0  0  0  0  0  0  0  0  0  0  0  0
    0.2898   -0.8077   -1.5115 H   0  0  0  0  0  0  0  0  0  0  0  0
   -0.2919   -0.8072    1.5108 H   0  0  0  0  0  0  0  0  0  0  0  0
    0.9474    1.3419   -0.4296 H   0  0  0  0  0  0  0  0  0  0  0  0
   -0.9449    1.3415    0.4293 H   0  0  0  0  0  0  0  0  0  0  0  0
    1.8790   -2.1433    0.7321 H   0  0  0  0  0  0  0  0  0  0  0  0
    2.2648   -2.1530   -0.9876 H   0  0  0  0  0  0  0  0  0  0  0  0
   -1.8844   -2.1405   -0.7322 H   0  0  0  0  0  0  0  0  0  0  0  0
   -2.2704   -2.1489    0.9876 H   0  0  0  0  0  0  0  0  0  0  0  0
    1.2151   -4.2252   -0.2572 H   0  0  0  0  0  0  0  0  0  0  0  0
    0.2762   -3.4062   -1.5026 H   0  0  0  0  0  0  0  0  0  0  0  0
   -1.2246   -4.2227    0.2584 H   0  0  0  0  0  0  0  0  0  0  0  0
   -0.2842   -3.4048    1.5032 H   0  0  0  0  0  0  0  0  0  0  0  0
    2.6084   -0.4450    1.4515 H   0  0  0  0  0  0  0  0  0  0  0  0
    1.2307    0.5513    1.9161 H   0  0  0  0  0  0  0  0  0  0  0  0
    2.2828    0.4734   -2.2783 H   0  0  0  0  0  0  0  0  0  0  0  0
    3.2912   -0.4681   -1.1821 H   0  0  0  0  0  0  0  0  0  0  0  0
   -2.6090   -0.4425   -1.4518 H   0  0  0  0  0  0  0  0  0  0  0  0
   -1.2294    0.5509   -1.9164 H   0  0  0  0  0  0  0  0  0  0  0  0
   -2.2813    0.4755    2.2785 H   0  0  0  0  0  0  0  0  0  0  0  0
   -3.2920   -0.4640    1.1825 H   0  0  0  0  0  0  0  0  0  0  0  0
    3.3948    1.5946    2.4376 H   0  0  0  0  0  0  0  0  0  0  0  0
    2.4243    2.5736    1.3408 H   0  0  0  0  0  0  0  0  0  0  0  0
    3.0872    2.5470   -1.2435 H   0  0  0  0  0  0  0  0  0  0  0  0
    4.4604    1.5516   -1.7186 H   0  0  0  0  0  0  0  0  0  0  0  0
   -3.3909    1.5981   -2.4377 H   0  0  0  0  0  0  0  0  0  0  0  0
   -2.4186    2.5753   -1.3412 H   0  0  0  0  0  0  0  0  0  0  0  0
   -3.0815    2.5506    1.2432 H   0  0  0  0  0  0  0  0  0  0  0  0
   -4.4566    1.5579    1.7184 H   0  0  0  0  0  0  0  0  0  0  0  0
    4.7482    2.5393    0.5602 H   0  0  0  0  0  0  0  0  0  0  0  0
    4.7808    0.7778    0.5867 H   0  0  0  0  0  0  0  0  0  0  0  0
   -4.7425    2.5458   -0.5605 H   0  0  0  0  0  0  0  0  0  0  0  0
   -4.7785    0.7844   -0.5866 H   0  0  0  0  0  0  0  0  0  0  0  0
  1  2  1  0  0  0  0
  1  3  1  0  0  0  0
  1  5  1  0  0  0  0
  1 19  1  0  0  0  0
  2  4  1  0  0  0  0
  2  6  1  0  0  0  0
  2 20  1  0  0  0  0
  3  9  1  0  0  0  0
  3 10  1  0  0  0  0
  3 21  1  0  0  0  0
  4 11  1  0  0  0  0
  4 12  1  0  0  0  0
  4 22  1  0  0  0  0
  5  7  1  0  0  0  0
  5 23  1  0  0  0  0
  5 24  1  0  0  0  0
  6  8  1  0  0  0  0
  6 25  1  0  0  0  0
  6 26  1  0  0  0  0
  7  8  1  0  0  0  0
  7 27  1  0  0  0  0
  7 28  1  0  0  0  0
  8 29  1  0  0  0  0
  8 30  1  0  0  0  0
  9 13  1  0  0  0  0
  9 31  1  0  0  0  0
  9 32  1  0  0  0  0
 10 14  1  0  0  0  0
 10 33  1  0  0  0  0
 10 34  1  0  0  0  0
 11 15  1  0  0  0  0
 11 35  1  0  0  0  0
 11 36  1  0  0  0  0
 12 16  1  0  0  0  0
 12 37  1  0  0  0  0
 12 38  1  0  0  0  0
 13 17  1  0  0  0  0
 13 39  1  0  0  0  0
 13 40  1  0  0  0  0
 14 17  1  0  0  0  0
 14 41  1  0  0  0  0
 14 42  1  0  0  0  0
 15 18  1  0  0  0  0
 15 43  1  0  0  0  0
 15 44  1  0  0  0  0
 16 18  1  0  0  0  0
 16 45  1  0  0  0  0
 16 46  1  0  0  0  0
 17 47  1  0  0  0  0
 17 48  1  0  0  0  0
 18 49  1  0  0  0  0
 18 50  1  0  0  0  0
M  END
> <PUBCHEM_COMPOUND_CID>
137604

> <PUBCHEM_CONFORMER_RMSD>
0.8

> <PUBCHEM_CONFORMER_DIVERSEORDER>
1
2
13
5
14
3
10
6
9
15
7
8
4
11
16
12

> <PUBCHEM_MMFF94_PARTIAL_CHARGES>
0

> <PUBCHEM_EFFECTIVE_ROTOR_COUNT>
5.6

> <PUBCHEM_PHARMACOPHORE_FEATURES>
3
6 1 2 5 6 7 8 rings
6 3 9 10 13 14 17 rings
6 4 11 12 15 16 18 rings

> <PUBCHEM_HEAVY_ATOM_COUNT>
18

> <PUBCHEM_ATOM_DEF_STEREO_COUNT>
0

> <PUBCHEM_ATOM_UDEF_STEREO_COUNT>
2

> <PUBCHEM_BOND_DEF_STEREO_COUNT>
0

> <PUBCHEM_BOND_UDEF_STEREO_COUNT>
0

> <PUBCHEM_ISOTOPIC_ATOM_COUNT>
0

> <PUBCHEM_COMPONENT_COUNT>
1

> <PUBCHEM_CACTVS_TAUTO_COUNT>
1

> <PUBCHEM_CONFORMER_ID>
0002198400000001

> <PUBCHEM_MMFF94_ENERGY>
30.9334

> <PUBCHEM_FEATURE_SELFOVERLAP>
15.223

> <PUBCHEM_SHAPE_FINGERPRINT>
10165383 225 18050325597385796589
11582403 64 16591637567617167501
11725454 13 16880159305749924773
121448 382 18200014274443435735
12173636 292 18341338872064732453
12500047 106 18339922731606368344
12730499 353 18338807715183609737
12788726 201 17829041366467515178
13134695 92 17617087015174202519
13140716 1 18337110068534420251
13149001 5 18125748715023531222
13294875 104 18201711822097835818
13464514 151 18059023791324425232
13583140 156 16298375907265467373
13681431 1 17691969262968112510
13764800 53 18340778146693185905
13878862 14 17760362194238097925
14614273 12 18338238296440007607
14787075 74 17988079027992856945
14957384 54 17967803994505814972
15309172 13 18335144189209928389
15342168 16 18336272266960920653
16752209 62 18121485010830959674
16945 1 18122631822849196538
17134986 127 18408610244773654740
1741750 31 18411418453279266992
1813 80 17052464691656008295
18186145 218 18342746182323283948
18219364 16 18340777025870635385
18785283 64 18190754041395877299
19049666 15 17987534765368397574
19765921 60 18201988911707091921
19784866 34 18343865493840186297
204376 136 18408886235124821713
20510252 161 18054228996834859082
20600515 1 17111539733350080178
20645477 56 18268440207640132752
20671657 1 18198342862213846295
21041028 32 17405437602279424987
21524375 3 18410288116423528003
21639500 275 18195806263387645679
21731228 192 18334290980902617842
22079108 93 18201169818826576281
2255824 54 18126001555653277775
22907989 373 17978226385209690620
23419403 2 17107691103461341626
23557571 272 17692245657414879584
23558518 356 18261949756010420074
23559900 14 16662067807163117595
23598291 2 17558833875764850065
25 1 18202010897428493008
2748010 2 18336845129229245711
350125 39 18410020939398571354
458136 41 18266475234284793259
474 4 18270108011970592945
49207404 50 18188507786922820697
495365 180 18118394047859735301
6049 1 17628088003125715824
633830 44 18059866016988994293
6442390 28 18340222872268627387
7364860 26 18125156035221512143
7471813 234 17553744180541892593
7808743 9 18191313882305211948
81228 2 17977387466343644858
84936 182 18200309888400023265
90316 7 17689716789050355250

> <PUBCHEM_SHAPE_MULTIPOLES>
370.43
6.78
3.36
1.37
0.03
3.7
0
-7.1
0
-0.01
0
0
-0.62
0.58

> <PUBCHEM_SHAPE_SELFOVERLAP>
752.71

> <PUBCHEM_SHAPE_VOLUME>
210.5

> <PUBCHEM_COORDINATE_TYPE>
2
5
10

$$$$
