136370
  -OEChem-11012400443D

 41 44  0     0  0  0  0  0  0999 V2000
    1.3374    0.0006    0.0314 N   0  0  0  0  0  0  0  0  0  0  0  0
   -1.4568   -0.0007   -0.0335 C   0  0  0  0  0  0  0  0  0  0  0  0
    0.6243    1.1490    0.0148 C   0  0  0  0  0  0  0  0  0  0  0  0
    0.6254   -1.1485    0.0151 C   0  0  0  0  0  0  0  0  0  0  0  0
   -0.7599    1.2022   -0.0174 C   0  0  0  0  0  0  0  0  0  0  0  0
   -0.7588   -1.2030   -0.0170 C   0  0  0  0  0  0  0  0  0  0  0  0
   -2.9034   -0.0014   -0.0679 C   0  0  0  0  0  0  0  0  0  0  0  0
    1.4147    2.3569    0.0329 C   0  0  0  0  0  0  0  0  0  0  0  0
    1.4168   -2.3557    0.0335 C   0  0  0  0  0  0  0  0  0  0  0  0
   -3.6292   -0.0005    1.1234 C   0  0  0  0  0  0  0  0  0  0  0  0
   -3.5721   -0.0022   -1.2921 C   0  0  0  0  0  0  0  0  0  0  0  0
    0.9091    3.5162    0.6250 C   0  0  0  0  0  0  0  0  0  0  0  0
    2.6878    2.3701   -0.5412 C   0  0  0  0  0  0  0  0  0  0  0  0
    0.9123   -3.5153    0.6260 C   0  0  0  0  0  0  0  0  0  0  0  0
    2.6895   -2.3684   -0.5416 C   0  0  0  0  0  0  0  0  0  0  0  0
   -5.0237   -0.0008    1.0904 C   0  0  0  0  0  0  0  0  0  0  0  0
   -4.9666   -0.0024   -1.3249 C   0  0  0  0  0  0  0  0  0  0  0  0
    1.6729    4.6834    0.6428 C   0  0  0  0  0  0  0  0  0  0  0  0
    3.4514    3.5373   -0.5232 C   0  0  0  0  0  0  0  0  0  0  0  0
    1.6766   -4.6820    0.6436 C   0  0  0  0  0  0  0  0  0  0  0  0
    3.4537   -3.5351   -0.5241 C   0  0  0  0  0  0  0  0  0  0  0  0
   -5.6924   -0.0016   -0.1336 C   0  0  0  0  0  0  0  0  0  0  0  0
    2.9439    4.6939    0.0689 C   0  0  0  0  0  0  0  0  0  0  0  0
    2.9473   -4.6919    0.0686 C   0  0  0  0  0  0  0  0  0  0  0  0
   -1.3075    2.1391   -0.0569 H   0  0  0  0  0  0  0  0  0  0  0  0
   -1.3055   -2.1404   -0.0560 H   0  0  0  0  0  0  0  0  0  0  0  0
   -3.1237    0.0003    2.0862 H   0  0  0  0  0  0  0  0  0  0  0  0
   -3.0217   -0.0026   -2.2300 H   0  0  0  0  0  0  0  0  0  0  0  0
   -0.0637    3.5467    1.1084 H   0  0  0  0  0  0  0  0  0  0  0  0
    3.1092    1.4897   -1.0206 H   0  0  0  0  0  0  0  0  0  0  0  0
   -0.0603   -3.5462    1.1100 H   0  0  0  0  0  0  0  0  0  0  0  0
    3.1100   -1.4878   -1.0214 H   0  0  0  0  0  0  0  0  0  0  0  0
   -5.5889   -0.0001    2.0177 H   0  0  0  0  0  0  0  0  0  0  0  0
   -5.4875   -0.0031   -2.2779 H   0  0  0  0  0  0  0  0  0  0  0  0
    1.2808    5.5825    1.1091 H   0  0  0  0  0  0  0  0  0  0  0  0
    4.4404    3.5466   -0.9720 H   0  0  0  0  0  0  0  0  0  0  0  0
    1.2854   -5.5812    1.1104 H   0  0  0  0  0  0  0  0  0  0  0  0
    4.4424   -3.5440   -0.9737 H   0  0  0  0  0  0  0  0  0  0  0  0
   -6.7781   -0.0017   -0.1593 H   0  0  0  0  0  0  0  0  0  0  0  0
    3.5390    5.6023    0.0838 H   0  0  0  0  0  0  0  0  0  0  0  0
    3.5429   -5.5999    0.0832 H   0  0  0  0  0  0  0  0  0  0  0  0
  1  3  2  0  0  0  0
  1  4  1  0  0  0  0
  2  5  2  0  0  0  0
  2  6  1  0  0  0  0
  2  7  1  0  0  0  0
  3  5  1  0  0  0  0
  3  8  1  0  0  0  0
  4  6  2  0  0  0  0
  4  9  1  0  0  0  0
  5 25  1  0  0  0  0
  6 26  1  0  0  0  0
  7 10  2  0  0  0  0
  7 11  1  0  0  0  0
  8 12  2  0  0  0  0
  8 13  1  0  0  0  0
  9 14  2  0  0  0  0
  9 15  1  0  0  0  0
 10 16  1  0  0  0  0
 10 27  1  0  0  0  0
 11 17  2  0  0  0  0
 11 28  1  0  0  0  0
 12 18  1  0  0  0  0
 12 29  1  0  0  0  0
 13 19  2  0  0  0  0
 13 30  1  0  0  0  0
 14 20  1  0  0  0  0
 14 31  1  0  0  0  0
 15 21  2  0  0  0  0
 15 32  1  0  0  0  0
 16 22  2  0  0  0  0
 16 33  1  0  0  0  0
 17 22  1  0  0  0  0
 17 34  1  0  0  0  0
 18 23  2  0  0  0  0
 18 35  1  0  0  0  0
 19 23  1  0  0  0  0
 19 36  1  0  0  0  0
 20 24  2  0  0  0  0
 20 37  1  0  0  0  0
 21 24  1  0  0  0  0
 21 38  1  0  0  0  0
 22 39  1  0  0  0  0
 23 40  1  0  0  0  0
 24 41  1  0  0  0  0
M  END
> <PUBCHEM_COMPOUND_CID>
136370

> <PUBCHEM_CONFORMER_RMSD>
0.6

> <PUBCHEM_CONFORMER_DIVERSEORDER>
2
3
1
4

> <PUBCHEM_MMFF94_PARTIAL_CHARGES>
37
1 -0.62
10 -0.15
11 -0.15
12 -0.15
13 -0.15
14 -0.15
15 -0.15
16 -0.15
17 -0.15
18 -0.15
19 -0.15
20 -0.15
21 -0.15
22 -0.15
23 -0.15
24 -0.15
25 0.15
26 0.15
27 0.15
28 0.15
29 0.15
3 0.31
30 0.15
31 0.15
32 0.15
33 0.15
34 0.15
35 0.15
36 0.15
37 0.15
38 0.15
39 0.15
4 0.31
40 0.15
41 0.15
5 -0.15
6 -0.15

> <PUBCHEM_EFFECTIVE_ROTOR_COUNT>
3

> <PUBCHEM_PHARMACOPHORE_FEATURES>
5
1 1 acceptor
6 1 2 3 4 5 6 rings
6 7 10 11 16 17 22 rings
6 8 12 13 18 19 23 rings
6 9 14 15 20 21 24 rings

> <PUBCHEM_HEAVY_ATOM_COUNT>
24

> <PUBCHEM_ATOM_DEF_STEREO_COUNT>
0

> <PUBCHEM_ATOM_UDEF_STEREO_COUNT>
0

> <PUBCHEM_BOND_DEF_STEREO_COUNT>
0

> <PUBCHEM_BOND_UDEF_STEREO_COUNT>
0

> <PUBCHEM_ISOTOPIC_ATOM_COUNT>
0

> <PUBCHEM_COMPONENT_COUNT>
1

> <PUBCHEM_CACTVS_TAUTO_COUNT>
1

> <PUBCHEM_CONFORMER_ID>
000214B200000002

> <PUBCHEM_MMFF94_ENERGY>
85.7388

> <PUBCHEM_FEATURE_SELFOVERLAP>
25.374

> <PUBCHEM_SHAPE_FINGERPRINT>
10411042 1 18122908624996584023
1100329 8 18339080510031460506
11045515 52 17900827050146165279
11763715 3 17834137259264977286
12107183 9 17982462503850614785
12553582 1 18195243309087250087
12643181 29 18122068874130762676
12730499 353 18264776626654445649
12788726 201 17181926649871724147
13004483 165 17834666098487594675
13009979 54 17774166674065927859
13134695 92 18266173942344965831
13140716 1 18266741470364006003
13590594 115 17978516330400609113
13690498 29 17335634007433042238
13692114 37 17836633489730349315
138480 1 18338518525812489650
13911987 19 18189642504614248358
13955234 65 18410860979672892491
14508225 48 17907001894499491460
14955137 171 18409444778731987138
15042514 8 16752689988952252042
15230672 131 18046916154849862068
15664445 248 18128554668844944966
15842332 3 17917706925250974695
15927050 60 18196661910793619942
16087824 20 17330273867136806757
17539 30 17547281203569195222
17913733 40 18122924263399134419
17980427 26 18341608273904199221
1813 80 17986115106451441567
18915476 22 18335991964514926699
19319366 153 18127692841160756117
20101258 96 17907027174898756050
20505436 4 17844821476298443437
20739085 24 18128818542992856891
21049683 271 18188508890170383206
21120745 212 17835253242307993958
21304303 282 17047066536129028108
21796203 349 18050322226264556459
2255824 54 18342175561869612247
23559900 14 18337101277506212691
23845131 108 18120374521657146107
23929065 36 17256216282610866442
283562 15 17758118090272233602
3091708 16 9360393721369119651
4409770 3 17111004846939908661
458136 41 18337957908311484509
474 4 18269835487975181097
532947 4 18411704322250069174
5385378 56 18339650031037295465
59025328 239 17407909420715560423
6058803 2 18131068239137295117
633830 44 18057898033225895837
6442390 28 17977672240224023121
6669772 16 18268155425707175926
6700243 42 17196876782721758614
70251023 43 18337940192135657215
7164475 11 17689440382425509494
77188 2 18194681462580857342
79837 15 17761775465219049106
9777508 108 17403740437410345216
9981440 41 18050279568664332825

> <PUBCHEM_SHAPE_MULTIPOLES>
488.93
8.57
7.58
0.98
15.03
0.02
0.06
-0.02
1.1
-15.13
-1.18
0.83
0
0

> <PUBCHEM_SHAPE_SELFOVERLAP>
1096.614

> <PUBCHEM_SHAPE_VOLUME>
256.8

> <PUBCHEM_COORDINATE_TYPE>
2
5
10

$$$$
