2776768
  -OEChem-11012401093D

 22 23  0     1  0  0  0  0  0999 V2000
   -3.2204    0.6046   -0.4023 S   0  0  0  0  0  0  0  0  0  0  0  0
    3.2203   -0.6047   -0.4024 S   0  0  0  0  0  0  0  0  0  0  0  0
   -0.5077    0.4703   -0.0871 N   0  0  0  0  0  0  0  0  0  0  0  0
    0.5077   -0.4702   -0.0869 N   0  0  0  0  0  0  0  0  0  0  0  0
   -1.5216   -1.5164   -0.2520 N   0  0  0  0  0  0  0  0  0  0  0  0
    1.5216    1.5163   -0.2518 N   0  0  0  0  0  0  0  0  0  0  0  0
    0.1021    1.7986   -0.1346 C   0  0  2  0  0  0  0  0  0  0  0  0
   -0.1020   -1.7985   -0.1346 C   0  0  2  0  0  0  0  0  0  0  0  0
   -1.7407   -0.1249   -0.2368 C   0  0  0  0  0  0  0  0  0  0  0  0
    1.7407    0.1249   -0.2367 C   0  0  0  0  0  0  0  0  0  0  0  0
   -0.2001    2.6119    1.1126 C   0  0  0  0  0  0  0  0  0  0  0  0
    0.1999   -2.6119    1.1127 C   0  0  0  0  0  0  0  0  0  0  0  0
   -0.2383    2.3171   -1.0365 H   0  0  0  0  0  0  0  0  0  0  0  0
    0.2385   -2.3170   -1.0365 H   0  0  0  0  0  0  0  0  0  0  0  0
   -2.2480   -2.2131   -0.3836 H   0  0  0  0  0  0  0  0  0  0  0  0
    2.2480    2.2130   -0.3834 H   0  0  0  0  0  0  0  0  0  0  0  0
    0.1232    2.0872    2.0189 H   0  0  0  0  0  0  0  0  0  0  0  0
    0.3213    3.5746    1.0826 H   0  0  0  0  0  0  0  0  0  0  0  0
   -1.2725    2.8077    1.2073 H   0  0  0  0  0  0  0  0  0  0  0  0
   -0.3214   -3.5746    1.0826 H   0  0  0  0  0  0  0  0  0  0  0  0
    1.2723   -2.8076    1.2077 H   0  0  0  0  0  0  0  0  0  0  0  0
   -0.1236   -2.0872    2.0190 H   0  0  0  0  0  0  0  0  0  0  0  0
  1  9  2  0  0  0  0
  2 10  2  0  0  0  0
  3  4  1  0  0  0  0
  3  7  1  0  0  0  0
  3  9  1  0  0  0  0
  4  8  1  0  0  0  0
  4 10  1  0  0  0  0
  5  8  1  0  0  0  0
  5  9  1  0  0  0  0
  5 15  1  0  0  0  0
  6  7  1  0  0  0  0
  6 10  1  0  0  0  0
  6 16  1  0  0  0  0
  7 11  1  0  0  0  0
  7 13  1  0  0  0  0
  8 12  1  0  0  0  0
  8 14  1  0  0  0  0
 11 17  1  0  0  0  0
 11 18  1  0  0  0  0
 11 19  1  0  0  0  0
 12 20  1  0  0  0  0
 12 21  1  0  0  0  0
 12 22  1  0  0  0  0
M  END
> <PUBCHEM_COMPOUND_CID>
2776768

> <PUBCHEM_CONFORMER_RMSD>
0.4

> <PUBCHEM_CONFORMER_DIVERSEORDER>
1
2
3

> <PUBCHEM_MMFF94_PARTIAL_CHARGES>
12
1 -0.38
10 0.5
15 0.37
16 0.37
2 -0.38
3 -0.36
4 -0.36
5 -0.73
6 -0.73
7 0.6
8 0.6
9 0.5

> <PUBCHEM_EFFECTIVE_ROTOR_COUNT>
0.8

> <PUBCHEM_PHARMACOPHORE_FEATURES>
6
1 1 acceptor
1 2 acceptor
1 5 donor
1 6 donor
5 3 4 5 8 9 rings
5 3 4 6 7 10 rings

> <PUBCHEM_HEAVY_ATOM_COUNT>
12

> <PUBCHEM_ATOM_DEF_STEREO_COUNT>
0

> <PUBCHEM_ATOM_UDEF_STEREO_COUNT>
2

> <PUBCHEM_BOND_DEF_STEREO_COUNT>
0

> <PUBCHEM_BOND_UDEF_STEREO_COUNT>
0

> <PUBCHEM_ISOTOPIC_ATOM_COUNT>
0

> <PUBCHEM_COMPONENT_COUNT>
1

> <PUBCHEM_CACTVS_TAUTO_COUNT>
3

> <PUBCHEM_CONFORMER_ID>
002A5EC000000001

> <PUBCHEM_MMFF94_ENERGY>
30.127

> <PUBCHEM_FEATURE_SELFOVERLAP>
30.696

> <PUBCHEM_SHAPE_FINGERPRINT>
13380535 76 17835505399310641957
13380536 167 17689715259862090945
14617773 55 17624119508857020097
15279308 132 18335135440234725098
16945 1 18338798918357221486
193761 8 17906453581762920541
20511035 2 18053103114197491508
20645476 183 17677634067041986382
21040471 1 18120087535857293981
2334 1 18266740375131521117
23388829 49 17904741302935632931
23402539 116 18200302226468075894
23552423 10 18044940322893369350
23559900 14 18412546518756793412
241688 4 17254830871820260211
2748010 2 16537077970389434583
3250762 1 17834113421826588762
353137 74 18194402195212166052
53655031 270 18194964041327213785
81228 2 18199486393288649080

> <PUBCHEM_SHAPE_MULTIPOLES>
234.73
3.67
2.76
0.88
0
0
-0.22
0
1
0
-1.07
0
0
-0.39

> <PUBCHEM_SHAPE_SELFOVERLAP>
462.765

> <PUBCHEM_SHAPE_VOLUME>
146.4

> <PUBCHEM_COORDINATE_TYPE>
2
5
10

$$$$
