136553
  -OEChem-11012400383D

 32 34  0     0  0  0  0  0  0999 V2000
    2.5605    0.7925   -0.0026 O   0  0  0  0  0  0  0  0  0  0  0  0
    2.4516   -1.5150    0.0008 O   0  0  0  0  0  0  0  0  0  0  0  0
    0.4362   -0.1927   -0.0075 C   0  0  0  0  0  0  0  0  0  0  0  0
   -1.8217   -1.3215    0.0000 C   0  0  0  0  0  0  0  0  0  0  0  0
   -1.4983    0.8409   -1.2572 C   0  0  0  0  0  0  0  0  0  0  0  0
   -1.4855    0.8347    1.2654 C   0  0  0  0  0  0  0  0  0  0  0  0
   -0.2998   -1.5475   -0.0073 C   0  0  0  0  0  0  0  0  0  0  0  0
    0.0225    0.6064   -1.2594 C   0  0  0  0  0  0  0  0  0  0  0  0
    0.0352    0.5996    1.2522 C   0  0  0  0  0  0  0  0  0  0  0  0
   -2.2194   -0.5180   -1.2503 C   0  0  0  0  0  0  0  0  0  0  0  0
   -2.2076   -0.5240    1.2581 C   0  0  0  0  0  0  0  0  0  0  0  0
   -1.8858    1.6262    0.0081 C   0  0  0  0  0  0  0  0  0  0  0  0
    1.9219   -0.4121   -0.0028 C   0  0  0  0  0  0  0  0  0  0  0  0
    3.9903    0.7305    0.0023 C   0  0  0  0  0  0  0  0  0  0  0  0
   -2.3397   -2.2869    0.0002 H   0  0  0  0  0  0  0  0  0  0  0  0
   -1.7870    1.4087   -2.1486 H   0  0  0  0  0  0  0  0  0  0  0  0
   -1.7657    1.3978    2.1626 H   0  0  0  0  0  0  0  0  0  0  0  0
   -0.0124   -2.1432    0.8693 H   0  0  0  0  0  0  0  0  0  0  0  0
   -0.0194   -2.1387   -0.8892 H   0  0  0  0  0  0  0  0  0  0  0  0
    0.3169    0.0670   -2.1694 H   0  0  0  0  0  0  0  0  0  0  0  0
    0.5357    1.5758   -1.2990 H   0  0  0  0  0  0  0  0  0  0  0  0
    0.5477    1.5694    1.2925 H   0  0  0  0  0  0  0  0  0  0  0  0
    0.3372    0.0559    2.1572 H   0  0  0  0  0  0  0  0  0  0  0  0
   -1.9633   -1.0824   -2.1553 H   0  0  0  0  0  0  0  0  0  0  0  0
   -3.3056   -0.3653   -1.2669 H   0  0  0  0  0  0  0  0  0  0  0  0
   -3.2934   -0.3709    1.2855 H   0  0  0  0  0  0  0  0  0  0  0  0
   -1.9433   -1.0931    2.1578 H   0  0  0  0  0  0  0  0  0  0  0  0
   -1.3900    2.6046    0.0081 H   0  0  0  0  0  0  0  0  0  0  0  0
   -2.9661    1.8166    0.0140 H   0  0  0  0  0  0  0  0  0  0  0  0
    4.3748    1.7539    0.0019 H   0  0  0  0  0  0  0  0  0  0  0  0
    4.3500    0.2196   -0.8958 H   0  0  0  0  0  0  0  0  0  0  0  0
    4.3439    0.2226    0.9046 H   0  0  0  0  0  0  0  0  0  0  0  0
  1 13  1  0  0  0  0
  1 14  1  0  0  0  0
  2 13  2  0  0  0  0
  3  7  1  0  0  0  0
  3  8  1  0  0  0  0
  3  9  1  0  0  0  0
  3 13  1  0  0  0  0
  4  7  1  0  0  0  0
  4 10  1  0  0  0  0
  4 11  1  0  0  0  0
  4 15  1  0  0  0  0
  5  8  1  0  0  0  0
  5 10  1  0  0  0  0
  5 12  1  0  0  0  0
  5 16  1  0  0  0  0
  6  9  1  0  0  0  0
  6 11  1  0  0  0  0
  6 12  1  0  0  0  0
  6 17  1  0  0  0  0
  7 18  1  0  0  0  0
  7 19  1  0  0  0  0
  8 20  1  0  0  0  0
  8 21  1  0  0  0  0
  9 22  1  0  0  0  0
  9 23  1  0  0  0  0
 10 24  1  0  0  0  0
 10 25  1  0  0  0  0
 11 26  1  0  0  0  0
 11 27  1  0  0  0  0
 12 28  1  0  0  0  0
 12 29  1  0  0  0  0
 14 30  1  0  0  0  0
 14 31  1  0  0  0  0
 14 32  1  0  0  0  0
M  END
> <PUBCHEM_COMPOUND_CID>
136553

> <PUBCHEM_CONFORMER_RMSD>
0.6

> <PUBCHEM_CONFORMER_DIVERSEORDER>
1

> <PUBCHEM_MMFF94_PARTIAL_CHARGES>
5
1 -0.43
13 0.66
14 0.28
2 -0.57
3 0.06

> <PUBCHEM_EFFECTIVE_ROTOR_COUNT>
3.2

> <PUBCHEM_PHARMACOPHORE_FEATURES>
5
1 2 acceptor
6 3 4 5 7 8 10 rings
6 3 4 6 7 9 11 rings
6 3 5 6 8 9 12 rings
6 4 5 6 10 11 12 rings

> <PUBCHEM_HEAVY_ATOM_COUNT>
14

> <PUBCHEM_ATOM_DEF_STEREO_COUNT>
0

> <PUBCHEM_ATOM_UDEF_STEREO_COUNT>
0

> <PUBCHEM_BOND_DEF_STEREO_COUNT>
0

> <PUBCHEM_BOND_UDEF_STEREO_COUNT>
0

> <PUBCHEM_ISOTOPIC_ATOM_COUNT>
0

> <PUBCHEM_COMPONENT_COUNT>
1

> <PUBCHEM_CACTVS_TAUTO_COUNT>
1

> <PUBCHEM_CONFORMER_ID>
0002156900000001

> <PUBCHEM_MMFF94_ENERGY>
34.1277

> <PUBCHEM_FEATURE_SELFOVERLAP>
37.917

> <PUBCHEM_SHAPE_FINGERPRINT>
10702982 57 17769933485368340961
10948715 1 18122626055135346849
12423570 1 15625954182852771023
12491281 212 18260825943230316708
12932764 1 18130791161589910672
13024252 1 13840261498640456525
14817 1 12635939174308026569
15775835 57 18343587313082019544
16945 1 18338517567950445030
17844478 74 18260841422276367475
19837323 101 17823126839970800821
19868273 325 16845573144800135112
200 152 18201707488016872238
20525323 117 18186802508411755004
20653085 51 18191016799015771309
21501502 16 18339072701279801926
2306618 200 18335975415758365856
23402539 116 17241033418457991963
23419403 2 17693082377210683875
2748010 2 18188493471411941470
369184 2 18343585118290239379
5084963 1 18270104738984025582
528886 8 18187351139070740735
8030462 33 17774995774367903418

> <PUBCHEM_SHAPE_MULTIPOLES>
276.37
4.32
1.52
1.31
4.98
0.18
0
-0.42
0
-0.29
0
-0.82
-0.22
0

> <PUBCHEM_SHAPE_SELFOVERLAP>
598.739

> <PUBCHEM_SHAPE_VOLUME>
146

> <PUBCHEM_COORDINATE_TYPE>
2
5
10

$$$$
