10176158
  -OEChem-11012401213D

 22 24  0     1  0  0  0  0  0999 V2000
    0.4005    0.8014   -0.7685 C   0  0  1  0  0  0  0  0  0  0  0  0
    0.3861   -0.7638   -0.8113 C   0  0  2  0  0  0  0  0  0  0  0  0
   -1.0079    1.1320   -0.2029 C   0  0  1  0  0  0  0  0  0  0  0  0
   -1.0311   -1.1069   -0.2814 C   0  0  2  0  0  0  0  0  0  0  0  0
   -1.8414    0.0434   -0.8989 C   0  0  0  0  0  0  0  0  0  0  0  0
    1.6188    1.2113    0.0650 C   0  0  0  0  0  0  0  0  0  0  0  0
   -1.1447    0.6340    1.2170 C   0  0  0  0  0  0  0  0  0  0  0  0
   -1.1620   -0.7059    1.1707 C   0  0  0  0  0  0  0  0  0  0  0  0
    1.5594   -1.1547    0.0227 C   0  0  0  0  0  0  0  0  0  0  0  0
    2.2223   -0.0907    0.4877 C   0  0  0  0  0  0  0  0  0  0  0  0
    0.4842    1.2028   -1.7873 H   0  0  0  0  0  0  0  0  0  0  0  0
    0.5111   -1.1146   -1.8428 H   0  0  0  0  0  0  0  0  0  0  0  0
   -1.3567    2.1523   -0.3666 H   0  0  0  0  0  0  0  0  0  0  0  0
   -1.3984   -2.1071   -0.5152 H   0  0  0  0  0  0  0  0  0  0  0  0
   -1.7800    0.0805   -1.9927 H   0  0  0  0  0  0  0  0  0  0  0  0
   -2.8983    0.0441   -0.6021 H   0  0  0  0  0  0  0  0  0  0  0  0
    1.3566    1.8326    0.9262 H   0  0  0  0  0  0  0  0  0  0  0  0
    2.3353    1.7673   -0.5492 H   0  0  0  0  0  0  0  0  0  0  0  0
   -1.1712    1.2443    2.1054 H   0  0  0  0  0  0  0  0  0  0  0  0
   -1.2045   -1.3756    2.0146 H   0  0  0  0  0  0  0  0  0  0  0  0
    1.8417   -2.1790    0.2195 H   0  0  0  0  0  0  0  0  0  0  0  0
    3.1051   -0.1573    1.1077 H   0  0  0  0  0  0  0  0  0  0  0  0
  1  2  1  0  0  0  0
  1  3  1  0  0  0  0
  1  6  1  0  0  0  0
  1 11  1  0  0  0  0
  2  4  1  0  0  0  0
  2  9  1  0  0  0  0
  2 12  1  0  0  0  0
  3  5  1  0  0  0  0
  3  7  1  0  0  0  0
  3 13  1  0  0  0  0
  4  5  1  0  0  0  0
  4  8  1  0  0  0  0
  4 14  1  0  0  0  0
  5 15  1  0  0  0  0
  5 16  1  0  0  0  0
  6 10  1  0  0  0  0
  6 17  1  0  0  0  0
  6 18  1  0  0  0  0
  7  8  2  0  0  0  0
  7 19  1  0  0  0  0
  8 20  1  0  0  0  0
  9 10  2  0  0  0  0
  9 21  1  0  0  0  0
 10 22  1  0  0  0  0
M  END
> <PUBCHEM_COMPOUND_CID>
10176158

> <PUBCHEM_CONFORMER_RMSD>
0.4

> <PUBCHEM_CONFORMER_DIVERSEORDER>
1

> <PUBCHEM_MMFF94_PARTIAL_CHARGES>
12
10 -0.29
19 0.15
2 0.14
20 0.15
21 0.15
22 0.15
3 0.14
4 0.14
6 0.14
7 -0.29
8 -0.29
9 -0.29

> <PUBCHEM_EFFECTIVE_ROTOR_COUNT>
0.4

> <PUBCHEM_PHARMACOPHORE_FEATURES>
2
5 1 2 6 9 10 rings
7 1 2 3 4 5 7 8 rings

> <PUBCHEM_HEAVY_ATOM_COUNT>
10

> <PUBCHEM_ATOM_DEF_STEREO_COUNT>
4

> <PUBCHEM_ATOM_UDEF_STEREO_COUNT>
0

> <PUBCHEM_BOND_DEF_STEREO_COUNT>
0

> <PUBCHEM_BOND_UDEF_STEREO_COUNT>
0

> <PUBCHEM_ISOTOPIC_ATOM_COUNT>
0

> <PUBCHEM_COMPONENT_COUNT>
1

> <PUBCHEM_CACTVS_TAUTO_COUNT>
1

> <PUBCHEM_CONFORMER_ID>
009B469E00000001

> <PUBCHEM_MMFF94_ENERGY>
43.9518

> <PUBCHEM_FEATURE_SELFOVERLAP>
10.325

> <PUBCHEM_SHAPE_FINGERPRINT>
12423570 1 10676106808982314157
13024252 1 16009022835436715986
16945 1 18338781364889186327
18185500 45 18053942037285034102
21040471 1 18269563732034350324
21922407 69 17704077321341468906
241688 4 17907853998920799586
29004967 10 17968097589563139008
369184 2 17676757730203735656
5084963 1 17775563126525698638

> <PUBCHEM_SHAPE_MULTIPOLES>
205.8
2.46
1.36
1.14
0.77
0.03
0.18
-0.01
0.2
0.14
-0.04
-0.39
-0.01
0

> <PUBCHEM_SHAPE_SELFOVERLAP>
462.224

> <PUBCHEM_SHAPE_VOLUME>
108.9

> <PUBCHEM_COORDINATE_TYPE>
2
5
10

$$$$
