140885
  -OEChem-11012401133D

 27 29  0     0  0  0  0  0  0999 V2000
    2.3804    0.0001   -0.0002 N   0  3  0  0  0  0  0  0  0  0  0  0
    0.9504    0.0001   -0.0002 C   0  0  0  0  0  0  0  0  0  0  0  0
   -1.1075    1.4367   -0.2402 C   0  0  0  0  0  0  0  0  0  0  0  0
   -1.1076   -0.9264   -1.1241 C   0  0  0  0  0  0  0  0  0  0  0  0
   -1.1073   -0.5103    1.3645 C   0  0  0  0  0  0  0  0  0  0  0  0
    0.4309    1.4294   -0.2391 C   0  0  0  0  0  0  0  0  0  0  0  0
    0.4309   -0.9217   -1.1185 C   0  0  0  0  0  0  0  0  0  0  0  0
    0.4312   -0.5080    1.3571 C   0  0  0  0  0  0  0  0  0  0  0  0
   -1.6163    0.5073   -1.3562 C   0  0  0  0  0  0  0  0  0  0  0  0
   -1.6159    0.9211    1.1177 C   0  0  0  0  0  0  0  0  0  0  0  0
   -1.6163   -1.4283    0.2390 C   0  0  0  0  0  0  0  0  0  0  0  0
    3.5472   -0.0001    0.0002 C   0  5  0  0  0  0  0  0  0  0  0  0
   -1.4734    2.4553   -0.4105 H   0  0  0  0  0  0  0  0  0  0  0  0
   -1.4735   -1.5832   -1.9210 H   0  0  0  0  0  0  0  0  0  0  0  0
   -1.4730   -0.8721    2.3318 H   0  0  0  0  0  0  0  0  0  0  0  0
    0.8081    1.8169   -1.1944 H   0  0  0  0  0  0  0  0  0  0  0  0
    0.8082    2.1065    0.5383 H   0  0  0  0  0  0  0  0  0  0  0  0
    0.8082   -1.9427   -0.9764 H   0  0  0  0  0  0  0  0  0  0  0  0
    0.8080   -0.5871   -2.0936 H   0  0  0  0  0  0  0  0  0  0  0  0
    0.8086    0.1254    2.1704 H   0  0  0  0  0  0  0  0  0  0  0  0
    0.8084   -1.5198    1.5547 H   0  0  0  0  0  0  0  0  0  0  0  0
   -2.7130    0.5160   -1.3795 H   0  0  0  0  0  0  0  0  0  0  0  0
   -1.2740    0.8725   -2.3323 H   0  0  0  0  0  0  0  0  0  0  0  0
   -1.2732    1.5838    1.9218 H   0  0  0  0  0  0  0  0  0  0  0  0
   -2.7126    0.9371    1.1373 H   0  0  0  0  0  0  0  0  0  0  0  0
   -2.7130   -1.4528    0.2432 H   0  0  0  0  0  0  0  0  0  0  0  0
   -1.2739   -2.4562    0.4108 H   0  0  0  0  0  0  0  0  0  0  0  0
  1  2  1  0  0  0  0
  1 12  3  0  0  0  0
  2  6  1  0  0  0  0
  2  7  1  0  0  0  0
  2  8  1  0  0  0  0
  3  6  1  0  0  0  0
  3  9  1  0  0  0  0
  3 10  1  0  0  0  0
  3 13  1  0  0  0  0
  4  7  1  0  0  0  0
  4  9  1  0  0  0  0
  4 11  1  0  0  0  0
  4 14  1  0  0  0  0
  5  8  1  0  0  0  0
  5 10  1  0  0  0  0
  5 11  1  0  0  0  0
  5 15  1  0  0  0  0
  6 16  1  0  0  0  0
  6 17  1  0  0  0  0
  7 18  1  0  0  0  0
  7 19  1  0  0  0  0
  8 20  1  0  0  0  0
  8 21  1  0  0  0  0
  9 22  1  0  0  0  0
  9 23  1  0  0  0  0
 10 24  1  0  0  0  0
 10 25  1  0  0  0  0
 11 26  1  0  0  0  0
 11 27  1  0  0  0  0
M  CHG  2   1   1  12  -1
M  END
> <PUBCHEM_COMPOUND_CID>
140885

> <PUBCHEM_CONFORMER_RMSD>
0.4

> <PUBCHEM_CONFORMER_DIVERSEORDER>
1

> <PUBCHEM_MMFF94_PARTIAL_CHARGES>
3
1 0.1
12 -0.37
2 0.27

> <PUBCHEM_EFFECTIVE_ROTOR_COUNT>
1.2

> <PUBCHEM_PHARMACOPHORE_FEATURES>
4
6 2 3 4 6 7 9 rings
6 2 3 5 6 8 10 rings
6 2 4 5 7 8 11 rings
6 3 4 5 9 10 11 rings

> <PUBCHEM_HEAVY_ATOM_COUNT>
12

> <PUBCHEM_ATOM_DEF_STEREO_COUNT>
0

> <PUBCHEM_ATOM_UDEF_STEREO_COUNT>
0

> <PUBCHEM_BOND_DEF_STEREO_COUNT>
0

> <PUBCHEM_BOND_UDEF_STEREO_COUNT>
0

> <PUBCHEM_ISOTOPIC_ATOM_COUNT>
0

> <PUBCHEM_COMPONENT_COUNT>
1

> <PUBCHEM_CACTVS_TAUTO_COUNT>
1

> <PUBCHEM_CONFORMER_ID>
0002265500000001

> <PUBCHEM_MMFF94_ENERGY>
24.5074

> <PUBCHEM_FEATURE_SELFOVERLAP>
32.852

> <PUBCHEM_SHAPE_FINGERPRINT>
10702982 57 17677879141801208149
12423570 1 8976353538529574771
13024252 1 16732984223509767170
137420 1 12329029203438173459
14817 1 11376198452725716359
15557651 10 18056754330304694721
16945 1 18043502054262524599
19837323 101 18129381509941375160
369184 2 18040434391098724440
5084963 1 18188489193597997740
528886 8 18129932395458093797
68250623 7 18047203113491474061

> <PUBCHEM_SHAPE_MULTIPOLES>
241.97
3.15
1.42
1.42
3.66
0.19
-0.03
0
0
-0.59
0.03
-0.59
-0.19
0

> <PUBCHEM_SHAPE_SELFOVERLAP>
524.127

> <PUBCHEM_SHAPE_VOLUME>
127.4

> <PUBCHEM_COORDINATE_TYPE>
2
5
10

$$$$
