123802745
  -OEChem-11012401193D

 29 28  0     0  0  0  0  0  0999 V2000
   -0.0124    0.2745   -0.6053 Si  0  0  0  0  0  0  0  0  0  0  0  0
   -1.4712   -0.8076   -0.2018 C   0  0  0  0  0  0  0  0  0  0  0  0
    1.5730   -0.5290   -0.0545 C   0  0  0  0  0  0  0  0  0  0  0  0
   -0.2042    1.9526    0.1752 C   0  0  0  0  0  0  0  0  0  0  0  0
   -1.4499   -2.1463   -0.9509 C   0  0  0  0  0  0  0  0  0  0  0  0
   -1.6314   -1.0616    1.3028 C   0  0  0  0  0  0  0  0  0  0  0  0
    2.7887   -0.0813   -0.8763 C   0  0  0  0  0  0  0  0  0  0  0  0
    1.8590   -0.3288    1.4394 C   0  0  0  0  0  0  0  0  0  0  0  0
   -1.4517    2.7276   -0.2286 C   0  0  0  0  0  0  0  0  0  0  0  0
    0.0295    0.4457   -2.0805 H   0  0  0  0  0  0  0  0  0  0  0  0
   -2.3672   -0.2696   -0.5360 H   0  0  0  0  0  0  0  0  0  0  0  0
    1.4674   -1.6080   -0.2200 H   0  0  0  0  0  0  0  0  0  0  0  0
   -0.2023    1.8507    1.2662 H   0  0  0  0  0  0  0  0  0  0  0  0
    0.6741    2.5572   -0.0793 H   0  0  0  0  0  0  0  0  0  0  0  0
   -1.3886   -1.9990   -2.0354 H   0  0  0  0  0  0  0  0  0  0  0  0
   -2.3665   -2.7122   -0.7490 H   0  0  0  0  0  0  0  0  0  0  0  0
   -0.6032   -2.7730   -0.6487 H   0  0  0  0  0  0  0  0  0  0  0  0
   -1.6194   -0.1343    1.8856 H   0  0  0  0  0  0  0  0  0  0  0  0
   -0.8524   -1.7263    1.6903 H   0  0  0  0  0  0  0  0  0  0  0  0
   -2.5919   -1.5529    1.4985 H   0  0  0  0  0  0  0  0  0  0  0  0
    2.9833    0.9915   -0.7608 H   0  0  0  0  0  0  0  0  0  0  0  0
    3.6891   -0.6192   -0.5586 H   0  0  0  0  0  0  0  0  0  0  0  0
    2.6468   -0.2829   -1.9444 H   0  0  0  0  0  0  0  0  0  0  0  0
    2.7537   -0.8912    1.7314 H   0  0  0  0  0  0  0  0  0  0  0  0
    1.0434   -0.6738    2.0791 H   0  0  0  0  0  0  0  0  0  0  0  0
    2.0477    0.7244    1.6785 H   0  0  0  0  0  0  0  0  0  0  0  0
   -1.4907    2.8899   -1.3113 H   0  0  0  0  0  0  0  0  0  0  0  0
   -2.3657    2.2023    0.0688 H   0  0  0  0  0  0  0  0  0  0  0  0
   -1.4584    3.7086    0.2581 H   0  0  0  0  0  0  0  0  0  0  0  0
  1  2  1  0  0  0  0
  1  3  1  0  0  0  0
  1  4  1  0  0  0  0
  1 10  1  0  0  0  0
  2  5  1  0  0  0  0
  2  6  1  0  0  0  0
  2 11  1  0  0  0  0
  3  7  1  0  0  0  0
  3  8  1  0  0  0  0
  3 12  1  0  0  0  0
  4  9  1  0  0  0  0
  4 13  1  0  0  0  0
  4 14  1  0  0  0  0
  5 15  1  0  0  0  0
  5 16  1  0  0  0  0
  5 17  1  0  0  0  0
  6 18  1  0  0  0  0
  6 19  1  0  0  0  0
  6 20  1  0  0  0  0
  7 21  1  0  0  0  0
  7 22  1  0  0  0  0
  7 23  1  0  0  0  0
  8 24  1  0  0  0  0
  8 25  1  0  0  0  0
  8 26  1  0  0  0  0
  9 27  1  0  0  0  0
  9 28  1  0  0  0  0
  9 29  1  0  0  0  0
M  END
> <PUBCHEM_COMPOUND_CID>
123802745

> <PUBCHEM_CONFORMER_RMSD>
0.6

> <PUBCHEM_CONFORMER_DIVERSEORDER>
1
21
29
3
19
25
24
15
28
20
2
10
18
23
9
13
26
4
8
11
22
30
27
17
16
14
7
12
6
5

> <PUBCHEM_MMFF94_PARTIAL_CHARGES>
5
1 0.44
10 -0.2
2 -0.08
3 -0.08
4 -0.08

> <PUBCHEM_EFFECTIVE_ROTOR_COUNT>
3

> <PUBCHEM_PHARMACOPHORE_FEATURES>
2
3 2 5 6 hydrophobe
3 3 7 8 hydrophobe

> <PUBCHEM_HEAVY_ATOM_COUNT>
9

> <PUBCHEM_ATOM_DEF_STEREO_COUNT>
0

> <PUBCHEM_ATOM_UDEF_STEREO_COUNT>
0

> <PUBCHEM_BOND_DEF_STEREO_COUNT>
0

> <PUBCHEM_BOND_UDEF_STEREO_COUNT>
0

> <PUBCHEM_ISOTOPIC_ATOM_COUNT>
0

> <PUBCHEM_COMPONENT_COUNT>
1

> <PUBCHEM_CACTVS_TAUTO_COUNT>
1

> <PUBCHEM_CONFORMER_ID>
0761147900000001

> <PUBCHEM_MMFF94_ENERGY>
5.6993

> <PUBCHEM_FEATURE_SELFOVERLAP>
10.149

> <PUBCHEM_SHAPE_FINGERPRINT>
1 1 17331389874952127780
100427 49 18121224435038309501
11129358 1 18411698815711852617
12423570 1 17983613820503132302
137420 1 15021792398606950245
16945 1 18340190908831548333
18185500 45 18195814187180443671
20653091 64 17764312034365626171
20711978 78 17469620953827867611
20711985 344 18410851049223129118
20871998 184 18268164092487046005
21040471 1 17979627944802639004
21930827 45 18128245693176507704
23526114 1 17907016531748218085
23552333 60 17240755190407712594
23552449 11 17760624255244348511
241688 4 15097906662328552778
5084963 1 17475789858183459380
528862 383 17187542375018407743
54338 74 18340758351452694847
81228 2 18410846651303452433

> <PUBCHEM_SHAPE_MULTIPOLES>
203.43
2.98
2.52
1.31
1.86
1.53
0.31
-0.68
-0.06
-2.06
-0.31
0.18
-0.43
-0.1

> <PUBCHEM_SHAPE_SELFOVERLAP>
351.829

> <PUBCHEM_SHAPE_VOLUME>
137.2

> <PUBCHEM_COORDINATE_TYPE>
2
5
10

$$$$
