137461
  -OEChem-11012401093D

 24 24  0     0  0  0  0  0  0999 V2000
   -0.3351    1.9444   -0.1354 O   0  0  0  0  0  0  0  0  0  0  0  0
    2.4014   -1.9835    0.0565 O   0  0  0  0  0  0  0  0  0  0  0  0
    2.7448    1.1247   -1.2382 O   0  0  0  0  0  0  0  0  0  0  0  0
   -2.8869    1.5227    0.5058 O   0  0  0  0  0  0  0  0  0  0  0  0
    1.0523   -0.0009   -0.0415 C   0  0  0  0  0  0  0  0  0  0  0  0
   -1.3531   -0.2095    0.0466 C   0  0  0  0  0  0  0  0  0  0  0  0
   -0.2123    0.5880   -0.0443 C   0  0  0  0  0  0  0  0  0  0  0  0
    1.1758   -1.3872    0.0522 C   0  0  0  0  0  0  0  0  0  0  0  0
   -1.2296   -1.5957    0.1404 C   0  0  0  0  0  0  0  0  0  0  0  0
    0.0348   -2.1845    0.1432 C   0  0  0  0  0  0  0  0  0  0  0  0
    2.2468    0.8310   -0.1357 C   0  0  0  0  0  0  0  0  0  0  0  0
   -2.6839    0.3826    0.0459 C   0  0  0  0  0  0  0  0  0  0  0  0
    2.9119    1.3592    1.1281 C   0  0  0  0  0  0  0  0  0  0  0  0
   -3.8667   -0.3912   -0.5236 C   0  0  0  0  0  0  0  0  0  0  0  0
   -2.0984   -2.2422    0.2270 H   0  0  0  0  0  0  0  0  0  0  0  0
    0.1244   -3.2647    0.2196 H   0  0  0  0  0  0  0  0  0  0  0  0
    3.9381    0.9863    1.1767 H   0  0  0  0  0  0  0  0  0  0  0  0
    2.3718    1.0183    2.0159 H   0  0  0  0  0  0  0  0  0  0  0  0
    2.9027    2.4519    1.1089 H   0  0  0  0  0  0  0  0  0  0  0  0
   -4.3214   -0.9977    0.2633 H   0  0  0  0  0  0  0  0  0  0  0  0
   -3.5528   -1.0224   -1.3594 H   0  0  0  0  0  0  0  0  0  0  0  0
   -4.6046    0.3191   -0.9089 H   0  0  0  0  0  0  0  0  0  0  0  0
   -1.2644    2.2030   -0.2363 H   0  0  0  0  0  0  0  0  0  0  0  0
    3.1050   -1.3211   -0.0332 H   0  0  0  0  0  0  0  0  0  0  0  0
  1  7  1  0  0  0  0
  1 23  1  0  0  0  0
  2  8  1  0  0  0  0
  2 24  1  0  0  0  0
  3 11  2  0  0  0  0
  4 12  2  0  0  0  0
  5  7  1  0  0  0  0
  5  8  2  0  0  0  0
  5 11  1  0  0  0  0
  6  7  2  0  0  0  0
  6  9  1  0  0  0  0
  6 12  1  0  0  0  0
  8 10  1  0  0  0  0
  9 10  2  0  0  0  0
  9 15  1  0  0  0  0
 10 16  1  0  0  0  0
 11 13  1  0  0  0  0
 12 14  1  0  0  0  0
 13 17  1  0  0  0  0
 13 18  1  0  0  0  0
 13 19  1  0  0  0  0
 14 20  1  0  0  0  0
 14 21  1  0  0  0  0
 14 22  1  0  0  0  0
M  END
> <PUBCHEM_COMPOUND_CID>
137461

> <PUBCHEM_CONFORMER_RMSD>
0.6

> <PUBCHEM_CONFORMER_DIVERSEORDER>
1
6
2
3
5
4

> <PUBCHEM_MMFF94_PARTIAL_CHARGES>
18
1 -0.53
10 -0.15
11 0.42
12 0.42
13 0.06
14 0.06
15 0.15
16 0.15
2 -0.53
23 0.45
24 0.45
3 -0.57
4 -0.57
5 0.09
6 0.09
7 0.08
8 0.08
9 -0.15

> <PUBCHEM_EFFECTIVE_ROTOR_COUNT>
2

> <PUBCHEM_PHARMACOPHORE_FEATURES>
5
1 1 donor
1 2 donor
1 3 acceptor
1 4 acceptor
6 5 6 7 8 9 10 rings

> <PUBCHEM_HEAVY_ATOM_COUNT>
14

> <PUBCHEM_ATOM_DEF_STEREO_COUNT>
0

> <PUBCHEM_ATOM_UDEF_STEREO_COUNT>
0

> <PUBCHEM_BOND_DEF_STEREO_COUNT>
0

> <PUBCHEM_BOND_UDEF_STEREO_COUNT>
0

> <PUBCHEM_ISOTOPIC_ATOM_COUNT>
0

> <PUBCHEM_COMPONENT_COUNT>
1

> <PUBCHEM_CACTVS_TAUTO_COUNT>
51

> <PUBCHEM_CONFORMER_ID>
000218F500000001

> <PUBCHEM_MMFF94_ENERGY>
45.5707

> <PUBCHEM_FEATURE_SELFOVERLAP>
25.371

> <PUBCHEM_SHAPE_FINGERPRINT>
10967382 1 18410292535960381523
10980938 120 18409730651417383939
11206711 2 18049443939632368719
12382932 28 18337104665502023936
12423570 1 17700684073892434479
12932764 1 17917712405170340705
13140716 1 18337955580360095707
13380535 21 18336562589026643187
13380535 76 18337385040946332346
14325111 11 18411138017853407921
14897335 6 18411129277178456534
15536298 74 18271804597040725834
15775835 57 18343308045924201401
16945 1 18266744773331136427
18186145 218 18339928121415811197
193761 8 17977381629488071877
20510252 161 17909556395139674400
20511035 2 18410296908511889214
20645476 183 17533224295664563342
20645477 70 18339918213390755983
21040471 1 18337956791466785810
21501502 16 18339927000339623929
21524375 3 18410007762543992938
2334 1 18410014338307656707
23402539 116 18127393747547449237
23402655 69 18340475713199055093
23463225 33 18334854991686684866
23493267 7 17604163600366836512
23552423 10 18263646156485746575
23559900 14 18270696384854090380
2748010 2 18337120037195698967
3071541 236 18044647831109630491
528886 8 18337388339438614896
53812653 166 18271239550947968681
63268167 104 18411982438483304489
7364860 26 18272367521446025878

> <PUBCHEM_SHAPE_MULTIPOLES>
264.64
5.04
2.18
0.81
1.99
0.7
-0.03
-1.59
-0.16
-0.56
0.19
-0.41
-0.21
-0.08

> <PUBCHEM_SHAPE_SELFOVERLAP>
558.903

> <PUBCHEM_SHAPE_VOLUME>
149.7

> <PUBCHEM_COORDINATE_TYPE>
2
5
10

$$$$
