74213
  -OEChem-11012401003D

 21 20  0     0  0  0  0  0  0999 V2000
   -1.2397    1.6912    0.2912 S   0  0  0  0  0  0  0  0  0  0  0  0
   -0.9108   -0.0961    0.0051 C   0  0  0  0  0  0  0  0  0  0  0  0
    0.5374   -0.4531    0.4216 C   0  0  0  0  0  0  0  0  0  0  0  0
    1.6589    0.2788   -0.3280 C   0  0  0  0  0  0  0  0  0  0  0  0
   -1.8942   -0.8900    0.8801 C   0  0  0  0  0  0  0  0  0  0  0  0
   -1.1796   -0.4067   -1.4725 C   0  0  0  0  0  0  0  0  0  0  0  0
    3.0280   -0.1241    0.2025 C   0  0  0  0  0  0  0  0  0  0  0  0
    0.6843   -1.5337    0.2864 H   0  0  0  0  0  0  0  0  0  0  0  0
    0.6590   -0.2696    1.4985 H   0  0  0  0  0  0  0  0  0  0  0  0
    1.5587    1.3638   -0.2270 H   0  0  0  0  0  0  0  0  0  0  0  0
    1.6158    0.0435   -1.3966 H   0  0  0  0  0  0  0  0  0  0  0  0
   -2.9379   -0.6696    0.6266 H   0  0  0  0  0  0  0  0  0  0  0  0
   -1.7527   -0.6783    1.9465 H   0  0  0  0  0  0  0  0  0  0  0  0
   -1.7503   -1.9682    0.7418 H   0  0  0  0  0  0  0  0  0  0  0  0
   -0.5671    0.2049   -2.1438 H   0  0  0  0  0  0  0  0  0  0  0  0
   -2.2301   -0.2368   -1.7375 H   0  0  0  0  0  0  0  0  0  0  0  0
   -0.9577   -1.4575   -1.6925 H   0  0  0  0  0  0  0  0  0  0  0  0
    3.1920   -1.2003    0.0881 H   0  0  0  0  0  0  0  0  0  0  0  0
    3.1281    0.1290    1.2628 H   0  0  0  0  0  0  0  0  0  0  0  0
    3.8162    0.3997   -0.3473 H   0  0  0  0  0  0  0  0  0  0  0  0
   -2.5170    1.6866   -0.1180 H   0  0  0  0  0  0  0  0  0  0  0  0
  1  2  1  0  0  0  0
  1 21  1  0  0  0  0
  2  3  1  0  0  0  0
  2  5  1  0  0  0  0
  2  6  1  0  0  0  0
  3  4  1  0  0  0  0
  3  8  1  0  0  0  0
  3  9  1  0  0  0  0
  4  7  1  0  0  0  0
  4 10  1  0  0  0  0
  4 11  1  0  0  0  0
  5 12  1  0  0  0  0
  5 13  1  0  0  0  0
  5 14  1  0  0  0  0
  6 15  1  0  0  0  0
  6 16  1  0  0  0  0
  6 17  1  0  0  0  0
  7 18  1  0  0  0  0
  7 19  1  0  0  0  0
  7 20  1  0  0  0  0
M  END
> <PUBCHEM_COMPOUND_CID>
74213

> <PUBCHEM_CONFORMER_RMSD>
0.4

> <PUBCHEM_CONFORMER_DIVERSEORDER>
1
4
3
2

> <PUBCHEM_MMFF94_PARTIAL_CHARGES>
3
1 -0.41
2 0.23
21 0.18

> <PUBCHEM_EFFECTIVE_ROTOR_COUNT>
2

> <PUBCHEM_PHARMACOPHORE_FEATURES>
2
1 7 hydrophobe
3 2 5 6 hydrophobe

> <PUBCHEM_HEAVY_ATOM_COUNT>
7

> <PUBCHEM_ATOM_DEF_STEREO_COUNT>
0

> <PUBCHEM_ATOM_UDEF_STEREO_COUNT>
0

> <PUBCHEM_BOND_DEF_STEREO_COUNT>
0

> <PUBCHEM_BOND_UDEF_STEREO_COUNT>
0

> <PUBCHEM_ISOTOPIC_ATOM_COUNT>
0

> <PUBCHEM_COMPONENT_COUNT>
1

> <PUBCHEM_CACTVS_TAUTO_COUNT>
1

> <PUBCHEM_CONFORMER_ID>
000121E500000001

> <PUBCHEM_MMFF94_ENERGY>
11.4014

> <PUBCHEM_FEATURE_SELFOVERLAP>
10.149

> <PUBCHEM_SHAPE_FINGERPRINT>
12932764 1 17775283863889681562
137420 1 10719214575536132361
15310529 11 18271815613842687326
16714656 1 17846499235761838413
21040471 1 18048606923283386680
23235687 12 17203330060992837188
24536 1 18261103050383211450
29004967 10 18341058509426360474
369184 2 17847056683999323106
5084963 1 17203033175583648334
5943 1 9315379977790402133

> <PUBCHEM_SHAPE_MULTIPOLES>
147.91
3.39
1.27
1.1
3.16
0.63
-0.3
-0.13
0.39
-0.8
0.13
-0.51
-0.26
-0.01

> <PUBCHEM_SHAPE_SELFOVERLAP>
251.374

> <PUBCHEM_SHAPE_VOLUME>
102.4

> <PUBCHEM_COORDINATE_TYPE>
2
5
10

$$$$
