82023
  -OEChem-11012401203D

 25 24  0     0  0  0  0  0  0999 V2000
    0.1872    0.7388   -0.4106 N   0  0  0  0  0  0  0  0  0  0  0  0
   -1.0592    0.0769   -0.0111 C   0  0  0  0  0  0  0  0  0  0  0  0
    1.3240    0.1385    0.2666 C   0  0  0  0  0  0  0  0  0  0  0  0
   -2.2019    1.0943   -0.0971 C   0  0  0  0  0  0  0  0  0  0  0  0
   -1.3209   -1.0899   -0.9692 C   0  0  0  0  0  0  0  0  0  0  0  0
   -0.9222   -0.4414    1.4254 C   0  0  0  0  0  0  0  0  0  0  0  0
    2.6163    0.8347   -0.1507 C   0  0  0  0  0  0  0  0  0  0  0  0
    1.3766   -1.3520   -0.0533 C   0  0  0  0  0  0  0  0  0  0  0  0
    0.1513    1.7296   -0.1704 H   0  0  0  0  0  0  0  0  0  0  0  0
    1.3006    0.2884    1.3520 H   0  0  0  0  0  0  0  0  0  0  0  0
   -2.3109    1.4859   -1.1154 H   0  0  0  0  0  0  0  0  0  0  0  0
   -3.1592    0.6418    0.1862 H   0  0  0  0  0  0  0  0  0  0  0  0
   -2.0335    1.9465    0.5721 H   0  0  0  0  0  0  0  0  0  0  0  0
   -0.9092   -2.0555   -0.6754 H   0  0  0  0  0  0  0  0  0  0  0  0
   -0.9889   -0.8634   -1.9900 H   0  0  0  0  0  0  0  0  0  0  0  0
   -2.4018   -1.2713   -1.0433 H   0  0  0  0  0  0  0  0  0  0  0  0
   -0.7036    0.3827    2.1193 H   0  0  0  0  0  0  0  0  0  0  0  0
   -1.9160   -0.7950    1.7402 H   0  0  0  0  0  0  0  0  0  0  0  0
   -0.2837   -1.2749    1.6945 H   0  0  0  0  0  0  0  0  0  0  0  0
    3.4788    0.4063    0.3717 H   0  0  0  0  0  0  0  0  0  0  0  0
    2.7940    0.7361   -1.2276 H   0  0  0  0  0  0  0  0  0  0  0  0
    2.5829    1.9036    0.0890 H   0  0  0  0  0  0  0  0  0  0  0  0
    0.7273   -2.0653    0.4420 H   0  0  0  0  0  0  0  0  0  0  0  0
    2.3763   -1.7152    0.2282 H   0  0  0  0  0  0  0  0  0  0  0  0
    1.3266   -1.5253   -1.1363 H   0  0  0  0  0  0  0  0  0  0  0  0
  1  2  1  0  0  0  0
  1  3  1  0  0  0  0
  1  9  1  0  0  0  0
  2  4  1  0  0  0  0
  2  5  1  0  0  0  0
  2  6  1  0  0  0  0
  3  7  1  0  0  0  0
  3  8  1  0  0  0  0
  3 10  1  0  0  0  0
  4 11  1  0  0  0  0
  4 12  1  0  0  0  0
  4 13  1  0  0  0  0
  5 14  1  0  0  0  0
  5 15  1  0  0  0  0
  5 16  1  0  0  0  0
  6 17  1  0  0  0  0
  6 18  1  0  0  0  0
  6 19  1  0  0  0  0
  7 20  1  0  0  0  0
  7 21  1  0  0  0  0
  7 22  1  0  0  0  0
  8 23  1  0  0  0  0
  8 24  1  0  0  0  0
  8 25  1  0  0  0  0
M  END
> <PUBCHEM_COMPOUND_CID>
82023

> <PUBCHEM_CONFORMER_RMSD>
0.4

> <PUBCHEM_CONFORMER_DIVERSEORDER>
1

> <PUBCHEM_MMFF94_PARTIAL_CHARGES>
4
1 -0.9
2 0.27
3 0.27
9 0.36

> <PUBCHEM_EFFECTIVE_ROTOR_COUNT>
2

> <PUBCHEM_PHARMACOPHORE_FEATURES>
4
1 1 cation
1 1 donor
3 3 7 8 hydrophobe
4 2 4 5 6 hydrophobe

> <PUBCHEM_HEAVY_ATOM_COUNT>
8

> <PUBCHEM_ATOM_DEF_STEREO_COUNT>
0

> <PUBCHEM_ATOM_UDEF_STEREO_COUNT>
0

> <PUBCHEM_BOND_DEF_STEREO_COUNT>
0

> <PUBCHEM_BOND_UDEF_STEREO_COUNT>
0

> <PUBCHEM_ISOTOPIC_ATOM_COUNT>
0

> <PUBCHEM_COMPONENT_COUNT>
1

> <PUBCHEM_CACTVS_TAUTO_COUNT>
1

> <PUBCHEM_CONFORMER_ID>
0001406700000001

> <PUBCHEM_MMFF94_ENERGY>
27.0797

> <PUBCHEM_FEATURE_SELFOVERLAP>
20.297

> <PUBCHEM_SHAPE_FINGERPRINT>
12423570 1 11703860339258739899
12897270 3 18198048364748328494
137420 1 10469009782412466071
14390081 3 18341609334708502880
15310529 11 18411418410250498603
18185500 45 18272643580141727422
20653085 51 18270409278088291417
21040471 1 18201712908191636021
23235685 24 17894349990429637700
23552423 10 18411412878290709422
24536 1 17749393688806303916
29004967 10 18187656811766648456
369184 2 16009019631370137616
5084963 1 17916307327999390696

> <PUBCHEM_SHAPE_MULTIPOLES>
159.66
3.07
1.32
1.02
1.05
0.2
-0.27
-0.88
0.27
0.01
0.19
-0.37
0.21
-0.12

> <PUBCHEM_SHAPE_SELFOVERLAP>
290.945

> <PUBCHEM_SHAPE_VOLUME>
105

> <PUBCHEM_COORDINATE_TYPE>
2
5
10

$$$$
