135408737
  -OEChem-11012401143D

 30 31  0     0  0  0  0  0  0999 V2000
    1.8581    1.3491   -2.2319 O   0  0  0  0  0  0  0  0  0  0  0  0
    0.6129    2.5668    1.5162 O   0  0  0  0  0  0  0  0  0  0  0  0
    0.6844    1.6386   -1.5315 N   0  0  0  0  0  0  0  0  0  0  0  0
   -0.6110    1.8977    1.4362 N   0  0  0  0  0  0  0  0  0  0  0  0
    1.6074   -0.0983   -0.1107 C   0  0  0  0  0  0  0  0  0  0  0  0
   -1.8544    0.2409    0.1724 C   0  0  0  0  0  0  0  0  0  0  0  0
    0.5653    0.9060   -0.4648 C   0  0  0  0  0  0  0  0  0  0  0  0
   -0.6694    1.0414    0.4356 C   0  0  0  0  0  0  0  0  0  0  0  0
    1.2759   -1.4510   -0.0351 C   0  0  0  0  0  0  0  0  0  0  0  0
   -2.1583   -0.1480   -1.1322 C   0  0  0  0  0  0  0  0  0  0  0  0
    2.9152    0.3146    0.1437 C   0  0  0  0  0  0  0  0  0  0  0  0
   -2.6864   -0.1395    1.2253 C   0  0  0  0  0  0  0  0  0  0  0  0
    2.2522   -2.3912    0.2951 C   0  0  0  0  0  0  0  0  0  0  0  0
   -3.2944   -0.9173   -1.3841 C   0  0  0  0  0  0  0  0  0  0  0  0
    3.8915   -0.6254    0.4738 C   0  0  0  0  0  0  0  0  0  0  0  0
   -3.8224   -0.9087    0.9735 C   0  0  0  0  0  0  0  0  0  0  0  0
    3.5600   -1.9782    0.5495 C   0  0  0  0  0  0  0  0  0  0  0  0
   -4.1265   -1.2975   -0.3311 C   0  0  0  0  0  0  0  0  0  0  0  0
    0.2662   -1.7949   -0.2377 H   0  0  0  0  0  0  0  0  0  0  0  0
   -1.5363    0.1378   -1.9749 H   0  0  0  0  0  0  0  0  0  0  0  0
    3.1877    1.3661    0.1036 H   0  0  0  0  0  0  0  0  0  0  0  0
   -2.4652    0.1465    2.2503 H   0  0  0  0  0  0  0  0  0  0  0  0
    1.9946   -3.4447    0.3522 H   0  0  0  0  0  0  0  0  0  0  0  0
   -3.5322   -1.2188   -2.4000 H   0  0  0  0  0  0  0  0  0  0  0  0
    4.9091   -0.3037    0.6752 H   0  0  0  0  0  0  0  0  0  0  0  0
   -4.4696   -1.2063    1.7934 H   0  0  0  0  0  0  0  0  0  0  0  0
    4.3201   -2.7100    0.8069 H   0  0  0  0  0  0  0  0  0  0  0  0
   -5.0110   -1.8965   -0.5271 H   0  0  0  0  0  0  0  0  0  0  0  0
    1.7960    1.9663   -2.9803 H   0  0  0  0  0  0  0  0  0  0  0  0
    0.4737    3.1361    2.2918 H   0  0  0  0  0  0  0  0  0  0  0  0
  1  3  1  0  0  0  0
  1 29  1  0  0  0  0
  2  4  1  0  0  0  0
  2 30  1  0  0  0  0
  3  7  2  0  0  0  0
  4  8  2  0  0  0  0
  5  7  1  0  0  0  0
  5  9  2  0  0  0  0
  5 11  1  0  0  0  0
  6  8  1  0  0  0  0
  6 10  2  0  0  0  0
  6 12  1  0  0  0  0
  7  8  1  0  0  0  0
  9 13  1  0  0  0  0
  9 19  1  0  0  0  0
 10 14  1  0  0  0  0
 10 20  1  0  0  0  0
 11 15  2  0  0  0  0
 11 21  1  0  0  0  0
 12 16  2  0  0  0  0
 12 22  1  0  0  0  0
 13 17  2  0  0  0  0
 13 23  1  0  0  0  0
 14 18  2  0  0  0  0
 14 24  1  0  0  0  0
 15 17  1  0  0  0  0
 15 25  1  0  0  0  0
 16 18  1  0  0  0  0
 16 26  1  0  0  0  0
 17 27  1  0  0  0  0
 18 28  1  0  0  0  0
M  END
> <PUBCHEM_COMPOUND_CID>
135408737

> <PUBCHEM_CONFORMER_RMSD>
0.6

> <PUBCHEM_CONFORMER_DIVERSEORDER>
1
22
23
9
17
21
16
10
19
18
6
15
7
20
14
5
13
4
3
12
8
11
2

> <PUBCHEM_MMFF94_PARTIAL_CHARGES>
30
1 -0.34
10 -0.15
11 -0.15
12 -0.15
13 -0.15
14 -0.15
15 -0.15
16 -0.15
17 -0.15
18 -0.15
19 0.15
2 -0.34
20 0.15
21 0.15
22 0.15
23 0.15
24 0.15
25 0.15
26 0.15
27 0.15
28 0.15
29 0.4
3 -0.51
30 0.4
4 -0.51
5 0.09
6 0.09
7 0.36
8 0.36
9 -0.15

> <PUBCHEM_EFFECTIVE_ROTOR_COUNT>
3

> <PUBCHEM_PHARMACOPHORE_FEATURES>
6
1 1 anion
1 2 anion
1 3 acceptor
1 4 acceptor
6 5 9 11 13 15 17 rings
6 6 10 12 14 16 18 rings

> <PUBCHEM_HEAVY_ATOM_COUNT>
18

> <PUBCHEM_ATOM_DEF_STEREO_COUNT>
0

> <PUBCHEM_ATOM_UDEF_STEREO_COUNT>
0

> <PUBCHEM_BOND_DEF_STEREO_COUNT>
2

> <PUBCHEM_BOND_UDEF_STEREO_COUNT>
0

> <PUBCHEM_ISOTOPIC_ATOM_COUNT>
0

> <PUBCHEM_COMPONENT_COUNT>
1

> <PUBCHEM_CACTVS_TAUTO_COUNT>
-1

> <PUBCHEM_CONFORMER_ID>
08122C6100000001

> <PUBCHEM_MMFF94_ENERGY>
62.521

> <PUBCHEM_FEATURE_SELFOVERLAP>
30.447

> <PUBCHEM_SHAPE_FINGERPRINT>
10618630 7 18411419466649137619
11221954 11 11022735404719047643
11578080 2 18339625789862568525
116883 192 17822846468605669373
12202030 40 17897171427940892067
12363563 72 17604150324681200002
12506688 2 18409448102546154427
12553582 1 18202567280392859959
12633257 1 16200147664675708971
13544653 18 18410288086469455306
13583140 156 16412916281934206442
13705890 14 17676486163732485458
14350558 41 18334298677394380326
14787075 74 18129095800712486368
15375462 189 18272653475857108299
15502722 9 17677343847094713988
16945 1 18261117412643099116
17834072 14 17822284665534875614
1813 80 18336560308810420798
18186145 218 15213024846941289605
19078846 21 18060153041458837345
200 152 18410566262842827779
20291156 8 18341332197458824658
20626108 58 17823396310239781762
20645477 70 17749390429258799399
20671657 53 17748827384483625894
21250096 35 18342731897594373283
21524375 3 16624040445597119281
22112679 90 18058751133704700313
2255824 54 18055355987858768297
232386 152 18131354124238342895
23388829 49 18412829062162333294
23402539 116 17822287912852119250
23419403 2 18050246419922547492
23559900 14 14273739551982660228
3286 77 18340483495421591927
5262128 65 16877948264890931381
81228 2 17461433620964734220
90316 7 17703510991343998033

> <PUBCHEM_SHAPE_MULTIPOLES>
348.73
6.94
2.26
1.5
1.74
0.26
0.37
-4.54
-0.41
-1.29
-0.39
0.46
0.77
-0.72

> <PUBCHEM_SHAPE_SELFOVERLAP>
747.807

> <PUBCHEM_SHAPE_VOLUME>
192.2

> <PUBCHEM_COORDINATE_TYPE>
2
5
10

$$$$
