639659
  -OEChem-11012401183D

 28 29  0     0  0  0  0  0  0999 V2000
    5.3921   -1.3325    0.3047 O   0  5  0  0  0  0  0  0  0  0  0  0
    5.6727    0.7542   -0.3165 O   0  0  0  0  0  0  0  0  0  0  0  0
    4.9299   -0.2073   -0.0032 N   0  3  0  0  0  0  0  0  0  0  0  0
    0.7773    0.3556    0.0139 C   0  0  0  0  0  0  0  0  0  0  0  0
   -3.0458   -0.2440   -0.0241 C   0  0  0  0  0  0  0  0  0  0  0  0
   -0.6830    0.5530    0.0188 C   0  0  0  0  0  0  0  0  0  0  0  0
    1.2951   -0.8837    0.3526 C   0  0  0  0  0  0  0  0  0  0  0  0
    1.6037    1.4130   -0.3305 C   0  0  0  0  0  0  0  0  0  0  0  0
   -1.6043   -0.4370   -0.0482 C   0  0  0  0  0  0  0  0  0  0  0  0
    3.5228   -0.0165    0.0027 C   0  0  0  0  0  0  0  0  0  0  0  0
    2.6772   -1.0710    0.3471 C   0  0  0  0  0  0  0  0  0  0  0  0
    2.9859    1.2257   -0.3361 C   0  0  0  0  0  0  0  0  0  0  0  0
   -3.5827    0.9401    0.4814 C   0  0  0  0  0  0  0  0  0  0  0  0
   -3.8915   -1.2430   -0.5066 C   0  0  0  0  0  0  0  0  0  0  0  0
   -4.9650    1.1251    0.5049 C   0  0  0  0  0  0  0  0  0  0  0  0
   -5.2739   -1.0578   -0.4832 C   0  0  0  0  0  0  0  0  0  0  0  0
   -5.8105    0.1262    0.0225 C   0  0  0  0  0  0  0  0  0  0  0  0
   -0.9897    1.5945    0.0647 H   0  0  0  0  0  0  0  0  0  0  0  0
    0.6770   -1.7251    0.6490 H   0  0  0  0  0  0  0  0  0  0  0  0
    1.2005    2.3861   -0.5984 H   0  0  0  0  0  0  0  0  0  0  0  0
   -1.2932   -1.4734   -0.1469 H   0  0  0  0  0  0  0  0  0  0  0  0
    3.0607   -2.0506    0.6213 H   0  0  0  0  0  0  0  0  0  0  0  0
    3.6139    2.0697   -0.6101 H   0  0  0  0  0  0  0  0  0  0  0  0
   -2.9667    1.7365    0.8883 H   0  0  0  0  0  0  0  0  0  0  0  0
   -3.4922   -2.1723   -0.9059 H   0  0  0  0  0  0  0  0  0  0  0  0
   -5.3838    2.0446    0.9033 H   0  0  0  0  0  0  0  0  0  0  0  0
   -5.9326   -1.8354   -0.8588 H   0  0  0  0  0  0  0  0  0  0  0  0
   -6.8869    0.2697    0.0418 H   0  0  0  0  0  0  0  0  0  0  0  0
  1  3  1  0  0  0  0
  2  3  2  0  0  0  0
  3 10  1  0  0  0  0
  4  6  1  0  0  0  0
  4  7  2  0  0  0  0
  4  8  1  0  0  0  0
  5  9  1  0  0  0  0
  5 13  2  0  0  0  0
  5 14  1  0  0  0  0
  6  9  2  0  0  0  0
  6 18  1  0  0  0  0
  7 11  1  0  0  0  0
  7 19  1  0  0  0  0
  8 12  2  0  0  0  0
  8 20  1  0  0  0  0
  9 21  1  0  0  0  0
 10 11  2  0  0  0  0
 10 12  1  0  0  0  0
 11 22  1  0  0  0  0
 12 23  1  0  0  0  0
 13 15  1  0  0  0  0
 13 24  1  0  0  0  0
 14 16  2  0  0  0  0
 14 25  1  0  0  0  0
 15 17  2  0  0  0  0
 15 26  1  0  0  0  0
 16 17  1  0  0  0  0
 16 27  1  0  0  0  0
 17 28  1  0  0  0  0
M  CHG  2   1  -1   3   1
M  END
> <PUBCHEM_COMPOUND_CID>
639659

> <PUBCHEM_CONFORMER_RMSD>
0.6

> <PUBCHEM_CONFORMER_DIVERSEORDER>
2
1

> <PUBCHEM_MMFF94_PARTIAL_CHARGES>
28
1 -0.52
10 0.13
11 -0.15
12 -0.15
13 -0.15
14 -0.15
15 -0.15
16 -0.15
17 -0.15
18 0.15
19 0.15
2 -0.52
20 0.15
21 0.15
22 0.15
23 0.15
24 0.15
25 0.15
26 0.15
27 0.15
28 0.15
3 0.91
4 0.03
5 0.03
6 -0.18
7 -0.15
8 -0.15
9 -0.18

> <PUBCHEM_EFFECTIVE_ROTOR_COUNT>
3

> <PUBCHEM_PHARMACOPHORE_FEATURES>
5
1 1 acceptor
1 1 anion
1 2 acceptor
6 4 7 8 10 11 12 rings
6 5 13 14 15 16 17 rings

> <PUBCHEM_HEAVY_ATOM_COUNT>
17

> <PUBCHEM_ATOM_DEF_STEREO_COUNT>
0

> <PUBCHEM_ATOM_UDEF_STEREO_COUNT>
0

> <PUBCHEM_BOND_DEF_STEREO_COUNT>
1

> <PUBCHEM_BOND_UDEF_STEREO_COUNT>
0

> <PUBCHEM_ISOTOPIC_ATOM_COUNT>
0

> <PUBCHEM_COMPONENT_COUNT>
1

> <PUBCHEM_CACTVS_TAUTO_COUNT>
1

> <PUBCHEM_CONFORMER_ID>
0009C2AB00000002

> <PUBCHEM_MMFF94_ENERGY>
55.5605

> <PUBCHEM_FEATURE_SELFOVERLAP>
25.453

> <PUBCHEM_SHAPE_FINGERPRINT>
10680689 15 15936407862624591611
11315181 36 18131634500014733745
12107183 9 17691689983104279923
12236239 1 18413952780210010857
13167823 11 18412543236742707847
13288520 33 18273214218956845175
13862211 1 18260543395155334386
14123238 8 18334294266658042209
1420 363 16515407356552330987
14251718 22 18273215313471918059
15196674 1 18410575119096696321
15788980 27 18272370892884232683
17834072 33 18341894116672524133
18186145 218 17458058300650455969
18681886 176 18201996672681275802
19489759 90 17203610372344439353
200 152 18341894099735261169
20612939 158 18040721406478181044
20645477 70 18334574599369183146
21267235 1 18411144653725690243
21641784 216 17168439151319323036
21709351 56 18335696152774046717
220451 1 18342463642178787998
22646028 1 18412261753170566917
23402539 116 18272929419200888725
23402655 69 18410292518833292431
23536379 177 18342176656737755881
23557571 272 16773524278246756585
23559900 14 18270672186348675713
26918003 58 17967536783183507521
29717793 49 18273496771242490205
300161 21 18410287004459235689
3004659 81 18336268960147046734
34797466 226 16988570151484581172
3545911 37 18413390934590640265
4073 2 18041002898539737530
42 15 18412545409853552909
4214541 1 18412825781350845969
42788 4 18411419509598492145
4463277 17 18410293614382515596
5104073 3 18341051908177600345
542803 24 17846780706601850337
559249 180 18341328912367875975
59755656 520 17313104155697200611
67856867 119 18270116949676814041
7495541 125 17346594226725858081
77779 3 18411419527358623021
9971528 1 18187362168494626612
9981440 41 17256524647908773624

> <PUBCHEM_SHAPE_MULTIPOLES>
333.13
14.25
1.38
0.7
0.03
0.02
0
-1.14
-0.23
0.04
-0.02
-0.19
0
-0.96

> <PUBCHEM_SHAPE_SELFOVERLAP>
717.742

> <PUBCHEM_SHAPE_VOLUME>
184.3

> <PUBCHEM_COORDINATE_TYPE>
2
5
10

$$$$
