143876
  -OEChem-11012401163D

 26 25  0     1  0  0  0  0  0999 V2000
    2.4661    0.6370   -1.6345 Cl  0  0  0  0  0  0  0  0  0  0  0  0
   -0.4076   -0.2565    0.4182 O   0  0  0  0  0  0  0  0  0  0  0  0
    0.4482   -2.1970   -0.4889 O   0  0  0  0  0  0  0  0  0  0  0  0
   -2.7228    0.4657    0.3529 C   0  0  0  0  0  0  0  0  0  0  0  0
   -1.7135   -0.6150   -0.0448 C   0  0  0  0  0  0  0  0  0  0  0  0
   -2.3663    1.8173   -0.2697 C   0  0  0  0  0  0  0  0  0  0  0  0
   -4.1354    0.0505   -0.0527 C   0  0  0  0  0  0  0  0  0  0  0  0
    1.8884   -0.6412    0.7075 C   0  0  0  0  0  0  0  0  0  0  0  0
    2.3126    0.7197    0.1492 C   0  0  1  0  0  0  0  0  0  0  0  0
    0.5859   -1.1468    0.1232 C   0  0  0  0  0  0  0  0  0  0  0  0
    3.6443    1.1665    0.7396 C   0  0  0  0  0  0  0  0  0  0  0  0
   -2.6902    0.5883    1.4430 H   0  0  0  0  0  0  0  0  0  0  0  0
   -1.9984   -1.5725    0.4079 H   0  0  0  0  0  0  0  0  0  0  0  0
   -1.6905   -0.7317   -1.1353 H   0  0  0  0  0  0  0  0  0  0  0  0
   -3.0952    2.5817    0.0201 H   0  0  0  0  0  0  0  0  0  0  0  0
   -2.3539    1.7591   -1.3634 H   0  0  0  0  0  0  0  0  0  0  0  0
   -1.3804    2.1584    0.0626 H   0  0  0  0  0  0  0  0  0  0  0  0
   -4.8665    0.8049    0.2566 H   0  0  0  0  0  0  0  0  0  0  0  0
   -4.4131   -0.8970    0.4208 H   0  0  0  0  0  0  0  0  0  0  0  0
   -4.2172   -0.0756   -1.1377 H   0  0  0  0  0  0  0  0  0  0  0  0
    2.6583   -1.3954    0.5007 H   0  0  0  0  0  0  0  0  0  0  0  0
    1.7753   -0.5989    1.7973 H   0  0  0  0  0  0  0  0  0  0  0  0
    1.5494    1.4762    0.3591 H   0  0  0  0  0  0  0  0  0  0  0  0
    3.9394    2.1457    0.3471 H   0  0  0  0  0  0  0  0  0  0  0  0
    4.4454    0.4543    0.5129 H   0  0  0  0  0  0  0  0  0  0  0  0
    3.5716    1.2544    1.8289 H   0  0  0  0  0  0  0  0  0  0  0  0
  1  9  1  0  0  0  0
  2  5  1  0  0  0  0
  2 10  1  0  0  0  0
  3 10  2  0  0  0  0
  4  5  1  0  0  0  0
  4  6  1  0  0  0  0
  4  7  1  0  0  0  0
  4 12  1  0  0  0  0
  5 13  1  0  0  0  0
  5 14  1  0  0  0  0
  6 15  1  0  0  0  0
  6 16  1  0  0  0  0
  6 17  1  0  0  0  0
  7 18  1  0  0  0  0
  7 19  1  0  0  0  0
  7 20  1  0  0  0  0
  8  9  1  0  0  0  0
  8 10  1  0  0  0  0
  8 21  1  0  0  0  0
  8 22  1  0  0  0  0
  9 11  1  0  0  0  0
  9 23  1  0  0  0  0
 11 24  1  0  0  0  0
 11 25  1  0  0  0  0
 11 26  1  0  0  0  0
M  END
> <PUBCHEM_COMPOUND_CID>
143876

> <PUBCHEM_CONFORMER_RMSD>
0.6

> <PUBCHEM_CONFORMER_DIVERSEORDER>
2
85
51
98
75
65
109
24
56
112
133
121
23
91
123
130
116
7
93
59
110
45
47
88
1
125
118
120
129
53
73
97
86
54
115
119
96
66
135
127
21
124
122
84
126
114
19
44
117
15
104
83
33
17
58
94
49
48
42
111
106
30
20
3
107
108
105
5
89
74
50
100
128
101
80
102
22
99
68
55
28
26
136
67
62
37
27
134
72
103
6
71
132
52
41
69
70
61
87
39
25
31
131
60
46
113
40
95
63
90
92
79
8
18
12
81
29
34
11
14
16
9
57
76
10
4
38
43
32
13
35
36
64
82
77
78

> <PUBCHEM_MMFF94_PARTIAL_CHARGES>
7
1 -0.29
10 0.66
2 -0.43
3 -0.57
5 0.28
8 0.06
9 0.29

> <PUBCHEM_EFFECTIVE_ROTOR_COUNT>
5

> <PUBCHEM_PHARMACOPHORE_FEATURES>
2
1 3 acceptor
3 4 6 7 hydrophobe

> <PUBCHEM_HEAVY_ATOM_COUNT>
11

> <PUBCHEM_ATOM_DEF_STEREO_COUNT>
0

> <PUBCHEM_ATOM_UDEF_STEREO_COUNT>
1

> <PUBCHEM_BOND_DEF_STEREO_COUNT>
0

> <PUBCHEM_BOND_UDEF_STEREO_COUNT>
0

> <PUBCHEM_ISOTOPIC_ATOM_COUNT>
0

> <PUBCHEM_COMPONENT_COUNT>
1

> <PUBCHEM_CACTVS_TAUTO_COUNT>
1

> <PUBCHEM_CONFORMER_ID>
0002320400000002

> <PUBCHEM_MMFF94_ENERGY>
10.3721

> <PUBCHEM_FEATURE_SELFOVERLAP>
10.148

> <PUBCHEM_SHAPE_FINGERPRINT>
10149128 111 18041007253573135332
12138202 97 17345754243256179254
12162725 195 17894632530605768969
12932764 1 17059760140679767315
14325111 11 18412259536487426931
14390081 3 18412262818048247273
15775835 57 18412260666195824440
170605 34 18408321068741448619
17357990 137 17822581615574179252
18186145 218 17917441925125259072
19973954 147 18122626050750462001
20671657 1 18269559346862600790
20711983 138 11386357136712343197
21028194 46 18409450271467364882
21293036 1 17489586792060341505
21524375 3 18410853282796248122
22169311 14 14418131824692738609
230 275 18186807950093049668
23402539 116 17917138498813505956
23557571 272 17843408628924999678
305870 269 18335693915053926074
3248919 1 17676212355420000425
449060 62 18261117356993257341
7364860 26 18198341762697151606
81228 2 17694225869045660170

> <PUBCHEM_SHAPE_MULTIPOLES>
216.51
6.54
1.69
1.03
2.66
0.26
-0.34
-2.76
0.42
-0.05
-0.18
-0.93
-0.17
0.03

> <PUBCHEM_SHAPE_SELFOVERLAP>
390.93

> <PUBCHEM_SHAPE_VOLUME>
140.7

> <PUBCHEM_COORDINATE_TYPE>
2
5
10

$$$$
