138677
  -OEChem-11012400583D

 12 12  0     0  0  0  0  0  0999 V2000
    1.0086   -0.1138    0.0019 N   0  0  0  0  0  0  0  0  0  0  0  0
    0.0111   -1.0090    0.0017 N   0  0  0  0  0  0  0  0  0  0  0  0
    0.6436    1.1758    0.0004 N   0  0  0  0  0  0  0  0  0  0  0  0
   -0.6834    1.1463   -0.0004 N   0  0  0  0  0  0  0  0  0  0  0  0
   -2.3421   -0.5138   -0.0015 N   0  0  0  0  0  0  0  0  0  0  0  0
    2.3920   -0.5134   -0.0024 C   0  0  0  0  0  0  0  0  0  0  0  0
   -1.0298   -0.1722    0.0004 C   0  0  0  0  0  0  0  0  0  0  0  0
    2.6577   -0.8289    1.0091 H   0  0  0  0  0  0  0  0  0  0  0  0
    2.5161   -1.3396   -0.7068 H   0  0  0  0  0  0  0  0  0  0  0  0
    3.0118    0.3321   -0.3109 H   0  0  0  0  0  0  0  0  0  0  0  0
   -3.0822    0.1809   -0.0028 H   0  0  0  0  0  0  0  0  0  0  0  0
   -2.6496   -1.4810   -0.0014 H   0  0  0  0  0  0  0  0  0  0  0  0
  1  2  1  0  0  0  0
  1  3  1  0  0  0  0
  1  6  1  0  0  0  0
  2  7  2  0  0  0  0
  3  4  2  0  0  0  0
  4  7  1  0  0  0  0
  5  7  1  0  0  0  0
  5 11  1  0  0  0  0
  5 12  1  0  0  0  0
  6  8  1  0  0  0  0
  6  9  1  0  0  0  0
  6 10  1  0  0  0  0
M  END
> <PUBCHEM_COMPOUND_CID>
138677

> <PUBCHEM_CONFORMER_RMSD>
0.4

> <PUBCHEM_CONFORMER_DIVERSEORDER>
1

> <PUBCHEM_MMFF94_PARTIAL_CHARGES>
9
1 0.58
11 0.4
12 0.4
2 -0.71
3 -0.42
4 -0.23
5 -0.88
6 0.26
7 0.6

> <PUBCHEM_EFFECTIVE_ROTOR_COUNT>
0

> <PUBCHEM_PHARMACOPHORE_FEATURES>
3
1 5 donor
4 2 4 5 7 cation
5 1 2 3 4 7 rings

> <PUBCHEM_HEAVY_ATOM_COUNT>
7

> <PUBCHEM_ATOM_DEF_STEREO_COUNT>
0

> <PUBCHEM_ATOM_UDEF_STEREO_COUNT>
0

> <PUBCHEM_BOND_DEF_STEREO_COUNT>
0

> <PUBCHEM_BOND_UDEF_STEREO_COUNT>
0

> <PUBCHEM_ISOTOPIC_ATOM_COUNT>
0

> <PUBCHEM_COMPONENT_COUNT>
1

> <PUBCHEM_CACTVS_TAUTO_COUNT>
2

> <PUBCHEM_CONFORMER_ID>
00021DB500000001

> <PUBCHEM_MMFF94_ENERGY>
4.6154

> <PUBCHEM_FEATURE_SELFOVERLAP>
15.223

> <PUBCHEM_SHAPE_FINGERPRINT>
139733 1 9223231849138058624
16714656 1 18412547587259625182
20096714 4 18195529426690693601
21040471 1 18050287269176781345
23552423 10 18044384824814149654
29004967 10 18409733979753372370
5460574 1 9223231845043694306

> <PUBCHEM_SHAPE_MULTIPOLES>
119.15
2.68
1.12
0.55
0.38
0.25
0
-0.72
0
-0.03
0
0.02
-0.01
0

> <PUBCHEM_SHAPE_SELFOVERLAP>
237.557

> <PUBCHEM_SHAPE_VOLUME>
70.1

> <PUBCHEM_COORDINATE_TYPE>
2
5
10

$$$$
