137206
  -OEChem-10312420102D

 27 30  0     1  0  0  0  0  0999 V2000
    3.6791   -0.7476    0.0000 C   0  0  3  0  0  0  0  0  0  0  0  0
    2.8941   -1.3576    0.0000 C   0  0  3  0  0  0  0  0  0  0  0  0
    3.3370    0.1921    0.0000 C   0  0  3  0  0  0  0  0  0  0  0  0
    2.0705   -0.8010    0.0000 C   0  0  3  0  0  0  0  0  0  0  0  0
    5.0518   -0.1556    0.0000 C   0  0  3  0  0  0  0  0  0  0  0  0
    2.0000   -1.7930    0.0000 C   0  0  0  0  0  0  0  0  0  0  0  0
    5.3106    0.8104    0.0000 C   0  0  3  0  0  0  0  0  0  0  0  0
    2.3437    0.1548    0.0000 C   0  0  0  0  0  0  0  0  0  0  0  0
    4.5740    1.7930    0.0000 C   0  0  0  0  0  0  0  0  0  0  0  0
    6.4507   -0.6644    0.0000 C   0  0  0  0  0  0  0  0  0  0  0  0
    6.7095    0.3015    0.0000 C   0  0  0  0  0  0  0  0  0  0  0  0
    3.9946   -1.2813    0.0000 H   0  0  0  0  0  0  0  0  0  0  0  0
    3.2218   -1.8839    0.0000 H   0  0  0  0  0  0  0  0  0  0  0  0
    3.2318    0.8031    0.0000 H   0  0  0  0  0  0  0  0  0  0  0  0
    1.4599   -0.6932    0.0000 H   0  0  0  0  0  0  0  0  0  0  0  0
    5.5133    0.2585    0.0000 H   0  0  0  0  0  0  0  0  0  0  0  0
    1.3833   -1.8572    0.0000 H   0  0  0  0  0  0  0  0  0  0  0  0
    2.1704   -2.3891    0.0000 H   0  0  0  0  0  0  0  0  0  0  0  0
    5.6800    1.3083    0.0000 H   0  0  0  0  0  0  0  0  0  0  0  0
    2.3857    0.7734    0.0000 H   0  0  0  0  0  0  0  0  0  0  0  0
    1.7329    0.2616    0.0000 H   0  0  0  0  0  0  0  0  0  0  0  0
    4.8918    2.3253    0.0000 H   0  0  0  0  0  0  0  0  0  0  0  0
    3.9608    1.8849    0.0000 H   0  0  0  0  0  0  0  0  0  0  0  0
    6.2558   -1.2529    0.0000 H   0  0  0  0  0  0  0  0  0  0  0  0
    7.0447   -0.8422    0.0000 H   0  0  0  0  0  0  0  0  0  0  0  0
    7.3035    0.1238    0.0000 H   0  0  0  0  0  0  0  0  0  0  0  0
    6.9045    0.8901    0.0000 H   0  0  0  0  0  0  0  0  0  0  0  0
  1  2  1  0  0  0  0
  1  3  1  0  0  0  0
  1  5  1  0  0  0  0
  1 12  1  0  0  0  0
  2  4  1  0  0  0  0
  2  6  1  0  0  0  0
  2 13  1  0  0  0  0
  3  7  1  0  0  0  0
  3  8  1  0  0  0  0
  3 14  1  0  0  0  0
  4  6  1  0  0  0  0
  4  8  1  0  0  0  0
  4 15  1  0  0  0  0
  5  9  1  0  0  0  0
  5 10  1  0  0  0  0
  5 16  1  0  0  0  0
  6 17  1  0  0  0  0
  6 18  1  0  0  0  0
  7  9  1  0  0  0  0
  7 11  1  0  0  0  0
  7 19  1  0  0  0  0
  8 20  1  0  0  0  0
  8 21  1  0  0  0  0
  9 22  1  0  0  0  0
  9 23  1  0  0  0  0
 10 11  1  0  0  0  0
 10 24  1  0  0  0  0
 10 25  1  0  0  0  0
 11 26  1  0  0  0  0
 11 27  1  0  0  0  0
M  END
> <PUBCHEM_COMPOUND_CID>
137206

> <PUBCHEM_COMPOUND_CANONICALIZED>
1

> <PUBCHEM_CACTVS_COMPLEXITY>
208

> <PUBCHEM_CACTVS_HBOND_ACCEPTOR>
0

> <PUBCHEM_CACTVS_HBOND_DONOR>
0

> <PUBCHEM_CACTVS_ROTATABLE_BOND>
0

> <PUBCHEM_CACTVS_SUBSKEYS>
AAADceBwAAAAAAAAAAAAAAAAGAAAAYMGAAAwYAAAAAAYAAAAAAAAGAAAAAAADQCAAAAAAAAAAAAAAAAAAAAAAAAAAAAAAAAAAAAAAAIAAAAAAAAAAAAAAAEAgMAOgAAAAAAAAAAAAAQAACAAAQAACAAAAA==

> <PUBCHEM_IUPAC_OPENEYE_NAME>
tetracyclo[6.2.1.02,7.03,5]undecane

> <PUBCHEM_IUPAC_CAS_NAME>
tetracyclo[6.2.1.02,7.03,5]undecane

> <PUBCHEM_IUPAC_NAME_MARKUP>
tetracyclo[6.2.1.0<SUP>2,7</SUP>.0<SUP>3,5</SUP>]undecane

> <PUBCHEM_IUPAC_NAME>
tetracyclo[6.2.1.02,7.03,5]undecane

> <PUBCHEM_IUPAC_SYSTEMATIC_NAME>
tetracyclo[6.2.1.02,7.03,5]undecane

> <PUBCHEM_IUPAC_TRADITIONAL_NAME>
tetracyclo[6.2.1.02,7.03,5]undecane

> <PUBCHEM_IUPAC_INCHI>
InChI=1S/C11H16/c1-2-7-3-6(1)9-4-8-5-10(8)11(7)9/h6-11H,1-5H2

> <PUBCHEM_IUPAC_INCHIKEY>
VBMPZIREYOVDPP-UHFFFAOYSA-N

> <PUBCHEM_XLOGP3_AA>
3.6

> <PUBCHEM_EXACT_MASS>
148.125200510

> <PUBCHEM_MOLECULAR_FORMULA>
C11H16

> <PUBCHEM_MOLECULAR_WEIGHT>
148.24

> <PUBCHEM_OPENEYE_CAN_SMILES>
C1CC2CC1C3C2C4CC4C3

> <PUBCHEM_OPENEYE_ISO_SMILES>
C1CC2CC1C3C2C4CC4C3

> <PUBCHEM_CACTVS_TPSA>
0

> <PUBCHEM_MONOISOTOPIC_WEIGHT>
148.125200510

> <PUBCHEM_TOTAL_CHARGE>
0

> <PUBCHEM_HEAVY_ATOM_COUNT>
11

> <PUBCHEM_ATOM_DEF_STEREO_COUNT>
0

> <PUBCHEM_ATOM_UDEF_STEREO_COUNT>
6

> <PUBCHEM_BOND_DEF_STEREO_COUNT>
0

> <PUBCHEM_BOND_UDEF_STEREO_COUNT>
0

> <PUBCHEM_ISOTOPIC_ATOM_COUNT>
0

> <PUBCHEM_COMPONENT_COUNT>
1

> <PUBCHEM_CACTVS_TAUTO_COUNT>
-1

> <PUBCHEM_COORDINATE_TYPE>
1
5
255

> <PUBCHEM_BONDANNOTATIONS>
1  5  3
2  6  3
3  8  3
4  8  3
5  10  3
7  11  3

$$$$
