5326157
  -OEChem-11012401063D

 21 20  0     0  0  0  0  0  0999 V2000
    0.7714    0.0252   -0.0070 C   0  0  0  0  0  0  0  0  0  0  0  0
    2.1085   -0.7356   -0.0563 C   0  0  0  0  0  0  0  0  0  0  0  0
    0.7629    1.0706   -1.1378 C   0  0  0  0  0  0  0  0  0  0  0  0
    0.6621    0.7624    1.3396 C   0  0  0  0  0  0  0  0  0  0  0  0
   -0.3582   -0.9917   -0.0863 C   0  0  0  0  0  0  0  0  0  0  0  0
   -1.6786   -0.7502   -0.0746 C   0  0  0  0  0  0  0  0  0  0  0  0
   -2.2680    0.6193    0.0225 C   0  0  0  0  0  0  0  0  0  0  0  0
    2.1842   -1.4692    0.7554 H   0  0  0  0  0  0  0  0  0  0  0  0
    2.9597   -0.0520    0.0422 H   0  0  0  0  0  0  0  0  0  0  0  0
    2.2255   -1.2737   -1.0046 H   0  0  0  0  0  0  0  0  0  0  0  0
    1.6936    1.6517   -1.1292 H   0  0  0  0  0  0  0  0  0  0  0  0
   -0.0443    1.8006   -1.0871 H   0  0  0  0  0  0  0  0  0  0  0  0
    0.6997    0.5793   -2.1162 H   0  0  0  0  0  0  0  0  0  0  0  0
    1.5619    1.3664    1.5131 H   0  0  0  0  0  0  0  0  0  0  0  0
   -0.1792    1.4508    1.4252 H   0  0  0  0  0  0  0  0  0  0  0  0
    0.5933    0.0540    2.1747 H   0  0  0  0  0  0  0  0  0  0  0  0
   -0.0664   -2.0390   -0.1594 H   0  0  0  0  0  0  0  0  0  0  0  0
   -2.3685   -1.5873   -0.1350 H   0  0  0  0  0  0  0  0  0  0  0  0
   -1.6010    1.4701    0.0263 H   0  0  0  0  0  0  0  0  0  0  0  0
   -2.9511    0.7643   -0.8221 H   0  0  0  0  0  0  0  0  0  0  0  0
   -2.8693    0.6795    0.9365 H   0  0  0  0  0  0  0  0  0  0  0  0
  1  2  1  0  0  0  0
  1  3  1  0  0  0  0
  1  4  1  0  0  0  0
  1  5  1  0  0  0  0
  2  8  1  0  0  0  0
  2  9  1  0  0  0  0
  2 10  1  0  0  0  0
  3 11  1  0  0  0  0
  3 12  1  0  0  0  0
  3 13  1  0  0  0  0
  4 14  1  0  0  0  0
  4 15  1  0  0  0  0
  4 16  1  0  0  0  0
  5  6  2  0  0  0  0
  5 17  1  0  0  0  0
  6  7  1  0  0  0  0
  6 18  1  0  0  0  0
  7 19  1  0  0  0  0
  7 20  1  0  0  0  0
  7 21  1  0  0  0  0
M  END
> <PUBCHEM_COMPOUND_CID>
5326157

> <PUBCHEM_CONFORMER_RMSD>
0.4

> <PUBCHEM_CONFORMER_DIVERSEORDER>
1

> <PUBCHEM_MMFF94_PARTIAL_CHARGES>
6
1 0.14
17 0.15
18 0.15
5 -0.29
6 -0.29
7 0.14

> <PUBCHEM_EFFECTIVE_ROTOR_COUNT>
1

> <PUBCHEM_PHARMACOPHORE_FEATURES>
2
1 7 hydrophobe
4 1 2 3 4 hydrophobe

> <PUBCHEM_HEAVY_ATOM_COUNT>
7

> <PUBCHEM_ATOM_DEF_STEREO_COUNT>
0

> <PUBCHEM_ATOM_UDEF_STEREO_COUNT>
0

> <PUBCHEM_BOND_DEF_STEREO_COUNT>
1

> <PUBCHEM_BOND_UDEF_STEREO_COUNT>
0

> <PUBCHEM_ISOTOPIC_ATOM_COUNT>
0

> <PUBCHEM_COMPONENT_COUNT>
1

> <PUBCHEM_CACTVS_TAUTO_COUNT>
1

> <PUBCHEM_CONFORMER_ID>
0051454D00000001

> <PUBCHEM_MMFF94_ENERGY>
18.2761

> <PUBCHEM_FEATURE_SELFOVERLAP>
10.149

> <PUBCHEM_SHAPE_FINGERPRINT>
137420 1 9506041684736551098
16714656 1 18115025182380318710
20096714 4 17968383462718151733
21040471 1 18340485659631305015
24536 1 18043520823206499359
29004967 10 17676493821738302178
5084963 1 18408602574130985739
5943 1 11213636710836656256

> <PUBCHEM_SHAPE_MULTIPOLES>
144.06
2.64
1.22
1.06
0.84
0.02
-0.13
-0.19
0.06
-0.03
0.1
-0.31
0.39
-0.05

> <PUBCHEM_SHAPE_SELFOVERLAP>
260.419

> <PUBCHEM_SHAPE_VOLUME>
95.6

> <PUBCHEM_COORDINATE_TYPE>
2
5
10

$$$$
