6873
  -OEChem-11012400543D

 28 28  0     0  0  0  0  0  0999 V2000
   -1.2287    0.0104    0.1073 O   0  0  0  0  0  0  0  0  0  0  0  0
   -0.2481   -1.8912   -0.7162 O   0  0  0  0  0  0  0  0  0  0  0  0
    2.2661   -2.1406    0.2692 O   0  0  0  0  0  0  0  0  0  0  0  0
   -3.5953    0.3737    0.4466 C   0  0  0  0  0  0  0  0  0  0  0  0
   -2.5076   -0.5965   -0.0226 C   0  0  0  0  0  0  0  0  0  0  0  0
   -3.6024    1.6520   -0.3944 C   0  0  0  0  0  0  0  0  0  0  0  0
   -4.9653   -0.2994    0.4009 C   0  0  0  0  0  0  0  0  0  0  0  0
    1.1329   -0.0624   -0.1188 C   0  0  0  0  0  0  0  0  0  0  0  0
   -0.1516   -0.7492   -0.2790 C   0  0  0  0  0  0  0  0  0  0  0  0
    2.2912   -0.7830    0.1491 C   0  0  0  0  0  0  0  0  0  0  0  0
    1.1713    1.3225   -0.2378 C   0  0  0  0  0  0  0  0  0  0  0  0
    3.5038   -0.1103    0.3002 C   0  0  0  0  0  0  0  0  0  0  0  0
    2.3838    1.9952   -0.0869 C   0  0  0  0  0  0  0  0  0  0  0  0
    3.5499    1.2788    0.1823 C   0  0  0  0  0  0  0  0  0  0  0  0
   -3.3797    0.6644    1.4826 H   0  0  0  0  0  0  0  0  0  0  0  0
   -2.5348   -1.5053    0.5909 H   0  0  0  0  0  0  0  0  0  0  0  0
   -2.6744   -0.8746   -1.0707 H   0  0  0  0  0  0  0  0  0  0  0  0
   -4.3857    2.3367   -0.0519 H   0  0  0  0  0  0  0  0  0  0  0  0
   -3.7855    1.4304   -1.4513 H   0  0  0  0  0  0  0  0  0  0  0  0
   -2.6465    2.1806   -0.3195 H   0  0  0  0  0  0  0  0  0  0  0  0
   -5.7444    0.3789    0.7649 H   0  0  0  0  0  0  0  0  0  0  0  0
   -4.9804   -1.1940    1.0323 H   0  0  0  0  0  0  0  0  0  0  0  0
   -5.2275   -0.5999   -0.6193 H   0  0  0  0  0  0  0  0  0  0  0  0
    0.2804    1.9044   -0.4580 H   0  0  0  0  0  0  0  0  0  0  0  0
    4.4202   -0.6554    0.5100 H   0  0  0  0  0  0  0  0  0  0  0  0
    2.4207    3.0766   -0.1813 H   0  0  0  0  0  0  0  0  0  0  0  0
    4.4941    1.8028    0.2993 H   0  0  0  0  0  0  0  0  0  0  0  0
    3.1658   -2.4596    0.4556 H   0  0  0  0  0  0  0  0  0  0  0  0
  1  5  1  0  0  0  0
  1  9  1  0  0  0  0
  2  9  2  0  0  0  0
  3 10  1  0  0  0  0
  3 28  1  0  0  0  0
  4  5  1  0  0  0  0
  4  6  1  0  0  0  0
  4  7  1  0  0  0  0
  4 15  1  0  0  0  0
  5 16  1  0  0  0  0
  5 17  1  0  0  0  0
  6 18  1  0  0  0  0
  6 19  1  0  0  0  0
  6 20  1  0  0  0  0
  7 21  1  0  0  0  0
  7 22  1  0  0  0  0
  7 23  1  0  0  0  0
  8  9  1  0  0  0  0
  8 10  1  0  0  0  0
  8 11  2  0  0  0  0
 10 12  2  0  0  0  0
 11 13  1  0  0  0  0
 11 24  1  0  0  0  0
 12 14  1  0  0  0  0
 12 25  1  0  0  0  0
 13 14  2  0  0  0  0
 13 26  1  0  0  0  0
 14 27  1  0  0  0  0
M  END
> <PUBCHEM_COMPOUND_CID>
6873

> <PUBCHEM_CONFORMER_RMSD>
0.6

> <PUBCHEM_CONFORMER_DIVERSEORDER>
1
38
14
40
28
22
21
31
19
20
37
24
25
23
27
11
29
9
34
3
10
26
33
39
30
35
13
18
16
36
17
12
6
32
15
5
7
4
8
2

> <PUBCHEM_MMFF94_PARTIAL_CHARGES>
16
1 -0.43
10 0.08
11 -0.15
12 -0.15
13 -0.15
14 -0.15
2 -0.57
24 0.15
25 0.15
26 0.15
27 0.15
28 0.45
3 -0.53
5 0.28
8 0.09
9 0.63

> <PUBCHEM_EFFECTIVE_ROTOR_COUNT>
4

> <PUBCHEM_PHARMACOPHORE_FEATURES>
4
1 2 acceptor
1 3 donor
3 4 6 7 hydrophobe
6 8 10 11 12 13 14 rings

> <PUBCHEM_HEAVY_ATOM_COUNT>
14

> <PUBCHEM_ATOM_DEF_STEREO_COUNT>
0

> <PUBCHEM_ATOM_UDEF_STEREO_COUNT>
0

> <PUBCHEM_BOND_DEF_STEREO_COUNT>
0

> <PUBCHEM_BOND_UDEF_STEREO_COUNT>
0

> <PUBCHEM_ISOTOPIC_ATOM_COUNT>
0

> <PUBCHEM_COMPONENT_COUNT>
1

> <PUBCHEM_CACTVS_TAUTO_COUNT>
4

> <PUBCHEM_CONFORMER_ID>
00001AD900000001

> <PUBCHEM_MMFF94_ENERGY>
33.0735

> <PUBCHEM_FEATURE_SELFOVERLAP>
20.297

> <PUBCHEM_SHAPE_FINGERPRINT>
10465860 228 18342464694424546697
10608611 8 18335419032962881925
10980938 120 18409446998897496472
11471102 20 18410008840781081956
12251169 10 18335421287688603079
12346645 6 18342177756613523390
13922767 16 18412259510728334912
14144814 61 18410011022555864097
14325111 11 18411699898233359005
14897335 6 18342454893325053374
15219456 202 18334292029191220677
15442244 35 18195246615863180992
15775835 57 18271528692631245397
16945 1 18337658789846148012
17802600 8 18410007745781017517
18186145 218 18201728331545783549
20233049 118 17703788119940249736
20645477 70 18341332197532742855
20871998 22 18124595280687676950
21524375 3 18343022237309658359
21652331 79 18410293635994683957
22485316 2 8214140742300765265
22854114 111 18410858780359635625
23402539 116 14908180832919268568
23402655 69 18343580733376887965
2748010 2 18050551955711725804
2838139 119 15410035422654372136
293599 30 18265619960779481252
351380 180 18333447651722065185
42 15 18113901554801280481
4921388 177 14836115607315494709
5104073 3 18336548222941164241
6333272 397 18411139160262097683
69090 78 18411134770990260827
7364860 26 18343305842769625854
7832392 63 18270677705254764396

> <PUBCHEM_SHAPE_MULTIPOLES>
270.51
8.22
1.93
0.69
7.77
0.01
-0.01
-1.85
1.27
-1
-0.19
0.11
0.02
0.06

> <PUBCHEM_SHAPE_SELFOVERLAP>
553.686

> <PUBCHEM_SHAPE_VOLUME>
156.9

> <PUBCHEM_COORDINATE_TYPE>
2
5
10

$$$$
