143244
  -OEChem-11012400353D

 52 53  0     0  0  0  0  0  0999 V2000
    0.0448   -0.9477    0.4613 C   0  0  0  0  0  0  0  0  0  0  0  0
   -2.1266    0.2649   -0.2701 C   0  0  0  0  0  0  0  0  0  0  0  0
    2.3651   -0.0814   -0.2550 C   0  0  0  0  0  0  0  0  0  0  0  0
   -0.7020   -0.1517   -0.6309 C   0  0  0  0  0  0  0  0  0  0  0  0
    1.5015   -1.2961    0.0797 C   0  0  0  0  0  0  0  0  0  0  0  0
   -2.8270    0.9026   -1.4775 C   0  0  0  0  0  0  0  0  0  0  0  0
   -2.1239    1.2229    0.9288 C   0  0  0  0  0  0  0  0  0  0  0  0
    3.7605   -0.5201   -0.7196 C   0  0  0  0  0  0  0  0  0  0  0  0
    2.4626    0.8631    0.9507 C   0  0  0  0  0  0  0  0  0  0  0  0
   -0.6813   -2.2452    0.8874 C   0  0  0  0  0  0  0  0  0  0  0  0
   -4.2357    1.3763   -1.1267 C   0  0  0  0  0  0  0  0  0  0  0  0
   -3.5338    1.6959    1.2757 C   0  0  0  0  0  0  0  0  0  0  0  0
    4.6610    0.6786   -1.0093 C   0  0  0  0  0  0  0  0  0  0  0  0
    3.3652    2.0595    0.6580 C   0  0  0  0  0  0  0  0  0  0  0  0
   -4.2298    2.3213    0.0709 C   0  0  0  0  0  0  0  0  0  0  0  0
    4.7482    1.6195    0.1882 C   0  0  0  0  0  0  0  0  0  0  0  0
   -0.8733   -3.2518   -0.2495 C   0  0  0  0  0  0  0  0  0  0  0  0
   -1.5754   -4.5106    0.2378 C   0  0  0  0  0  0  0  0  0  0  0  0
    0.0898   -0.3365    1.3680 H   0  0  0  0  0  0  0  0  0  0  0  0
   -2.7088   -0.6251   -0.0024 H   0  0  0  0  0  0  0  0  0  0  0  0
    1.9194    0.4667   -1.0933 H   0  0  0  0  0  0  0  0  0  0  0  0
   -0.7117   -0.7349   -1.5599 H   0  0  0  0  0  0  0  0  0  0  0  0
   -0.1446    0.7628   -0.8633 H   0  0  0  0  0  0  0  0  0  0  0  0
    1.5032   -1.9526   -0.7979 H   0  0  0  0  0  0  0  0  0  0  0  0
    1.9676   -1.8635    0.8960 H   0  0  0  0  0  0  0  0  0  0  0  0
   -2.2406    1.7558   -1.8421 H   0  0  0  0  0  0  0  0  0  0  0  0
   -2.8846    0.1815   -2.3016 H   0  0  0  0  0  0  0  0  0  0  0  0
   -1.7085    0.7377    1.8179 H   0  0  0  0  0  0  0  0  0  0  0  0
   -1.4928    2.0944    0.7134 H   0  0  0  0  0  0  0  0  0  0  0  0
    3.6790   -1.1358   -1.6233 H   0  0  0  0  0  0  0  0  0  0  0  0
    4.2308   -1.1458    0.0498 H   0  0  0  0  0  0  0  0  0  0  0  0
    1.4788    1.2568    1.2249 H   0  0  0  0  0  0  0  0  0  0  0  0
    2.8493    0.3215    1.8233 H   0  0  0  0  0  0  0  0  0  0  0  0
   -0.1069   -2.7234    1.6921 H   0  0  0  0  0  0  0  0  0  0  0  0
   -1.6533   -2.0007    1.3309 H   0  0  0  0  0  0  0  0  0  0  0  0
   -4.6806    1.8808   -1.9917 H   0  0  0  0  0  0  0  0  0  0  0  0
   -4.8676    0.5078   -0.9035 H   0  0  0  0  0  0  0  0  0  0  0  0
   -4.1250    0.8459    1.6383 H   0  0  0  0  0  0  0  0  0  0  0  0
   -3.4876    2.4243    2.0932 H   0  0  0  0  0  0  0  0  0  0  0  0
    5.6645    0.3290   -1.2769 H   0  0  0  0  0  0  0  0  0  0  0  0
    4.2718    1.2262   -1.8765 H   0  0  0  0  0  0  0  0  0  0  0  0
    2.9005    2.6872   -0.1124 H   0  0  0  0  0  0  0  0  0  0  0  0
    3.4615    2.6776    1.5578 H   0  0  0  0  0  0  0  0  0  0  0  0
   -5.2592    2.5870    0.3363 H   0  0  0  0  0  0  0  0  0  0  0  0
   -3.7193    3.2530   -0.2021 H   0  0  0  0  0  0  0  0  0  0  0  0
    5.3452    2.4995   -0.0766 H   0  0  0  0  0  0  0  0  0  0  0  0
    5.2695    1.1152    1.0111 H   0  0  0  0  0  0  0  0  0  0  0  0
   -1.4728   -2.8130   -1.0537 H   0  0  0  0  0  0  0  0  0  0  0  0
    0.0875   -3.5486   -0.6800 H   0  0  0  0  0  0  0  0  0  0  0  0
   -0.9921   -5.0076    1.0195 H   0  0  0  0  0  0  0  0  0  0  0  0
   -1.7063   -5.2161   -0.5887 H   0  0  0  0  0  0  0  0  0  0  0  0
   -2.5648   -4.2756    0.6433 H   0  0  0  0  0  0  0  0  0  0  0  0
  1  4  1  0  0  0  0
  1  5  1  0  0  0  0
  1 10  1  0  0  0  0
  1 19  1  0  0  0  0
  2  4  1  0  0  0  0
  2  6  1  0  0  0  0
  2  7  1  0  0  0  0
  2 20  1  0  0  0  0
  3  5  1  0  0  0  0
  3  8  1  0  0  0  0
  3  9  1  0  0  0  0
  3 21  1  0  0  0  0
  4 22  1  0  0  0  0
  4 23  1  0  0  0  0
  5 24  1  0  0  0  0
  5 25  1  0  0  0  0
  6 11  1  0  0  0  0
  6 26  1  0  0  0  0
  6 27  1  0  0  0  0
  7 12  1  0  0  0  0
  7 28  1  0  0  0  0
  7 29  1  0  0  0  0
  8 13  1  0  0  0  0
  8 30  1  0  0  0  0
  8 31  1  0  0  0  0
  9 14  1  0  0  0  0
  9 32  1  0  0  0  0
  9 33  1  0  0  0  0
 10 17  1  0  0  0  0
 10 34  1  0  0  0  0
 10 35  1  0  0  0  0
 11 15  1  0  0  0  0
 11 36  1  0  0  0  0
 11 37  1  0  0  0  0
 12 15  1  0  0  0  0
 12 38  1  0  0  0  0
 12 39  1  0  0  0  0
 13 16  1  0  0  0  0
 13 40  1  0  0  0  0
 13 41  1  0  0  0  0
 14 16  1  0  0  0  0
 14 42  1  0  0  0  0
 14 43  1  0  0  0  0
 15 44  1  0  0  0  0
 15 45  1  0  0  0  0
 16 46  1  0  0  0  0
 16 47  1  0  0  0  0
 17 18  1  0  0  0  0
 17 48  1  0  0  0  0
 17 49  1  0  0  0  0
 18 50  1  0  0  0  0
 18 51  1  0  0  0  0
 18 52  1  0  0  0  0
M  END
> <PUBCHEM_COMPOUND_CID>
143244

> <PUBCHEM_CONFORMER_RMSD>
0.8

> <PUBCHEM_CONFORMER_DIVERSEORDER>
1
2
7
9
10
3
5
11
12
6
4
8

> <PUBCHEM_MMFF94_PARTIAL_CHARGES>
0

> <PUBCHEM_EFFECTIVE_ROTOR_COUNT>
8.4

> <PUBCHEM_PHARMACOPHORE_FEATURES>
4
1 18 hydrophobe
5 1 4 5 10 17 hydrophobe
6 2 6 7 11 12 15 rings
6 3 8 9 13 14 16 rings

> <PUBCHEM_HEAVY_ATOM_COUNT>
18

> <PUBCHEM_ATOM_DEF_STEREO_COUNT>
0

> <PUBCHEM_ATOM_UDEF_STEREO_COUNT>
0

> <PUBCHEM_BOND_DEF_STEREO_COUNT>
0

> <PUBCHEM_BOND_UDEF_STEREO_COUNT>
0

> <PUBCHEM_ISOTOPIC_ATOM_COUNT>
0

> <PUBCHEM_COMPONENT_COUNT>
1

> <PUBCHEM_CACTVS_TAUTO_COUNT>
1

> <PUBCHEM_CONFORMER_ID>
00022F8C00000001

> <PUBCHEM_MMFF94_ENERGY>
16.0283

> <PUBCHEM_FEATURE_SELFOVERLAP>
20.297

> <PUBCHEM_SHAPE_FINGERPRINT>
10498660 4 18408597050360477268
11045515 52 17617375525291876811
12173636 292 18411703179561980045
12363563 72 10519979387500892236
12500047 106 18409731785499779238
12553582 1 9006764436715938544
12730499 353 18264778666653102641
12788726 201 18047176724944181570
12969540 114 18261382322110615901
13583140 156 15574703729399802892
13681431 1 17325760379866310995
13955234 65 17903923258390803227
14123255 52 18409448055217046552
14252887 29 9367049069847799572
14787075 74 18200867479009348655
15342168 16 18334581213476388013
15842332 3 17555438549973091641
1741750 31 18410853278585696282
17539 30 18124025995193478583
18186145 218 18341330002857000476
19784866 34 18339640032300546153
20238998 120 17620473945249116547
204376 136 18334577902150995823
20510252 161 18050002495929178666
20645477 56 18338527433833306354
20671657 53 13901900103202973066
21033648 29 18336819818982169756
21202864 24 18267321982982565643
21426921 1 18193277618582758742
21499 59 18337670806958959279
21524375 3 18260827042710354450
22079108 93 18412270532173605361
22182937 141 18340491174205854400
2255824 54 17980757139139665431
23402655 69 17917993858751803876
23557571 272 18125158487927341686
23558518 356 18044375165495601810
23559900 14 18343306964441580486
23598291 2 17413028686719147945
23845131 108 18336836286651005187
25 1 18341615871822371944
283562 15 17974000949393115506
3729539 64 17904785292545080326
4028521 119 18343016687996004356
458136 41 18193281793333129483
474 4 18268989791560318441
5486654 2 18338792425258473471
59755656 520 18408886226239501230
6049 1 17984992741676651530
621550 34 17971480598659979309
633830 44 18129102225666920117
6442390 28 18410583868414953691
68521 5 18048312542120232327
7399639 24 17481139429472221864
7808743 9 18261114140432544292
81228 2 17972039403168399115
9981440 41 17270845628415231914

> <PUBCHEM_SHAPE_MULTIPOLES>
370.43
9.13
3.92
1.2
4.91
5.79
0.08
-8.65
1.51
-3.17
-0.7
-0.53
-0.4
0.45

> <PUBCHEM_SHAPE_SELFOVERLAP>
721.389

> <PUBCHEM_SHAPE_VOLUME>
218.3

> <PUBCHEM_COORDINATE_TYPE>
2
5
10

$$$$
