2334
  -OEChem-11012401233D

 30 30  0     0  0  0  0  0  0999 V2000
    0.3742    3.3480   -1.2586 O   0  0  0  0  0  0  0  0  0  0  0  0
   -2.7148    1.9977    1.2571 O   0  0  0  0  0  0  0  0  0  0  0  0
    3.0861    1.3526    1.2585 O   0  0  0  0  0  0  0  0  0  0  0  0
   -3.0876   -1.3499   -1.2571 O   0  0  0  0  0  0  0  0  0  0  0  0
    2.7118   -1.9987   -1.2588 O   0  0  0  0  0  0  0  0  0  0  0  0
   -0.3714   -3.3498    1.2574 O   0  0  0  0  0  0  0  0  0  0  0  0
    0.3955    3.5438    1.0059 O   0  0  0  0  0  0  0  0  0  0  0  0
   -2.8710    2.1125   -1.0076 O   0  0  0  0  0  0  0  0  0  0  0  0
    3.2662    1.4296   -1.0060 O   0  0  0  0  0  0  0  0  0  0  0  0
   -3.2661   -1.4295    1.0076 O   0  0  0  0  0  0  0  0  0  0  0  0
    2.8721   -2.1136    1.0056 O   0  0  0  0  0  0  0  0  0  0  0  0
   -0.3951   -3.5427   -1.0073 O   0  0  0  0  0  0  0  0  0  0  0  0
    0.1545    1.3863    0.0005 C   0  0  0  0  0  0  0  0  0  0  0  0
   -1.1233    0.8268    0.0007 C   0  0  0  0  0  0  0  0  0  0  0  0
    1.2778    0.5593    0.0004 C   0  0  0  0  0  0  0  0  0  0  0  0
   -1.2778   -0.5594    0.0007 C   0  0  0  0  0  0  0  0  0  0  0  0
    1.1233   -0.8270    0.0006 C   0  0  0  0  0  0  0  0  0  0  0  0
   -0.1545   -1.3863    0.0006 C   0  0  0  0  0  0  0  0  0  0  0  0
    0.3165    2.8387   -0.0004 C   0  0  0  0  0  0  0  0  0  0  0  0
   -2.3004    1.6932   -0.0005 C   0  0  0  0  0  0  0  0  0  0  0  0
    2.6167    1.1454    0.0006 C   0  0  0  0  0  0  0  0  0  0  0  0
   -2.6167   -1.1453    0.0008 C   0  0  0  0  0  0  0  0  0  0  0  0
    2.3004   -1.6934   -0.0006 C   0  0  0  0  0  0  0  0  0  0  0  0
   -0.3164   -2.8387   -0.0002 C   0  0  0  0  0  0  0  0  0  0  0  0
    0.4836    4.3229   -1.2536 H   0  0  0  0  0  0  0  0  0  0  0  0
   -3.5051    2.5788    1.2508 H   0  0  0  0  0  0  0  0  0  0  0  0
    3.9845    1.7465    1.2531 H   0  0  0  0  0  0  0  0  0  0  0  0
   -3.9865   -1.7426   -1.2514 H   0  0  0  0  0  0  0  0  0  0  0  0
    3.5015   -2.5808   -1.2540 H   0  0  0  0  0  0  0  0  0  0  0  0
   -0.4794   -4.3249    1.2513 H   0  0  0  0  0  0  0  0  0  0  0  0
  1 19  1  0  0  0  0
  1 25  1  0  0  0  0
  2 20  1  0  0  0  0
  2 26  1  0  0  0  0
  3 21  1  0  0  0  0
  3 27  1  0  0  0  0
  4 22  1  0  0  0  0
  4 28  1  0  0  0  0
  5 23  1  0  0  0  0
  5 29  1  0  0  0  0
  6 24  1  0  0  0  0
  6 30  1  0  0  0  0
  7 19  2  0  0  0  0
  8 20  2  0  0  0  0
  9 21  2  0  0  0  0
 10 22  2  0  0  0  0
 11 23  2  0  0  0  0
 12 24  2  0  0  0  0
 13 14  2  0  0  0  0
 13 15  1  0  0  0  0
 13 19  1  0  0  0  0
 14 16  1  0  0  0  0
 14 20  1  0  0  0  0
 15 17  2  0  0  0  0
 15 21  1  0  0  0  0
 16 18  2  0  0  0  0
 16 22  1  0  0  0  0
 17 18  1  0  0  0  0
 17 23  1  0  0  0  0
 18 24  1  0  0  0  0
M  END
> <PUBCHEM_COMPOUND_CID>
2334

> <PUBCHEM_CONFORMER_RMSD>
0.8

> <PUBCHEM_CONFORMER_DIVERSEORDER>
1

> <PUBCHEM_MMFF94_PARTIAL_CHARGES>
30
1 -0.65
10 -0.57
11 -0.57
12 -0.57
13 0.09
14 0.09
15 0.09
16 0.09
17 0.09
18 0.09
19 0.63
2 -0.65
20 0.63
21 0.63
22 0.63
23 0.63
24 0.63
25 0.5
26 0.5
27 0.5
28 0.5
29 0.5
3 -0.65
30 0.5
4 -0.65
5 -0.65
6 -0.65
7 -0.57
8 -0.57
9 -0.57

> <PUBCHEM_EFFECTIVE_ROTOR_COUNT>
6

> <PUBCHEM_PHARMACOPHORE_FEATURES>
19
1 1 acceptor
1 10 acceptor
1 11 acceptor
1 12 acceptor
1 2 acceptor
1 3 acceptor
1 4 acceptor
1 5 acceptor
1 6 acceptor
1 7 acceptor
1 8 acceptor
1 9 acceptor
3 1 7 19 anion
3 2 8 20 anion
3 3 9 21 anion
3 4 10 22 anion
3 5 11 23 anion
3 6 12 24 anion
6 13 14 15 16 17 18 rings

> <PUBCHEM_HEAVY_ATOM_COUNT>
24

> <PUBCHEM_ATOM_DEF_STEREO_COUNT>
0

> <PUBCHEM_ATOM_UDEF_STEREO_COUNT>
0

> <PUBCHEM_BOND_DEF_STEREO_COUNT>
0

> <PUBCHEM_BOND_UDEF_STEREO_COUNT>
0

> <PUBCHEM_ISOTOPIC_ATOM_COUNT>
0

> <PUBCHEM_COMPONENT_COUNT>
1

> <PUBCHEM_CACTVS_TAUTO_COUNT>
1

> <PUBCHEM_CONFORMER_ID>
0000091E00000001

> <PUBCHEM_MMFF94_ENERGY>
101.6856

> <PUBCHEM_FEATURE_SELFOVERLAP>
96.793

> <PUBCHEM_SHAPE_FINGERPRINT>
10967382 1 18194402418582016355
1100329 8 18194119616402376241
12553582 1 18194402418523994086
13140716 1 18338517417610707384
14178342 30 18341889684388107625
14790565 3 17836389055016043584
16945 1 18194680594955239430
19591789 44 18339094717108334718
20739085 24 18193867910144804649
20905425 154 18413110576015347990
21501502 16 18411418384338159590
22182313 1 18410855447264372095
2334 1 18410856563934756871
23419403 2 14885557213131191751
23559900 14 18126854786010555214
238 59 17760602179397271711
2748010 2 18410575054614138671
350125 39 18410864230461975331
352729 6 18194401095663484933
81228 2 18194682789683534393

> <PUBCHEM_SHAPE_MULTIPOLES>
423.48
4.55
4.55
1.11
0
0
0
0
0
0
0
0
0
0

> <PUBCHEM_SHAPE_SELFOVERLAP>
928.953

> <PUBCHEM_SHAPE_VOLUME>
229.7

> <PUBCHEM_COORDINATE_TYPE>
2
5
10

$$$$
