83215
  -OEChem-10312420102D

 51 50  0     0  0  0  0  0  0999 V2000
    7.1962   -0.0179    0.0000 O   0  0  0  0  0  0  0  0  0  0  0  0
    3.7320   -0.0179    0.0000 O   0  0  0  0  0  0  0  0  0  0  0  0
    5.4641    1.7141    0.0000 O   0  0  0  0  0  0  0  0  0  0  0  0
    5.4641   -1.7500    0.0000 O   0  0  0  0  0  0  0  0  0  0  0  0
   10.5622    1.3481    0.0000 O   0  0  0  0  0  0  0  0  0  0  0  0
    8.1962    1.9820    0.0000 O   0  0  0  0  0  0  0  0  0  0  0  0
    9.9282   -1.0180    0.0000 O   0  0  0  0  0  0  0  0  0  0  0  0
    2.0000   -0.0179    0.0000 O   0  5  0  0  0  0  0  0  0  0  0  0
    5.4641    3.4462    0.0000 O   0  5  0  0  0  0  0  0  0  0  0  0
    5.4641   -3.4820    0.0000 O   0  5  0  0  0  0  0  0  0  0  0  0
   12.0622    2.2141    0.0000 O   0  5  0  0  0  0  0  0  0  0  0  0
    7.3301    3.4820    0.0000 O   0  5  0  0  0  0  0  0  0  0  0  0
   10.7942   -2.5180    0.0000 O   0  5  0  0  0  0  0  0  0  0  0  0
    2.8660   -1.5180    0.0000 O   0  0  0  0  0  0  0  0  0  0  0  0
    3.9641    2.5801    0.0000 O   0  0  0  0  0  0  0  0  0  0  0  0
    6.9641   -2.6160    0.0000 O   0  0  0  0  0  0  0  0  0  0  0  0
   12.0622    0.4821    0.0000 O   0  0  0  0  0  0  0  0  0  0  0  0
    9.0622    3.4820    0.0000 O   0  0  0  0  0  0  0  0  0  0  0  0
    9.0622   -2.5179    0.0000 O   0  0  0  0  0  0  0  0  0  0  0  0
    2.8660   -0.5179    0.0000 N   0  3  0  0  0  0  0  0  0  0  0  0
    4.9641    2.5801    0.0000 N   0  3  0  0  0  0  0  0  0  0  0  0
    5.9641   -2.6160    0.0000 N   0  3  0  0  0  0  0  0  0  0  0  0
   11.5622    1.3481    0.0000 N   0  3  0  0  0  0  0  0  0  0  0  0
    8.1962    2.9820    0.0000 N   0  3  0  0  0  0  0  0  0  0  0  0
    9.9282   -2.0180    0.0000 N   0  3  0  0  0  0  0  0  0  0  0  0
    5.4641   -0.0179    0.0000 C   0  0  0  0  0  0  0  0  0  0  0  0
    9.0622    0.4821    0.0000 C   0  0  0  0  0  0  0  0  0  0  0  0
    6.3301    0.4821    0.0000 C   0  0  0  0  0  0  0  0  0  0  0  0
    8.0622    0.4821    0.0000 C   0  0  0  0  0  0  0  0  0  0  0  0
    4.5981   -0.5179    0.0000 C   0  0  0  0  0  0  0  0  0  0  0  0
    4.9641    0.8481    0.0000 C   0  0  0  0  0  0  0  0  0  0  0  0
    5.9641   -0.8840    0.0000 C   0  0  0  0  0  0  0  0  0  0  0  0
   10.0622    0.4821    0.0000 C   0  0  0  0  0  0  0  0  0  0  0  0
    9.0622    1.4820    0.0000 C   0  0  0  0  0  0  0  0  0  0  0  0
    9.0622   -0.5179    0.0000 C   0  0  0  0  0  0  0  0  0  0  0  0
    6.7287    0.9570    0.0000 H   0  0  0  0  0  0  0  0  0  0  0  0
    5.9316    0.9570    0.0000 H   0  0  0  0  0  0  0  0  0  0  0  0
    8.2742    1.0647    0.0000 H   0  0  0  0  0  0  0  0  0  0  0  0
    8.2226   -0.1168    0.0000 H   0  0  0  0  0  0  0  0  0  0  0  0
    4.1996   -0.9929    0.0000 H   0  0  0  0  0  0  0  0  0  0  0  0
    4.9966   -0.9929    0.0000 H   0  0  0  0  0  0  0  0  0  0  0  0
    4.4892    1.2466    0.0000 H   0  0  0  0  0  0  0  0  0  0  0  0
    4.4892    0.4495    0.0000 H   0  0  0  0  0  0  0  0  0  0  0  0
    6.4390   -1.2825    0.0000 H   0  0  0  0  0  0  0  0  0  0  0  0
    6.4390   -0.4854    0.0000 H   0  0  0  0  0  0  0  0  0  0  0  0
    9.9545   -0.1285    0.0000 H   0  0  0  0  0  0  0  0  0  0  0  0
   10.6448    0.2700    0.0000 H   0  0  0  0  0  0  0  0  0  0  0  0
    9.6728    1.3744    0.0000 H   0  0  0  0  0  0  0  0  0  0  0  0
    9.2742    2.0647    0.0000 H   0  0  0  0  0  0  0  0  0  0  0  0
    8.4516   -0.4103    0.0000 H   0  0  0  0  0  0  0  0  0  0  0  0
    8.8501   -1.1006    0.0000 H   0  0  0  0  0  0  0  0  0  0  0  0
  1 28  1  0  0  0  0
  1 29  1  0  0  0  0
  2 20  1  0  0  0  0
  2 30  1  0  0  0  0
  3 21  1  0  0  0  0
  3 31  1  0  0  0  0
  4 22  1  0  0  0  0
  4 32  1  0  0  0  0
  5 23  1  0  0  0  0
  5 33  1  0  0  0  0
  6 24  1  0  0  0  0
  6 34  1  0  0  0  0
  7 25  1  0  0  0  0
  7 35  1  0  0  0  0
  8 20  1  0  0  0  0
  9 21  1  0  0  0  0
 10 22  1  0  0  0  0
 11 23  1  0  0  0  0
 12 24  1  0  0  0  0
 13 25  1  0  0  0  0
 14 20  2  0  0  0  0
 15 21  2  0  0  0  0
 16 22  2  0  0  0  0
 17 23  2  0  0  0  0
 18 24  2  0  0  0  0
 19 25  2  0  0  0  0
 26 28  1  0  0  0  0
 26 30  1  0  0  0  0
 26 31  1  0  0  0  0
 26 32  1  0  0  0  0
 27 29  1  0  0  0  0
 27 33  1  0  0  0  0
 27 34  1  0  0  0  0
 27 35  1  0  0  0  0
 28 36  1  0  0  0  0
 28 37  1  0  0  0  0
 29 38  1  0  0  0  0
 29 39  1  0  0  0  0
 30 40  1  0  0  0  0
 30 41  1  0  0  0  0
 31 42  1  0  0  0  0
 31 43  1  0  0  0  0
 32 44  1  0  0  0  0
 32 45  1  0  0  0  0
 33 46  1  0  0  0  0
 33 47  1  0  0  0  0
 34 48  1  0  0  0  0
 34 49  1  0  0  0  0
 35 50  1  0  0  0  0
 35 51  1  0  0  0  0
M  CHG  8   8  -1   9  -1  10  -1  11  -1  12  -1  13  -1  20   1  21   1
M  CHG  4  22   1  23   1  24   1  25   1
M  END
> <PUBCHEM_COMPOUND_CID>
83215

> <PUBCHEM_COMPOUND_CANONICALIZED>
1

> <PUBCHEM_CACTVS_COMPLEXITY>
589

> <PUBCHEM_CACTVS_HBOND_ACCEPTOR>
19

> <PUBCHEM_CACTVS_HBOND_DONOR>
0

> <PUBCHEM_CACTVS_ROTATABLE_BOND>
16

> <PUBCHEM_CACTVS_SUBSKEYS>
AAADceBzvgAAAAAAAAAAAAAAAAAAAAAAAAAAAAAAAAAAAAAAAAAAGgAEAAAADgCggAIAAAAARAABAAAAAQAAAAAAAAAAAAAAAAAAAAAAAAACAAABAAAAAAAAAAAAAAAAAAAAAAAAAAAAAAAAAAAAAAAAAA==

> <PUBCHEM_IUPAC_OPENEYE_NAME>
[3-nitrooxy-2-[[3-nitrooxy-2,2-bis(nitrooxymethyl)propoxy]methyl]-2-(nitrooxymethyl)propyl] nitrate

> <PUBCHEM_IUPAC_CAS_NAME>
nitric acid [3-nitrooxy-2-[[3-nitrooxy-2,2-bis(nitrooxymethyl)propoxy]methyl]-2-(nitrooxymethyl)propyl] ester

> <PUBCHEM_IUPAC_NAME_MARKUP>
[3-nitrooxy-2-[[3-nitrooxy-2,2-bis(nitrooxymethyl)propoxy]methyl]-2-(nitrooxymethyl)propyl] nitrate

> <PUBCHEM_IUPAC_NAME>
[3-nitrooxy-2-[[3-nitrooxy-2,2-bis(nitrooxymethyl)propoxy]methyl]-2-(nitrooxymethyl)propyl] nitrate

> <PUBCHEM_IUPAC_SYSTEMATIC_NAME>
[3-nitrooxy-2-[[3-nitrooxy-2,2-bis(nitrooxymethyl)propoxy]methyl]-2-(nitrooxymethyl)propyl] nitrate

> <PUBCHEM_IUPAC_TRADITIONAL_NAME>
nitric acid [3-nitrooxy-2-[[3-nitrooxy-2,2-bis(nitrooxymethyl)propoxy]methyl]-2-(nitrooxymethyl)propyl] ester

> <PUBCHEM_IUPAC_INCHI>
InChI=1S/C10H16N6O19/c17-11(18)30-3-9(4-31-12(19)20,5-32-13(21)22)1-29-2-10(6-33-14(23)24,7-34-15(25)26)8-35-16(27)28/h1-8H2

> <PUBCHEM_IUPAC_INCHIKEY>
BGXZDPSXQZVBGX-UHFFFAOYSA-N

> <PUBCHEM_XLOGP3_AA>
1.9

> <PUBCHEM_EXACT_MASS>
524.04702230

> <PUBCHEM_MOLECULAR_FORMULA>
C10H16N6O19

> <PUBCHEM_MOLECULAR_WEIGHT>
524.26

> <PUBCHEM_OPENEYE_CAN_SMILES>
C(C(CO[N+](=O)[O-])(CO[N+](=O)[O-])CO[N+](=O)[O-])OCC(CO[N+](=O)[O-])(CO[N+](=O)[O-])CO[N+](=O)[O-]

> <PUBCHEM_OPENEYE_ISO_SMILES>
C(C(CO[N+](=O)[O-])(CO[N+](=O)[O-])CO[N+](=O)[O-])OCC(CO[N+](=O)[O-])(CO[N+](=O)[O-])CO[N+](=O)[O-]

> <PUBCHEM_CACTVS_TPSA>
340

> <PUBCHEM_MONOISOTOPIC_WEIGHT>
524.04702230

> <PUBCHEM_TOTAL_CHARGE>
0

> <PUBCHEM_HEAVY_ATOM_COUNT>
35

> <PUBCHEM_ATOM_DEF_STEREO_COUNT>
0

> <PUBCHEM_ATOM_UDEF_STEREO_COUNT>
0

> <PUBCHEM_BOND_DEF_STEREO_COUNT>
0

> <PUBCHEM_BOND_UDEF_STEREO_COUNT>
0

> <PUBCHEM_ISOTOPIC_ATOM_COUNT>
0

> <PUBCHEM_COMPONENT_COUNT>
1

> <PUBCHEM_CACTVS_TAUTO_COUNT>
-1

> <PUBCHEM_COORDINATE_TYPE>
1
5
255

$$$$
