140037
  -OEChem-11012400313D

 34 34  0     0  0  0  0  0  0999 V2000
    4.2993    0.3026   -0.4955 O   0  0  0  0  0  0  0  0  0  0  0  0
   -4.5823   -0.4505   -1.1448 O   0  0  0  0  0  0  0  0  0  0  0  0
    3.6145   -1.8280    0.0056 O   0  0  0  0  0  0  0  0  0  0  0  0
   -4.3145   -0.1679    1.1293 O   0  0  0  0  0  0  0  0  0  0  0  0
    1.8243    1.3248   -0.0949 N   0  0  0  0  0  0  0  0  0  0  0  0
   -0.0898    0.4110    0.4904 C   0  0  0  0  0  0  0  0  0  0  0  0
    0.8721   -0.6103    0.4353 C   0  0  0  0  0  0  0  0  0  0  0  0
   -1.5345    0.2350    0.8496 C   0  0  0  0  0  0  0  0  0  0  0  0
    0.5057    1.5947    0.1633 C   0  0  0  0  0  0  0  0  0  0  0  0
    2.0590   -0.0157    0.0684 C   0  0  0  0  0  0  0  0  0  0  0  0
   -2.4060   -0.0535   -0.3743 C   0  0  0  0  0  0  0  0  0  0  0  0
    0.6609   -2.0461    0.7157 C   0  0  0  0  0  0  0  0  0  0  0  0
   -0.0241    2.9682    0.0630 C   0  0  0  0  0  0  0  0  0  0  0  0
    3.3403   -0.6193   -0.1268 C   0  0  0  0  0  0  0  0  0  0  0  0
   -3.8623   -0.2238   -0.0060 C   0  0  0  0  0  0  0  0  0  0  0  0
    5.6266   -0.1861   -0.7206 C   0  0  0  0  0  0  0  0  0  0  0  0
   -5.9892   -0.6349   -0.9580 C   0  0  0  0  0  0  0  0  0  0  0  0
   -1.6460   -0.5653    1.5913 H   0  0  0  0  0  0  0  0  0  0  0  0
   -1.8983    1.1423    1.3503 H   0  0  0  0  0  0  0  0  0  0  0  0
    2.5190    2.0084   -0.3638 H   0  0  0  0  0  0  0  0  0  0  0  0
   -2.0685   -0.9737   -0.8653 H   0  0  0  0  0  0  0  0  0  0  0  0
   -2.3290    0.7727   -1.0908 H   0  0  0  0  0  0  0  0  0  0  0  0
    1.1804   -2.3364    1.6350 H   0  0  0  0  0  0  0  0  0  0  0  0
   -0.3957   -2.3000    0.8362 H   0  0  0  0  0  0  0  0  0  0  0  0
    1.0425   -2.6621   -0.1055 H   0  0  0  0  0  0  0  0  0  0  0  0
    0.7055    3.6565   -0.3760 H   0  0  0  0  0  0  0  0  0  0  0  0
   -0.9212    2.9915   -0.5639 H   0  0  0  0  0  0  0  0  0  0  0  0
   -0.2901    3.3475    1.0549 H   0  0  0  0  0  0  0  0  0  0  0  0
    5.6265   -0.9131   -1.5380 H   0  0  0  0  0  0  0  0  0  0  0  0
    6.0237   -0.6331    0.1954 H   0  0  0  0  0  0  0  0  0  0  0  0
    6.2578    0.6609   -1.0021 H   0  0  0  0  0  0  0  0  0  0  0  0
   -6.1760   -1.5092   -0.3272 H   0  0  0  0  0  0  0  0  0  0  0  0
   -6.4428   -0.8058   -1.9379 H   0  0  0  0  0  0  0  0  0  0  0  0
   -6.4335    0.2625   -0.5170 H   0  0  0  0  0  0  0  0  0  0  0  0
  1 14  1  0  0  0  0
  1 16  1  0  0  0  0
  2 15  1  0  0  0  0
  2 17  1  0  0  0  0
  3 14  2  0  0  0  0
  4 15  2  0  0  0  0
  5  9  1  0  0  0  0
  5 10  1  0  0  0  0
  5 20  1  0  0  0  0
  6  7  1  0  0  0  0
  6  8  1  0  0  0  0
  6  9  2  0  0  0  0
  7 10  2  0  0  0  0
  7 12  1  0  0  0  0
  8 11  1  0  0  0  0
  8 18  1  0  0  0  0
  8 19  1  0  0  0  0
  9 13  1  0  0  0  0
 10 14  1  0  0  0  0
 11 15  1  0  0  0  0
 11 21  1  0  0  0  0
 11 22  1  0  0  0  0
 12 23  1  0  0  0  0
 12 24  1  0  0  0  0
 12 25  1  0  0  0  0
 13 26  1  0  0  0  0
 13 27  1  0  0  0  0
 13 28  1  0  0  0  0
 16 29  1  0  0  0  0
 16 30  1  0  0  0  0
 16 31  1  0  0  0  0
 17 32  1  0  0  0  0
 17 33  1  0  0  0  0
 17 34  1  0  0  0  0
M  END
> <PUBCHEM_COMPOUND_CID>
140037

> <PUBCHEM_CONFORMER_RMSD>
0.8

> <PUBCHEM_CONFORMER_DIVERSEORDER>
2
43
38
17
21
33
10
15
45
37
26
5
23
32
41
14
36
22
7
35
27
6
24
44
8
29
9
25
42
18
3
13
19
28
16
11
20
34
40
4
30
12
1
31
39

> <PUBCHEM_MMFF94_PARTIAL_CHARGES>
18
1 -0.43
10 -0.24
11 0.06
12 0.18
13 0.18
14 0.81
15 0.66
16 0.28
17 0.28
2 -0.43
20 0.27
3 -0.57
4 -0.57
5 0.03
6 -0.18
7 -0.18
8 0.18
9 -0.33

> <PUBCHEM_EFFECTIVE_ROTOR_COUNT>
6

> <PUBCHEM_PHARMACOPHORE_FEATURES>
5
1 3 acceptor
1 4 acceptor
1 5 cation
1 5 donor
5 5 6 7 9 10 rings

> <PUBCHEM_HEAVY_ATOM_COUNT>
17

> <PUBCHEM_ATOM_DEF_STEREO_COUNT>
0

> <PUBCHEM_ATOM_UDEF_STEREO_COUNT>
0

> <PUBCHEM_BOND_DEF_STEREO_COUNT>
0

> <PUBCHEM_BOND_UDEF_STEREO_COUNT>
0

> <PUBCHEM_ISOTOPIC_ATOM_COUNT>
0

> <PUBCHEM_COMPONENT_COUNT>
1

> <PUBCHEM_CACTVS_TAUTO_COUNT>
2

> <PUBCHEM_CONFORMER_ID>
0002230500000002

> <PUBCHEM_MMFF94_ENERGY>
20.5346

> <PUBCHEM_FEATURE_SELFOVERLAP>
25.371

> <PUBCHEM_SHAPE_FINGERPRINT>
10366900 7 17822001030775014989
11471102 20 18335698368908462737
11578080 2 17701513191886587657
11806522 49 18343301465791574464
12236239 1 17847065497425195377
12251169 10 11527943474214836593
13862211 1 18411134719392722026
14350574 20 18261394494596396035
14576447 43 18342733035502308831
14911166 2 18334576862468353266
14993402 34 18412266146674307810
15048467 5 13118003314345626854
15848700 24 18411978066053895568
16945 1 18263100889371560496
18222031 100 18272928323667548128
187816 3 18333455343802569074
200 152 18343017788108414777
20612939 158 18336549425031216781
20645477 70 18409722989501787055
20871999 31 18260545580908696077
21029758 11 18411421726060547680
21256008 61 18342737429137567641
21267235 1 18343308084879548423
21637258 2 16773790372892527286
21641784 216 17968957291866673300
221357 26 18334846217881097253
221490 88 18120096332240713507
22224240 67 9295286132178422197
22713019 99 18413390947106465442
23402539 116 18343866588929895132
23402655 69 18261106349181806511
23559900 14 18269831085185043745
23622692 118 18119523242233594090
2748010 2 17977682114775933880
2871803 45 18334574603336687030
2916195 48 13262688074887284198
29717793 49 17775565351767307077
3060560 45 18335692875661362351
33382 64 16056610815784859246
351380 3 17918270961324986247
4072396 5 17968078825325764034
7164475 11 18192713341631921796

> <PUBCHEM_SHAPE_MULTIPOLES>
321.39
10.89
1.93
0.93
5.88
1.11
0.01
-3.92
4.37
-0.89
-0.21
0.67
-0.13
-0.36

> <PUBCHEM_SHAPE_SELFOVERLAP>
656.267

> <PUBCHEM_SHAPE_VOLUME>
188.9

> <PUBCHEM_COORDINATE_TYPE>
2
5
10

$$$$
