72491
  -OEChem-11012400303D

 20 19  0     0  0  0  0  0  0999 V2000
   -2.0652    1.4365    0.0211 O   0  0  0  0  0  0  0  0  0  0  0  0
    2.0652   -1.4365    0.0210 O   0  0  0  0  0  0  0  0  0  0  0  0
   -2.9799   -0.6997   -0.0036 N   0  0  0  0  0  0  0  0  0  0  0  0
    2.9798    0.6996   -0.0038 N   0  0  0  0  0  0  0  0  0  0  0  0
   -4.2792   -0.2367    0.0233 N   0  0  0  0  0  0  0  0  0  0  0  0
    4.2792    0.2369    0.0235 N   0  0  0  0  0  0  0  0  0  0  0  0
   -0.5895   -0.4839   -0.0383 C   0  0  0  0  0  0  0  0  0  0  0  0
    0.5895    0.4838   -0.0383 C   0  0  0  0  0  0  0  0  0  0  0  0
   -1.9395    0.2148   -0.0024 C   0  0  0  0  0  0  0  0  0  0  0  0
    1.9396   -0.2148   -0.0026 C   0  0  0  0  0  0  0  0  0  0  0  0
   -0.5515   -1.1165   -0.9336 H   0  0  0  0  0  0  0  0  0  0  0  0
   -0.5273   -1.1472    0.8334 H   0  0  0  0  0  0  0  0  0  0  0  0
    0.5514    1.1165   -0.9336 H   0  0  0  0  0  0  0  0  0  0  0  0
    0.5273    1.1470    0.8335 H   0  0  0  0  0  0  0  0  0  0  0  0
   -2.8274   -1.7032   -0.0246 H   0  0  0  0  0  0  0  0  0  0  0  0
    2.8272    1.7030   -0.0249 H   0  0  0  0  0  0  0  0  0  0  0  0
   -4.7266   -0.6583    0.8361 H   0  0  0  0  0  0  0  0  0  0  0  0
   -4.7496   -0.6284   -0.7915 H   0  0  0  0  0  0  0  0  0  0  0  0
    4.7264    0.6588    0.8363 H   0  0  0  0  0  0  0  0  0  0  0  0
    4.7497    0.6286   -0.7912 H   0  0  0  0  0  0  0  0  0  0  0  0
  1  9  2  0  0  0  0
  2 10  2  0  0  0  0
  3  5  1  0  0  0  0
  3  9  1  0  0  0  0
  3 15  1  0  0  0  0
  4  6  1  0  0  0  0
  4 10  1  0  0  0  0
  4 16  1  0  0  0  0
  5 17  1  0  0  0  0
  5 18  1  0  0  0  0
  6 19  1  0  0  0  0
  6 20  1  0  0  0  0
  7  8  1  0  0  0  0
  7  9  1  0  0  0  0
  7 11  1  0  0  0  0
  7 12  1  0  0  0  0
  8 10  1  0  0  0  0
  8 13  1  0  0  0  0
  8 14  1  0  0  0  0
M  END
> <PUBCHEM_COMPOUND_CID>
72491

> <PUBCHEM_CONFORMER_RMSD>
0.6

> <PUBCHEM_CONFORMER_DIVERSEORDER>
1
11
15
6
16
3
17
19
4
14
8
2
10
20
7
13
12
5
9
18

> <PUBCHEM_MMFF94_PARTIAL_CHARGES>
16
1 -0.57
10 0.57
15 0.37
16 0.37
17 0.36
18 0.36
19 0.36
2 -0.57
20 0.36
3 -0.42
4 -0.42
5 -0.73
6 -0.73
7 0.06
8 0.06
9 0.57

> <PUBCHEM_EFFECTIVE_ROTOR_COUNT>
5

> <PUBCHEM_PHARMACOPHORE_FEATURES>
6
1 1 acceptor
1 2 acceptor
1 3 donor
1 4 donor
1 5 donor
1 6 donor

> <PUBCHEM_HEAVY_ATOM_COUNT>
10

> <PUBCHEM_ATOM_DEF_STEREO_COUNT>
0

> <PUBCHEM_ATOM_UDEF_STEREO_COUNT>
0

> <PUBCHEM_BOND_DEF_STEREO_COUNT>
0

> <PUBCHEM_BOND_UDEF_STEREO_COUNT>
0

> <PUBCHEM_ISOTOPIC_ATOM_COUNT>
0

> <PUBCHEM_COMPONENT_COUNT>
1

> <PUBCHEM_CACTVS_TAUTO_COUNT>
3

> <PUBCHEM_CONFORMER_ID>
00011B2B00000001

> <PUBCHEM_MMFF94_ENERGY>
12.4701

> <PUBCHEM_FEATURE_SELFOVERLAP>
33.471

> <PUBCHEM_SHAPE_FINGERPRINT>
11062470 55 15719389546735269575
12932764 1 17203313499213698542
14325111 11 18410856521011470669
14390081 3 18413387627080960368
15310529 11 18343579616511025279
170605 34 18407478869047389994
20201158 50 18334859432635422267
20645477 70 18339356349626463903
20719005 15 18410573989815703042
21293036 1 17632860841019570440
23402539 116 18260537957162111735

> <PUBCHEM_SHAPE_MULTIPOLES>
174.13
7.12
1.07
0.56
0
0
0
0
0.1
0
0.01
0
0
-0.01

> <PUBCHEM_SHAPE_SELFOVERLAP>
326.769

> <PUBCHEM_SHAPE_VOLUME>
107.6

> <PUBCHEM_COORDINATE_TYPE>
2
5
10

$$$$
