143414
  -OEChem-11012401253D

 25 26  0     0  0  0  0  0  0999 V2000
   -3.5662   -1.2206   -1.7951 O   0  0  0  0  0  0  0  0  0  0  0  0
    4.0167    0.7865   -1.7646 O   0  0  0  0  0  0  0  0  0  0  0  0
   -2.8397   -0.6463    0.3682 N   0  0  0  0  0  0  0  0  0  0  0  0
    3.2174    0.3975    0.4151 N   0  0  0  0  0  0  0  0  0  0  0  0
   -0.4007   -0.5135    0.3992 C   0  0  0  0  0  0  0  0  0  0  0  0
    0.7698    0.2818    0.3842 C   0  0  0  0  0  0  0  0  0  0  0  0
   -1.6570    0.1128    0.3553 C   0  0  0  0  0  0  0  0  0  0  0  0
   -1.7579    1.5032    0.2976 C   0  0  0  0  0  0  0  0  0  0  0  0
    0.6496    1.6799    0.3254 C   0  0  0  0  0  0  0  0  0  0  0  0
    2.0261   -0.3442    0.4279 C   0  0  0  0  0  0  0  0  0  0  0  0
   -0.6068    2.2853    0.2824 C   0  0  0  0  0  0  0  0  0  0  0  0
   -0.2803   -1.9115    0.4577 C   0  0  0  0  0  0  0  0  0  0  0  0
    2.1271   -1.7345    0.4861 C   0  0  0  0  0  0  0  0  0  0  0  0
    0.9760   -2.5166    0.5009 C   0  0  0  0  0  0  0  0  0  0  0  0
   -3.0889    2.1809    0.2504 C   0  0  0  0  0  0  0  0  0  0  0  0
   -3.2006   -0.9320   -0.7147 C   0  0  0  0  0  0  0  0  0  0  0  0
    3.6156    0.5911   -0.6758 C   0  0  0  0  0  0  0  0  0  0  0  0
    1.5214    2.3298    0.3189 H   0  0  0  0  0  0  0  0  0  0  0  0
   -0.6681    3.3695    0.2374 H   0  0  0  0  0  0  0  0  0  0  0  0
   -1.1508   -2.5624    0.4799 H   0  0  0  0  0  0  0  0  0  0  0  0
    3.0991   -2.2203    0.5234 H   0  0  0  0  0  0  0  0  0  0  0  0
    1.0555   -3.5988    0.5486 H   0  0  0  0  0  0  0  0  0  0  0  0
   -3.7496    1.8029    1.0378 H   0  0  0  0  0  0  0  0  0  0  0  0
   -2.9973    3.2612    0.4095 H   0  0  0  0  0  0  0  0  0  0  0  0
   -3.5617    2.0300   -0.7253 H   0  0  0  0  0  0  0  0  0  0  0  0
  1 16  2  0  0  0  0
  2 17  2  0  0  0  0
  3  7  1  0  0  0  0
  3 16  2  0  0  0  0
  4 10  1  0  0  0  0
  4 17  2  0  0  0  0
  5  6  2  0  0  0  0
  5  7  1  0  0  0  0
  5 12  1  0  0  0  0
  6  9  1  0  0  0  0
  6 10  1  0  0  0  0
  7  8  2  0  0  0  0
  8 11  1  0  0  0  0
  8 15  1  0  0  0  0
  9 11  2  0  0  0  0
  9 18  1  0  0  0  0
 10 13  2  0  0  0  0
 11 19  1  0  0  0  0
 12 14  2  0  0  0  0
 12 20  1  0  0  0  0
 13 14  1  0  0  0  0
 13 21  1  0  0  0  0
 14 22  1  0  0  0  0
 15 23  1  0  0  0  0
 15 24  1  0  0  0  0
 15 25  1  0  0  0  0
M  END
> <PUBCHEM_COMPOUND_CID>
143414

> <PUBCHEM_CONFORMER_RMSD>
0.6

> <PUBCHEM_CONFORMER_DIVERSEORDER>
3
5
1
6
2
4

> <PUBCHEM_MMFF94_PARTIAL_CHARGES>
20
1 -0.49
10 0.18
11 -0.15
12 -0.15
13 -0.15
14 -0.15
15 0.14
16 0.79
17 0.79
18 0.15
19 0.15
2 -0.49
20 0.15
21 0.15
22 0.15
3 -0.48
4 -0.48
7 0.18
8 -0.14
9 -0.15

> <PUBCHEM_EFFECTIVE_ROTOR_COUNT>
2

> <PUBCHEM_PHARMACOPHORE_FEATURES>
4
1 3 acceptor
1 4 acceptor
6 5 6 10 12 13 14 rings
6 5 6 7 8 9 11 rings

> <PUBCHEM_HEAVY_ATOM_COUNT>
17

> <PUBCHEM_ATOM_DEF_STEREO_COUNT>
0

> <PUBCHEM_ATOM_UDEF_STEREO_COUNT>
0

> <PUBCHEM_BOND_DEF_STEREO_COUNT>
0

> <PUBCHEM_BOND_UDEF_STEREO_COUNT>
0

> <PUBCHEM_ISOTOPIC_ATOM_COUNT>
0

> <PUBCHEM_COMPONENT_COUNT>
1

> <PUBCHEM_CACTVS_TAUTO_COUNT>
1

> <PUBCHEM_CONFORMER_ID>
0002303600000003

> <PUBCHEM_MMFF94_ENERGY>
52.5332

> <PUBCHEM_FEATURE_SELFOVERLAP>
20.324

> <PUBCHEM_SHAPE_FINGERPRINT>
10062212 137 18337381630794930178
10756046 5 18267583498728929583
10967382 1 18122060909989206105
11206711 2 18410852174663050133
12202030 40 15697986418976567958
12553582 1 18341887541557862707
13140716 1 17977381964542974915
13380535 21 18267874882385096145
14787075 74 17772176763967411736
14790565 3 18193018082236192953
16945 1 18337951302277029299
21501502 16 18265891367539992675
21634736 98 18194124001865178766
21637258 2 15913609475399328718
2334 1 18338233773717859571
23388829 49 18412536635198469945
23402539 116 18412545397374917612
23419403 2 16817636659004268866
23463225 33 18190739730828402930
23552423 10 18118403942989579738
23557571 272 17846486020305802458
23559900 14 18342750611711153676
25147074 1 18265609892521097115
2748010 2 18338517417631903675
2871803 45 18341602754928966119
34934 24 18340761534108097761
449060 23 17917995013749340421
57096353 35 18409727378383318342
7364860 26 18052257293867361266

> <PUBCHEM_SHAPE_MULTIPOLES>
328.15
5.9
2.57
1.06
1.09
0.15
0.52
-0.78
2.51
-0.64
-0.25
0.08
0.12
-1.27

> <PUBCHEM_SHAPE_SELFOVERLAP>
727.425

> <PUBCHEM_SHAPE_VOLUME>
173.7

> <PUBCHEM_COORDINATE_TYPE>
2
5
10

$$$$
