21122123
  -OEChem-11012401173D

 18 17  0     1  0  0  0  0  0999 V2000
    0.3120    0.9565   -1.3815 O   0  0  0  0  0  0  0  0  0  0  0  0
   -0.3120    0.9565    1.3815 O   0  0  0  0  0  0  0  0  0  0  0  0
    2.7275    0.7309   -0.2657 O   0  0  0  0  0  0  0  0  0  0  0  0
   -2.7276    0.7309    0.2655 O   0  0  0  0  0  0  0  0  0  0  0  0
    2.2562   -1.3093    0.6810 N   0  0  0  0  0  0  0  0  0  0  0  0
   -2.2561   -1.3094   -0.6809 N   0  0  0  0  0  0  0  0  0  0  0  0
    0.5090   -0.1945   -0.5732 C   0  0  2  0  0  0  0  0  0  0  0  0
   -0.5090   -0.1945    0.5733 C   0  0  2  0  0  0  0  0  0  0  0  0
    1.9370   -0.1835   -0.0459 C   0  0  0  0  0  0  0  0  0  0  0  0
   -1.9370   -0.1835    0.0459 C   0  0  0  0  0  0  0  0  0  0  0  0
    0.3917   -1.0723   -1.2173 H   0  0  0  0  0  0  0  0  0  0  0  0
   -0.3917   -1.0723    1.2174 H   0  0  0  0  0  0  0  0  0  0  0  0
    0.4974    1.7449   -0.8445 H   0  0  0  0  0  0  0  0  0  0  0  0
   -0.4974    1.7449    0.8446 H   0  0  0  0  0  0  0  0  0  0  0  0
    1.6020   -2.0716    0.8246 H   0  0  0  0  0  0  0  0  0  0  0  0
    3.1802   -1.4230    1.0844 H   0  0  0  0  0  0  0  0  0  0  0  0
   -1.6017   -2.0717   -0.8244 H   0  0  0  0  0  0  0  0  0  0  0  0
   -3.1800   -1.4232   -1.0846 H   0  0  0  0  0  0  0  0  0  0  0  0
  1  7  1  0  0  0  0
  1 13  1  0  0  0  0
  2  8  1  0  0  0  0
  2 14  1  0  0  0  0
  3  9  2  0  0  0  0
  4 10  2  0  0  0  0
  5  9  1  0  0  0  0
  5 15  1  0  0  0  0
  5 16  1  0  0  0  0
  6 10  1  0  0  0  0
  6 17  1  0  0  0  0
  6 18  1  0  0  0  0
  7  8  1  0  0  0  0
  7  9  1  0  0  0  0
  7 11  1  0  0  0  0
  8 10  1  0  0  0  0
  8 12  1  0  0  0  0
M  END
> <PUBCHEM_COMPOUND_CID>
21122123

> <PUBCHEM_CONFORMER_RMSD>
0.6

> <PUBCHEM_CONFORMER_DIVERSEORDER>
1
19
16
3
30
17
20
7
10
12
18
26
27
8
4
23
25
31
29
5
15
11
6
28
13
22
9
2
14
24
21

> <PUBCHEM_MMFF94_PARTIAL_CHARGES>
16
1 -0.68
10 0.57
13 0.4
14 0.4
15 0.37
16 0.37
17 0.37
18 0.37
2 -0.68
3 -0.57
4 -0.57
5 -0.8
6 -0.8
7 0.34
8 0.34
9 0.57

> <PUBCHEM_EFFECTIVE_ROTOR_COUNT>
3

> <PUBCHEM_PHARMACOPHORE_FEATURES>
8
1 1 acceptor
1 1 donor
1 2 acceptor
1 2 donor
1 3 acceptor
1 4 acceptor
1 5 donor
1 6 donor

> <PUBCHEM_HEAVY_ATOM_COUNT>
10

> <PUBCHEM_ATOM_DEF_STEREO_COUNT>
2

> <PUBCHEM_ATOM_UDEF_STEREO_COUNT>
0

> <PUBCHEM_BOND_DEF_STEREO_COUNT>
0

> <PUBCHEM_BOND_UDEF_STEREO_COUNT>
0

> <PUBCHEM_ISOTOPIC_ATOM_COUNT>
0

> <PUBCHEM_COMPONENT_COUNT>
1

> <PUBCHEM_CACTVS_TAUTO_COUNT>
3

> <PUBCHEM_CONFORMER_ID>
01424C4B00000001

> <PUBCHEM_MMFF94_ENERGY>
11.3684

> <PUBCHEM_FEATURE_SELFOVERLAP>
40.621

> <PUBCHEM_SHAPE_FINGERPRINT>
10857977 72 16845566551998955203
12897270 3 17203619180805547940
12932764 1 18410579487004661252
15310529 11 18334580161298609755
20645464 45 15430322481084847660
29004967 10 17458069274096614368
369184 2 18410013221478827899

> <PUBCHEM_SHAPE_MULTIPOLES>
172.36
3.72
1.13
1.06
0
0.17
0
0.32
0
0
0
0
-0.2
-0.51

> <PUBCHEM_SHAPE_SELFOVERLAP>
334.675

> <PUBCHEM_SHAPE_VOLUME>
103.3

> <PUBCHEM_COORDINATE_TYPE>
2
5
10

$$$$
