7168
  -OEChem-11012400553D

 26 27  0     0  0  0  0  0  0999 V2000
   -0.2313    1.8373    0.2880 O   0  0  0  0  0  0  0  0  0  0  0  0
    0.4679   -0.3714   -0.0835 N   0  0  0  0  0  0  0  0  0  0  0  0
   -1.8780    0.2137    0.0365 C   0  0  0  0  0  0  0  0  0  0  0  0
    1.8800   -0.2623   -0.0608 C   0  0  0  0  0  0  0  0  0  0  0  0
   -0.4885    0.6397    0.0847 C   0  0  0  0  0  0  0  0  0  0  0  0
   -2.8683    1.1089   -0.3682 C   0  0  0  0  0  0  0  0  0  0  0  0
   -2.2208   -1.0902    0.3946 C   0  0  0  0  0  0  0  0  0  0  0  0
    2.4590    0.9774    0.1506 C   0  0  0  0  0  0  0  0  0  0  0  0
    2.6493   -1.3977   -0.2499 C   0  0  0  0  0  0  0  0  0  0  0  0
   -4.2012    0.7003   -0.4146 C   0  0  0  0  0  0  0  0  0  0  0  0
   -3.5536   -1.4987    0.3480 C   0  0  0  0  0  0  0  0  0  0  0  0
    3.8495    1.0849    0.1734 C   0  0  0  0  0  0  0  0  0  0  0  0
    4.0399   -1.2900   -0.2269 C   0  0  0  0  0  0  0  0  0  0  0  0
   -4.5438   -0.6034   -0.0566 C   0  0  0  0  0  0  0  0  0  0  0  0
    4.6399   -0.0486   -0.0153 C   0  0  0  0  0  0  0  0  0  0  0  0
    0.1405   -1.3120   -0.2863 H   0  0  0  0  0  0  0  0  0  0  0  0
   -2.6224    2.1277   -0.6564 H   0  0  0  0  0  0  0  0  0  0  0  0
   -1.4919   -1.8110    0.7529 H   0  0  0  0  0  0  0  0  0  0  0  0
    1.9183    1.8990    0.3044 H   0  0  0  0  0  0  0  0  0  0  0  0
    2.1924   -2.3693   -0.4152 H   0  0  0  0  0  0  0  0  0  0  0  0
   -4.9723    1.3970   -0.7304 H   0  0  0  0  0  0  0  0  0  0  0  0
   -3.8224   -2.5111    0.6351 H   0  0  0  0  0  0  0  0  0  0  0  0
    4.3183    2.0509    0.3381 H   0  0  0  0  0  0  0  0  0  0  0  0
    4.6555   -2.1726   -0.3737 H   0  0  0  0  0  0  0  0  0  0  0  0
   -5.5819   -0.9210   -0.0911 H   0  0  0  0  0  0  0  0  0  0  0  0
    5.7226    0.0351    0.0025 H   0  0  0  0  0  0  0  0  0  0  0  0
  1  5  2  0  0  0  0
  2  4  1  0  0  0  0
  2  5  1  0  0  0  0
  2 16  1  0  0  0  0
  3  5  1  0  0  0  0
  3  6  2  0  0  0  0
  3  7  1  0  0  0  0
  4  8  2  0  0  0  0
  4  9  1  0  0  0  0
  6 10  1  0  0  0  0
  6 17  1  0  0  0  0
  7 11  2  0  0  0  0
  7 18  1  0  0  0  0
  8 12  1  0  0  0  0
  8 19  1  0  0  0  0
  9 13  2  0  0  0  0
  9 20  1  0  0  0  0
 10 14  2  0  0  0  0
 10 21  1  0  0  0  0
 11 14  1  0  0  0  0
 11 22  1  0  0  0  0
 12 15  2  0  0  0  0
 12 23  1  0  0  0  0
 13 15  1  0  0  0  0
 13 24  1  0  0  0  0
 14 25  1  0  0  0  0
 15 26  1  0  0  0  0
M  END
> <PUBCHEM_COMPOUND_CID>
7168

> <PUBCHEM_CONFORMER_RMSD>
0.6

> <PUBCHEM_CONFORMER_DIVERSEORDER>
1
3
2

> <PUBCHEM_MMFF94_PARTIAL_CHARGES>
26
1 -0.57
10 -0.15
11 -0.15
12 -0.15
13 -0.15
14 -0.15
15 -0.15
16 0.37
17 0.15
18 0.15
19 0.15
2 -0.55
20 0.15
21 0.15
22 0.15
23 0.15
24 0.15
25 0.15
26 0.15
3 0.09
4 0.12
5 0.54
6 -0.15
7 -0.15
8 -0.15
9 -0.15

> <PUBCHEM_EFFECTIVE_ROTOR_COUNT>
3

> <PUBCHEM_PHARMACOPHORE_FEATURES>
4
1 1 acceptor
1 2 donor
6 3 6 7 10 11 14 rings
6 4 8 9 12 13 15 rings

> <PUBCHEM_HEAVY_ATOM_COUNT>
15

> <PUBCHEM_ATOM_DEF_STEREO_COUNT>
0

> <PUBCHEM_ATOM_UDEF_STEREO_COUNT>
0

> <PUBCHEM_BOND_DEF_STEREO_COUNT>
0

> <PUBCHEM_BOND_UDEF_STEREO_COUNT>
0

> <PUBCHEM_ISOTOPIC_ATOM_COUNT>
0

> <PUBCHEM_COMPONENT_COUNT>
1

> <PUBCHEM_CACTVS_TAUTO_COUNT>
2

> <PUBCHEM_CONFORMER_ID>
00001C0000000001

> <PUBCHEM_MMFF94_ENERGY>
48.9787

> <PUBCHEM_FEATURE_SELFOVERLAP>
20.297

> <PUBCHEM_SHAPE_FINGERPRINT>
10014705 185 18040994029854186213
10680689 15 17894917308628510633
11471102 20 18341892996150238028
11615757 297 17489591181501054890
12032990 46 18411703192209524441
13167823 11 18333729104744131850
13296908 3 18410856563955888363
14252887 29 17417819426596102214
15196674 1 18410575088963359942
15375358 24 18410011039509152707
17834074 16 18410293618292341478
18186145 218 17821723931578772693
19141452 34 18342180007619705887
1986462 14 18259985959538676119
200 152 18060698381539695683
20279233 1 18409735057842982466
20645477 56 18114461159318459549
20645477 70 18271526407867250662
21079973 296 18261394480899045962
21267235 1 18411146830757333022
221490 88 18263088884183568266
22485316 2 18412261744169344559
23402539 116 17458337537854201508
23402655 69 18413108351311939780
23557571 272 17967527956588241381
23559900 14 18409726219232771522
26918003 58 18410570678300965946
2871803 45 18335701615888122066
3268164 11 16805312289198106199
33824 294 18411135827631551314
3545911 37 18409168809370372204
4214541 1 18409729530378354061
4921388 177 16443357506667693891
5104073 3 18411699863662625000
5374978 207 18412820279254939192
573450 72 17822559538946386113
69090 78 18411697699062806679
77779 3 18410013234226560156
8809292 202 18333735749169211235
9709674 26 18409736157328671694

> <PUBCHEM_SHAPE_MULTIPOLES>
297.84
10.09
1.59
0.66
0.7
0.02
0.01
1.46
0.5
0.01
-0.05
-0.08
0.01
0.57

> <PUBCHEM_SHAPE_SELFOVERLAP>
642.121

> <PUBCHEM_SHAPE_VOLUME>
162.9

> <PUBCHEM_COORDINATE_TYPE>
2
5
10

$$$$
