136322
  -OEChem-11012400323D

 32 33  0     0  0  0  0  0  0999 V2000
    1.5866   -1.9378   -0.0428 O   0  0  0  0  0  0  0  0  0  0  0  0
   -1.5622    1.9456   -0.0412 O   0  0  0  0  0  0  0  0  0  0  0  0
    0.7129    0.3119   -0.0518 C   0  0  0  0  0  0  0  0  0  0  0  0
   -0.6887   -0.3041   -0.0481 C   0  0  0  0  0  0  0  0  0  0  0  0
    1.8225   -0.7318   -0.0330 C   0  0  0  0  0  0  0  0  0  0  0  0
   -1.8346    0.7278   -0.0305 C   0  0  0  0  0  0  0  0  0  0  0  0
    3.2413   -0.2688   -0.0058 C   0  0  0  0  0  0  0  0  0  0  0  0
   -3.2171    0.2767   -0.0053 C   0  0  0  0  0  0  0  0  0  0  0  0
    3.4944    1.0838    0.0014 C   0  0  0  0  0  0  0  0  0  0  0  0
   -3.5065   -1.0878    0.0028 C   0  0  0  0  0  0  0  0  0  0  0  0
    4.2417   -1.2136    0.0126 C   0  0  0  0  0  0  0  0  0  0  0  0
   -4.2538    1.2096    0.0122 C   0  0  0  0  0  0  0  0  0  0  0  0
    4.8204    1.5153    0.0286 C   0  0  0  0  0  0  0  0  0  0  0  0
   -4.8326   -1.5192    0.0288 C   0  0  0  0  0  0  0  0  0  0  0  0
    5.5679   -0.7820    0.0399 C   0  0  0  0  0  0  0  0  0  0  0  0
   -5.5800    0.7781    0.0380 C   0  0  0  0  0  0  0  0  0  0  0  0
    5.8573    0.5825    0.0478 C   0  0  0  0  0  0  0  0  0  0  0  0
   -5.8695   -0.5864    0.0463 C   0  0  0  0  0  0  0  0  0  0  0  0
    0.8134    0.9477    0.8354 H   0  0  0  0  0  0  0  0  0  0  0  0
    0.8229    0.9282   -0.9515 H   0  0  0  0  0  0  0  0  0  0  0  0
   -0.7884   -0.9392    0.8402 H   0  0  0  0  0  0  0  0  0  0  0  0
   -0.8020   -0.9266   -0.9437 H   0  0  0  0  0  0  0  0  0  0  0  0
    2.7218    1.8437   -0.0143 H   0  0  0  0  0  0  0  0  0  0  0  0
   -2.7336   -1.8495   -0.0110 H   0  0  0  0  0  0  0  0  0  0  0  0
    4.0388   -2.2799    0.0073 H   0  0  0  0  0  0  0  0  0  0  0  0
   -4.0551    2.2780    0.0067 H   0  0  0  0  0  0  0  0  0  0  0  0
    5.0465    2.5777    0.0344 H   0  0  0  0  0  0  0  0  0  0  0  0
   -5.0587   -2.5816    0.0350 H   0  0  0  0  0  0  0  0  0  0  0  0
    6.3754   -1.5081    0.0550 H   0  0  0  0  0  0  0  0  0  0  0  0
   -6.3875    1.5043    0.0518 H   0  0  0  0  0  0  0  0  0  0  0  0
    6.8898    0.9186    0.0689 H   0  0  0  0  0  0  0  0  0  0  0  0
   -6.9021   -0.9224    0.0664 H   0  0  0  0  0  0  0  0  0  0  0  0
  1  5  2  0  0  0  0
  2  6  2  0  0  0  0
  3  4  1  0  0  0  0
  3  5  1  0  0  0  0
  3 19  1  0  0  0  0
  3 20  1  0  0  0  0
  4  6  1  0  0  0  0
  4 21  1  0  0  0  0
  4 22  1  0  0  0  0
  5  7  1  0  0  0  0
  6  8  1  0  0  0  0
  7  9  2  0  0  0  0
  7 11  1  0  0  0  0
  8 10  2  0  0  0  0
  8 12  1  0  0  0  0
  9 13  1  0  0  0  0
  9 23  1  0  0  0  0
 10 14  1  0  0  0  0
 10 24  1  0  0  0  0
 11 15  2  0  0  0  0
 11 25  1  0  0  0  0
 12 16  2  0  0  0  0
 12 26  1  0  0  0  0
 13 17  2  0  0  0  0
 13 27  1  0  0  0  0
 14 18  2  0  0  0  0
 14 28  1  0  0  0  0
 15 17  1  0  0  0  0
 15 29  1  0  0  0  0
 16 18  1  0  0  0  0
 16 30  1  0  0  0  0
 17 31  1  0  0  0  0
 18 32  1  0  0  0  0
M  END
> <PUBCHEM_COMPOUND_CID>
136322

> <PUBCHEM_CONFORMER_RMSD>
0.6

> <PUBCHEM_CONFORMER_DIVERSEORDER>
1
137
80
83
4
19
138
128
75
135
155
105
132
87
88
51
3
93
150
67
66
39
146
11
152
45
149
148
81
118
110
27
9
6
115
125
86
56
145
8
124
50
31
15
156
16
153
29
69
90
101
94
95
36
134
42
48
13
78
64
14
98
34
130
23
60
65
57
91
44
68
72
119
120
55
151
131
136
144
100
26
73
37
122
21
52
33
74
38
2
139
147
89
20
5
107
62
129
117
127
97
126
143
121
82
113
30
141
35
63
116
154
123
76
28
77
40
112
102
24
85
25
84
12
111
58
99
140
10
53
104
46
103
47
96
41
108
106
133
22
109
92
7
79
18
61
71
70
114
59
32
54
142
43
17
49

> <PUBCHEM_MMFF94_PARTIAL_CHARGES>
28
1 -0.57
10 -0.15
11 -0.15
12 -0.15
13 -0.15
14 -0.15
15 -0.15
16 -0.15
17 -0.15
18 -0.15
2 -0.57
23 0.15
24 0.15
25 0.15
26 0.15
27 0.15
28 0.15
29 0.15
3 0.06
30 0.15
31 0.15
32 0.15
4 0.06
5 0.42
6 0.42
7 0.09
8 0.09
9 -0.15

> <PUBCHEM_EFFECTIVE_ROTOR_COUNT>
5

> <PUBCHEM_PHARMACOPHORE_FEATURES>
4
1 1 acceptor
1 2 acceptor
6 7 9 11 13 15 17 rings
6 8 10 12 14 16 18 rings

> <PUBCHEM_HEAVY_ATOM_COUNT>
18

> <PUBCHEM_ATOM_DEF_STEREO_COUNT>
0

> <PUBCHEM_ATOM_UDEF_STEREO_COUNT>
0

> <PUBCHEM_BOND_DEF_STEREO_COUNT>
0

> <PUBCHEM_BOND_UDEF_STEREO_COUNT>
0

> <PUBCHEM_ISOTOPIC_ATOM_COUNT>
0

> <PUBCHEM_COMPONENT_COUNT>
1

> <PUBCHEM_CACTVS_TAUTO_COUNT>
3

> <PUBCHEM_CONFORMER_ID>
0002148200000001

> <PUBCHEM_MMFF94_ENERGY>
49.2899

> <PUBCHEM_FEATURE_SELFOVERLAP>
20.298

> <PUBCHEM_SHAPE_FINGERPRINT>
10 15 18339069498051981176
10595046 47 18410573993751967816
10968037 39 18410011048858437319
11287383 113 18410856568424929074
11315181 36 18272936033592930017
12107183 9 17618222806184525691
12166972 35 17967818249723784324
12236239 1 18410855460128161837
12516196 113 18131348626907213289
12916748 109 16272212981396553066
13167372 99 18271529689037615984
13167823 11 18409727339813281258
13288520 33 18410856568973470765
13533116 47 17240755134831776818
1420 363 18335707147589637107
14251732 16 18338516442658405611
14341114 176 18410579465830459708
14528608 73 18411139160156466260
14933364 13 18411703183698880020
15196674 1 18410575088958046222
15927050 60 17480015732536156684
17834072 33 18413670222796046526
17844677 252 18412270518798365656
18222031 100 16877944932312703678
19489759 90 16443061686510763509
200 152 18272088292626110089
20645477 70 18341615867865502150
21267235 1 18410863152430543158
220451 1 17967818223378655458
22224240 67 14707207756300560328
23035841 295 18408322181364708099
23402539 116 18260826003496697063
23536379 177 18410573976566791569
23557571 272 18339364067424056589
23559900 14 18339916121725988409
239999 70 18272376335025106710
300161 21 18187077335179998607
3004659 81 18408041793394394954
34797466 226 17632587079698985964
351380 180 18334858324955723088
3545911 37 18409731750770756204
4073 2 18041285451563912394
4214541 1 18410575055094478829
42788 4 18410855460133436546
4325135 7 18410575106143190461
4463277 17 18411982460005789017
474229 33 18411701001824150518
5104073 3 18410855442953568272
5283173 99 18041832909987210237
542803 24 18410291406373420161
5486654 2 18411704317586077054
59755656 215 18411424977746566238
59755656 520 17603581954468943778
67856867 119 18188777274250747613
7495541 125 17989201577419052840
77779 3 18411982433776834924

> <PUBCHEM_SHAPE_MULTIPOLES>
358.69
16.11
1.67
0.61
0.19
0
0
0.03
0.38
0
0
0
0
0.03

> <PUBCHEM_SHAPE_SELFOVERLAP>
765.125

> <PUBCHEM_SHAPE_VOLUME>
197.9

> <PUBCHEM_COORDINATE_TYPE>
2
5
10

$$$$
