700642
  -OEChem-11012401183D

 19 19  0     0  0  0  0  0  0999 V2000
   -0.7471   -2.5364    0.0422 Cl  0  0  0  0  0  0  0  0  0  0  0  0
    3.9012    0.2380   -1.1493 O   0  0  0  0  0  0  0  0  0  0  0  0
    3.5662    0.0207    1.0967 O   0  0  0  0  0  0  0  0  0  0  0  0
   -0.6845    0.1915    0.2430 C   0  0  0  0  0  0  0  0  0  0  0  0
   -1.4472   -0.9554    0.0218 C   0  0  0  0  0  0  0  0  0  0  0  0
   -1.2906    1.4476    0.2175 C   0  0  0  0  0  0  0  0  0  0  0  0
    0.7489    0.1333    0.5052 C   0  0  0  0  0  0  0  0  0  0  0  0
   -2.8158   -0.8460   -0.2249 C   0  0  0  0  0  0  0  0  0  0  0  0
   -2.6592    1.5568   -0.0292 C   0  0  0  0  0  0  0  0  0  0  0  0
   -3.4217    0.4101   -0.2505 C   0  0  0  0  0  0  0  0  0  0  0  0
    1.7144    0.2000   -0.4349 C   0  0  0  0  0  0  0  0  0  0  0  0
    3.1354    0.1398   -0.0377 C   0  0  0  0  0  0  0  0  0  0  0  0
   -0.7129    2.3530    0.3887 H   0  0  0  0  0  0  0  0  0  0  0  0
    1.0093    0.0313    1.5563 H   0  0  0  0  0  0  0  0  0  0  0  0
   -3.4249   -1.7294   -0.3994 H   0  0  0  0  0  0  0  0  0  0  0  0
   -3.1312    2.5348   -0.0490 H   0  0  0  0  0  0  0  0  0  0  0  0
   -4.4873    0.4954   -0.4426 H   0  0  0  0  0  0  0  0  0  0  0  0
    1.4715    0.3029   -1.4875 H   0  0  0  0  0  0  0  0  0  0  0  0
    4.8590    0.2027   -0.9400 H   0  0  0  0  0  0  0  0  0  0  0  0
  1  5  1  0  0  0  0
  2 12  1  0  0  0  0
  2 19  1  0  0  0  0
  3 12  2  0  0  0  0
  4  5  1  0  0  0  0
  4  6  2  0  0  0  0
  4  7  1  0  0  0  0
  5  8  2  0  0  0  0
  6  9  1  0  0  0  0
  6 13  1  0  0  0  0
  7 11  2  0  0  0  0
  7 14  1  0  0  0  0
  8 10  1  0  0  0  0
  8 15  1  0  0  0  0
  9 10  2  0  0  0  0
  9 16  1  0  0  0  0
 10 17  1  0  0  0  0
 11 12  1  0  0  0  0
 11 18  1  0  0  0  0
M  END
> <PUBCHEM_COMPOUND_CID>
700642

> <PUBCHEM_CONFORMER_RMSD>
0.6

> <PUBCHEM_CONFORMER_DIVERSEORDER>
1
3
2

> <PUBCHEM_MMFF94_PARTIAL_CHARGES>
19
1 -0.18
10 -0.15
11 -0.14
12 0.71
13 0.15
14 0.15
15 0.15
16 0.15
17 0.15
18 0.15
19 0.5
2 -0.65
3 -0.57
4 0.03
5 0.18
6 -0.15
7 -0.18
8 -0.15
9 -0.15

> <PUBCHEM_EFFECTIVE_ROTOR_COUNT>
2

> <PUBCHEM_PHARMACOPHORE_FEATURES>
4
1 2 acceptor
1 3 acceptor
3 2 3 12 anion
6 4 5 6 8 9 10 rings

> <PUBCHEM_HEAVY_ATOM_COUNT>
12

> <PUBCHEM_ATOM_DEF_STEREO_COUNT>
0

> <PUBCHEM_ATOM_UDEF_STEREO_COUNT>
0

> <PUBCHEM_BOND_DEF_STEREO_COUNT>
1

> <PUBCHEM_BOND_UDEF_STEREO_COUNT>
0

> <PUBCHEM_ISOTOPIC_ATOM_COUNT>
0

> <PUBCHEM_COMPONENT_COUNT>
1

> <PUBCHEM_CACTVS_TAUTO_COUNT>
1

> <PUBCHEM_CONFORMER_ID>
000AB0E200000001

> <PUBCHEM_MMFF94_ENERGY>
30.9667

> <PUBCHEM_FEATURE_SELFOVERLAP>
20.353

> <PUBCHEM_SHAPE_FINGERPRINT>
12716758 59 18341893012802651707
12932764 1 17749102314230909772
13024252 1 12685090393580776997
13380535 76 18411697656065693423
14144814 61 18334293162920129472
14325111 11 18410855417199659344
14614273 12 18189610549841125533
14993402 34 18259703406456751957
15669948 3 18336546126717580518
15775835 57 18040436564072783276
16945 1 18411418440404927539
18186145 218 17988926630581739280
20201158 50 17846782905487962438
20279233 1 17775284976170173134
20510252 161 18273215296234325953
20645476 183 17967821582069629966
20645477 56 18411139155951455488
20645477 70 16702028543778165828
20871998 184 18200036282046115303
23402539 116 18342162376224795357
23463225 33 18189046504317589762
23559900 14 18273494564283277912
2748010 2 18267313027790876911
43471831 8 18336261250169411379
6333449 129 18342453751101103473
7364860 26 17982447092558539615
77492 1 17749383767505755328

> <PUBCHEM_SHAPE_MULTIPOLES>
237.09
6.2
1.77
0.82
5.09
1.03
0.01
-1.27
0.74
-1.39
-0.05
0.57
-0.03
-0.1

> <PUBCHEM_SHAPE_SELFOVERLAP>
484.518

> <PUBCHEM_SHAPE_VOLUME>
137.4

> <PUBCHEM_COORDINATE_TYPE>
2
5
10

$$$$
