138839
  -OEChem-11012400473D

 63 63  0     0  0  0  0  0  0999 V2000
   -7.9739   -0.1243   -0.3439 C   0  0  0  0  0  0  0  0  0  0  0  0
   -8.1806    1.1807    0.4183 C   0  0  0  0  0  0  0  0  0  0  0  0
   -9.2355   -0.9080    0.0046 C   0  0  0  0  0  0  0  0  0  0  0  0
   -9.6628    1.4861    0.2290 C   0  0  0  0  0  0  0  0  0  0  0  0
  -10.3436    0.1402   -0.0255 C   0  0  0  0  0  0  0  0  0  0  0  0
   -6.6947   -0.8466    0.0414 C   0  0  0  0  0  0  0  0  0  0  0  0
   -5.4580   -0.0424   -0.3596 C   0  0  0  0  0  0  0  0  0  0  0  0
   -4.1413   -0.6850    0.0871 C   0  0  0  0  0  0  0  0  0  0  0  0
   -2.8688    0.1036   -0.2381 C   0  0  0  0  0  0  0  0  0  0  0  0
   -1.5827   -0.6263    0.1542 C   0  0  0  0  0  0  0  0  0  0  0  0
   -0.3472    0.2191   -0.1632 C   0  0  0  0  0  0  0  0  0  0  0  0
    0.9414   -0.5219    0.1980 C   0  0  0  0  0  0  0  0  0  0  0  0
    2.1782    0.3097   -0.1502 C   0  0  0  0  0  0  0  0  0  0  0  0
    3.4658   -0.4473    0.1826 C   0  0  0  0  0  0  0  0  0  0  0  0
    4.7373    0.3276   -0.1747 C   0  0  0  0  0  0  0  0  0  0  0  0
    6.0247   -0.4394    0.1354 C   0  0  0  0  0  0  0  0  0  0  0  0
    7.2624    0.4082   -0.1724 C   0  0  0  0  0  0  0  0  0  0  0  0
    8.5490   -0.3445    0.1731 C   0  0  0  0  0  0  0  0  0  0  0  0
    9.8216    0.4498   -0.1366 C   0  0  0  0  0  0  0  0  0  0  0  0
   11.1403   -0.2457    0.2093 C   0  0  0  0  0  0  0  0  0  0  0  0
   12.3685    0.6065   -0.0686 C   0  0  0  0  0  0  0  0  0  0  0  0
   -7.9712    0.0822   -1.4231 H   0  0  0  0  0  0  0  0  0  0  0  0
   -7.9624    1.0523    1.4856 H   0  0  0  0  0  0  0  0  0  0  0  0
   -7.5586    1.9983    0.0415 H   0  0  0  0  0  0  0  0  0  0  0  0
   -9.4259   -1.7259   -0.6972 H   0  0  0  0  0  0  0  0  0  0  0  0
   -9.1623   -1.3391    1.0107 H   0  0  0  0  0  0  0  0  0  0  0  0
  -10.0802    1.9955    1.1035 H   0  0  0  0  0  0  0  0  0  0  0  0
   -9.8095    2.1442   -0.6354 H   0  0  0  0  0  0  0  0  0  0  0  0
  -10.8328    0.1514   -1.0064 H   0  0  0  0  0  0  0  0  0  0  0  0
  -11.1138   -0.0743    0.7223 H   0  0  0  0  0  0  0  0  0  0  0  0
   -6.6633   -1.8265   -0.4506 H   0  0  0  0  0  0  0  0  0  0  0  0
   -6.6759   -1.0354    1.1220 H   0  0  0  0  0  0  0  0  0  0  0  0
   -5.5031    0.9611    0.0781 H   0  0  0  0  0  0  0  0  0  0  0  0
   -5.4430    0.0875   -1.4487 H   0  0  0  0  0  0  0  0  0  0  0  0
   -4.1789   -0.8509    1.1714 H   0  0  0  0  0  0  0  0  0  0  0  0
   -4.0671   -1.6782   -0.3741 H   0  0  0  0  0  0  0  0  0  0  0  0
   -2.9113    1.0722    0.2751 H   0  0  0  0  0  0  0  0  0  0  0  0
   -2.8482    0.3165   -1.3141 H   0  0  0  0  0  0  0  0  0  0  0  0
   -1.6046   -0.8584    1.2258 H   0  0  0  0  0  0  0  0  0  0  0  0
   -1.5267   -1.5808   -0.3829 H   0  0  0  0  0  0  0  0  0  0  0  0
   -0.3391    0.4688   -1.2312 H   0  0  0  0  0  0  0  0  0  0  0  0
   -0.3954    1.1650    0.3899 H   0  0  0  0  0  0  0  0  0  0  0  0
    0.9781   -1.4763   -0.3414 H   0  0  0  0  0  0  0  0  0  0  0  0
    0.9440   -0.7556    1.2695 H   0  0  0  0  0  0  0  0  0  0  0  0
    2.1668    0.5575   -1.2185 H   0  0  0  0  0  0  0  0  0  0  0  0
    2.1556    1.2566    0.4023 H   0  0  0  0  0  0  0  0  0  0  0  0
    3.4708   -1.4044   -0.3537 H   0  0  0  0  0  0  0  0  0  0  0  0
    3.4795   -0.6848    1.2536 H   0  0  0  0  0  0  0  0  0  0  0  0
    4.7171    0.5804   -1.2421 H   0  0  0  0  0  0  0  0  0  0  0  0
    4.7390    1.2771    0.3752 H   0  0  0  0  0  0  0  0  0  0  0  0
    6.0518   -1.3648   -0.4523 H   0  0  0  0  0  0  0  0  0  0  0  0
    6.0313   -0.7272    1.1936 H   0  0  0  0  0  0  0  0  0  0  0  0
    7.2229    1.3432    0.3993 H   0  0  0  0  0  0  0  0  0  0  0  0
    7.2686    0.6781   -1.2353 H   0  0  0  0  0  0  0  0  0  0  0  0
    8.5778   -1.2901   -0.3823 H   0  0  0  0  0  0  0  0  0  0  0  0
    8.5419   -0.6039    1.2389 H   0  0  0  0  0  0  0  0  0  0  0  0
    9.8276    0.7029   -1.2045 H   0  0  0  0  0  0  0  0  0  0  0  0
    9.7769    1.4031    0.4055 H   0  0  0  0  0  0  0  0  0  0  0  0
   11.1348   -0.5219    1.2704 H   0  0  0  0  0  0  0  0  0  0  0  0
   11.2163   -1.1789   -0.3611 H   0  0  0  0  0  0  0  0  0  0  0  0
   12.3433    1.5305    0.5177 H   0  0  0  0  0  0  0  0  0  0  0  0
   12.4261    0.8737   -1.1284 H   0  0  0  0  0  0  0  0  0  0  0  0
   13.2789    0.0596    0.1956 H   0  0  0  0  0  0  0  0  0  0  0  0
  1  2  1  0  0  0  0
  1  3  1  0  0  0  0
  1  6  1  0  0  0  0
  1 22  1  0  0  0  0
  2  4  1  0  0  0  0
  2 23  1  0  0  0  0
  2 24  1  0  0  0  0
  3  5  1  0  0  0  0
  3 25  1  0  0  0  0
  3 26  1  0  0  0  0
  4  5  1  0  0  0  0
  4 27  1  0  0  0  0
  4 28  1  0  0  0  0
  5 29  1  0  0  0  0
  5 30  1  0  0  0  0
  6  7  1  0  0  0  0
  6 31  1  0  0  0  0
  6 32  1  0  0  0  0
  7  8  1  0  0  0  0
  7 33  1  0  0  0  0
  7 34  1  0  0  0  0
  8  9  1  0  0  0  0
  8 35  1  0  0  0  0
  8 36  1  0  0  0  0
  9 10  1  0  0  0  0
  9 37  1  0  0  0  0
  9 38  1  0  0  0  0
 10 11  1  0  0  0  0
 10 39  1  0  0  0  0
 10 40  1  0  0  0  0
 11 12  1  0  0  0  0
 11 41  1  0  0  0  0
 11 42  1  0  0  0  0
 12 13  1  0  0  0  0
 12 43  1  0  0  0  0
 12 44  1  0  0  0  0
 13 14  1  0  0  0  0
 13 45  1  0  0  0  0
 13 46  1  0  0  0  0
 14 15  1  0  0  0  0
 14 47  1  0  0  0  0
 14 48  1  0  0  0  0
 15 16  1  0  0  0  0
 15 49  1  0  0  0  0
 15 50  1  0  0  0  0
 16 17  1  0  0  0  0
 16 51  1  0  0  0  0
 16 52  1  0  0  0  0
 17 18  1  0  0  0  0
 17 53  1  0  0  0  0
 17 54  1  0  0  0  0
 18 19  1  0  0  0  0
 18 55  1  0  0  0  0
 18 56  1  0  0  0  0
 19 20  1  0  0  0  0
 19 57  1  0  0  0  0
 19 58  1  0  0  0  0
 20 21  1  0  0  0  0
 20 59  1  0  0  0  0
 20 60  1  0  0  0  0
 21 61  1  0  0  0  0
 21 62  1  0  0  0  0
 21 63  1  0  0  0  0
M  END
> <PUBCHEM_COMPOUND_CID>
138839

> <PUBCHEM_CONFORMER_RMSD>
1.4

> <PUBCHEM_CONFORMER_DIVERSEORDER>
1
91
31
62
20
27
43
44
8
78
56
46
74
38
28
37
13
87
51
26
5
41
67
76
57
80
88
61
63
49
68
4
24
72
21
71
40
90
93
95
34
81
59
18
89
36
6
16
19
42
35
32
84
15
33
29
94
25
30
55
45
53
9
14
11
69
52
73
12
86
64
65
75
22
70
79
47
23
60
3
50
66
82
39
7
83
17
92
48
77
58
2
54
10
85

> <PUBCHEM_MMFF94_PARTIAL_CHARGES>
0

> <PUBCHEM_EFFECTIVE_ROTOR_COUNT>
16

> <PUBCHEM_PHARMACOPHORE_FEATURES>
2
1 21 hydrophobe
5 1 2 3 4 5 rings

> <PUBCHEM_HEAVY_ATOM_COUNT>
21

> <PUBCHEM_ATOM_DEF_STEREO_COUNT>
0

> <PUBCHEM_ATOM_UDEF_STEREO_COUNT>
0

> <PUBCHEM_BOND_DEF_STEREO_COUNT>
0

> <PUBCHEM_BOND_UDEF_STEREO_COUNT>
0

> <PUBCHEM_ISOTOPIC_ATOM_COUNT>
0

> <PUBCHEM_COMPONENT_COUNT>
1

> <PUBCHEM_CACTVS_TAUTO_COUNT>
1

> <PUBCHEM_CONFORMER_ID>
00021E5700000001

> <PUBCHEM_MMFF94_ENERGY>
4.9865

> <PUBCHEM_FEATURE_SELFOVERLAP>
10.148

> <PUBCHEM_SHAPE_FINGERPRINT>
12498461 61 14057012641958240761
14251764 46 18410573989451699686
14251920 1 18410573985151457639
15061470 23 18411135831773524756
15510794 2 18342179964010974966
155225 1 18410855455838482248
21362267 2 18261660584879999300
21362267 313 18339077060945927498
232437 2 18113053839973815362
23521765 1 18342175570796877495
23528940 14 18339082710015858091
23581129 1 18409448089539588814
33684 2 18261110777282616990
57676310 188 17748820822724034931
59521270 166 18343581824794096375
67123 10 18410573989451699702
8209 1 18272932725840318855
9663363 56 16845573114703624592

> <PUBCHEM_SHAPE_MULTIPOLES>
432.17
52.74
0.99
0.66
56.92
0.15
0
8.8
1.18
-1.71
0.06
-0.1
0.01
-0.51

> <PUBCHEM_SHAPE_SELFOVERLAP>
801.257

> <PUBCHEM_SHAPE_VOLUME>
269.9

> <PUBCHEM_COORDINATE_TYPE>
2
5
10

$$$$
