6432471
  -OEChem-11012401013D

 27 27  0     1  0  0  0  0  0999 V2000
    0.6062    0.0187    0.2008 C   0  0  1  0  0  0  0  0  0  0  0  0
   -0.4266    1.0641   -0.2888 C   0  0  1  0  0  0  0  0  0  0  0  0
    0.1826   -1.4011   -0.2133 C   0  0  0  0  0  0  0  0  0  0  0  0
   -1.8414    0.6989    0.1931 C   0  0  0  0  0  0  0  0  0  0  0  0
   -1.2250   -1.7413    0.2645 C   0  0  0  0  0  0  0  0  0  0  0  0
   -2.2399   -0.7140   -0.2191 C   0  0  0  0  0  0  0  0  0  0  0  0
    2.0177    0.2989   -0.3226 C   0  0  0  0  0  0  0  0  0  0  0  0
   -0.0862    2.4848    0.1701 C   0  0  0  0  0  0  0  0  0  0  0  0
    3.0126   -0.7090    0.2152 C   0  0  0  0  0  0  0  0  0  0  0  0
    0.6322    0.0571    1.2993 H   0  0  0  0  0  0  0  0  0  0  0  0
   -0.4335    1.0618   -1.3875 H   0  0  0  0  0  0  0  0  0  0  0  0
    0.8540   -2.1550    0.2101 H   0  0  0  0  0  0  0  0  0  0  0  0
    0.2299   -1.5032   -1.3051 H   0  0  0  0  0  0  0  0  0  0  0  0
   -2.5703    1.4086   -0.2166 H   0  0  0  0  0  0  0  0  0  0  0  0
   -1.8954    0.7853    1.2861 H   0  0  0  0  0  0  0  0  0  0  0  0
   -1.2399   -1.7839    1.3606 H   0  0  0  0  0  0  0  0  0  0  0  0
   -1.5073   -2.7363   -0.0976 H   0  0  0  0  0  0  0  0  0  0  0  0
   -2.3238   -0.7668   -1.3115 H   0  0  0  0  0  0  0  0  0  0  0  0
   -3.2287   -0.9521    0.1891 H   0  0  0  0  0  0  0  0  0  0  0  0
    2.3478    1.2918    0.0002 H   0  0  0  0  0  0  0  0  0  0  0  0
    2.0381    0.2937   -1.4186 H   0  0  0  0  0  0  0  0  0  0  0  0
    0.0450    2.5308    1.2564 H   0  0  0  0  0  0  0  0  0  0  0  0
    0.8293    2.8513   -0.3031 H   0  0  0  0  0  0  0  0  0  0  0  0
   -0.8857    3.1826   -0.1026 H   0  0  0  0  0  0  0  0  0  0  0  0
    2.9206   -0.8326    1.2991 H   0  0  0  0  0  0  0  0  0  0  0  0
    2.9099   -1.6869   -0.2641 H   0  0  0  0  0  0  0  0  0  0  0  0
    4.0323   -0.3663    0.0073 H   0  0  0  0  0  0  0  0  0  0  0  0
  1  2  1  0  0  0  0
  1  3  1  0  0  0  0
  1  7  1  0  0  0  0
  1 10  1  0  0  0  0
  2  4  1  0  0  0  0
  2  8  1  0  0  0  0
  2 11  1  0  0  0  0
  3  5  1  0  0  0  0
  3 12  1  0  0  0  0
  3 13  1  0  0  0  0
  4  6  1  0  0  0  0
  4 14  1  0  0  0  0
  4 15  1  0  0  0  0
  5  6  1  0  0  0  0
  5 16  1  0  0  0  0
  5 17  1  0  0  0  0
  6 18  1  0  0  0  0
  6 19  1  0  0  0  0
  7  9  1  0  0  0  0
  7 20  1  0  0  0  0
  7 21  1  0  0  0  0
  8 22  1  0  0  0  0
  8 23  1  0  0  0  0
  8 24  1  0  0  0  0
  9 25  1  0  0  0  0
  9 26  1  0  0  0  0
  9 27  1  0  0  0  0
M  END
> <PUBCHEM_COMPOUND_CID>
6432471

> <PUBCHEM_CONFORMER_RMSD>
0.4

> <PUBCHEM_CONFORMER_DIVERSEORDER>
1
10
7
11
9
6
12
2
5
4
3
8

> <PUBCHEM_MMFF94_PARTIAL_CHARGES>
0

> <PUBCHEM_EFFECTIVE_ROTOR_COUNT>
2.2

> <PUBCHEM_PHARMACOPHORE_FEATURES>
2
1 9 hydrophobe
6 1 2 3 4 5 6 rings

> <PUBCHEM_HEAVY_ATOM_COUNT>
9

> <PUBCHEM_ATOM_DEF_STEREO_COUNT>
2

> <PUBCHEM_ATOM_UDEF_STEREO_COUNT>
0

> <PUBCHEM_BOND_DEF_STEREO_COUNT>
0

> <PUBCHEM_BOND_UDEF_STEREO_COUNT>
0

> <PUBCHEM_ISOTOPIC_ATOM_COUNT>
0

> <PUBCHEM_COMPONENT_COUNT>
1

> <PUBCHEM_CACTVS_TAUTO_COUNT>
1

> <PUBCHEM_CONFORMER_ID>
006226D700000001

> <PUBCHEM_MMFF94_ENERGY>
8.2514

> <PUBCHEM_FEATURE_SELFOVERLAP>
10.148

> <PUBCHEM_SHAPE_FINGERPRINT>
10857977 72 18341320184630061024
16714656 1 18410294687739016302
16945 1 18339083674725921478
18185500 45 18336265742377570479
193761 8 17834394905593849903
20871998 184 18272370871267289974
21040471 1 17978514126665056796
23552423 10 17830457545738080197
23552449 1 18411699885348535040
241688 4 18411133666766772273
2748010 2 18339358681460778916
5084963 1 18201154330736455194
66348 1 18194967563210991436

> <PUBCHEM_SHAPE_MULTIPOLES>
185.22
3.24
2.16
0.67
1.82
0.91
0
-0.99
0.07
-0.52
0.13
0.01
0
-0.06

> <PUBCHEM_SHAPE_SELFOVERLAP>
351.566

> <PUBCHEM_SHAPE_VOLUME>
114.3

> <PUBCHEM_COORDINATE_TYPE>
2
5
10

$$$$
