70999
  -OEChem-11012401033D

 22 22  0     0  0  0  0  0  0999 V2000
   -1.1498    2.8609    0.0003 O   0  5  0  0  0  0  0  0  0  0  0  0
   -2.8482    1.4699   -0.0003 O   0  0  0  0  0  0  0  0  0  0  0  0
    3.7507   -0.9397    0.0002 O   0  5  0  0  0  0  0  0  0  0  0  0
    3.3608    1.2207   -0.0004 O   0  0  0  0  0  0  0  0  0  0  0  0
   -1.6152    1.6969    0.0002 N   0  3  0  0  0  0  0  0  0  0  0  0
    2.9574    0.0325    0.0001 N   0  3  0  0  0  0  0  0  0  0  0  0
   -1.1851   -0.7164   -0.0001 C   0  0  0  0  0  0  0  0  0  0  0  0
   -2.6493   -1.0171   -0.0001 C   0  0  0  0  0  0  0  0  0  0  0  0
   -0.7140    0.5965    0.0000 C   0  0  0  0  0  0  0  0  0  0  0  0
   -0.2837   -1.7809    0.0001 C   0  0  0  0  0  0  0  0  0  0  0  0
    0.6585    0.8449    0.0001 C   0  0  0  0  0  0  0  0  0  0  0  0
    1.5600   -0.2196    0.0000 C   0  0  0  0  0  0  0  0  0  0  0  0
    1.0888   -1.5325    0.0000 C   0  0  0  0  0  0  0  0  0  0  0  0
   -2.9309   -2.5161    0.0000 C   0  0  0  0  0  0  0  0  0  0  0  0
   -3.1253   -0.6210    0.9044 H   0  0  0  0  0  0  0  0  0  0  0  0
   -3.1252   -0.6210   -0.9046 H   0  0  0  0  0  0  0  0  0  0  0  0
   -0.5693   -2.8261    0.0001 H   0  0  0  0  0  0  0  0  0  0  0  0
    1.0296    1.8671    0.0001 H   0  0  0  0  0  0  0  0  0  0  0  0
    1.7627   -2.3857    0.0000 H   0  0  0  0  0  0  0  0  0  0  0  0
   -2.5485   -3.0155   -0.8973 H   0  0  0  0  0  0  0  0  0  0  0  0
   -4.0164   -2.6732    0.0000 H   0  0  0  0  0  0  0  0  0  0  0  0
   -2.5486   -3.0153    0.8975 H   0  0  0  0  0  0  0  0  0  0  0  0
  1  5  1  0  0  0  0
  2  5  2  0  0  0  0
  3  6  1  0  0  0  0
  4  6  2  0  0  0  0
  5  9  1  0  0  0  0
  6 12  1  0  0  0  0
  7  8  1  0  0  0  0
  7  9  2  0  0  0  0
  7 10  1  0  0  0  0
  8 14  1  0  0  0  0
  8 15  1  0  0  0  0
  8 16  1  0  0  0  0
  9 11  1  0  0  0  0
 10 13  2  0  0  0  0
 10 17  1  0  0  0  0
 11 12  2  0  0  0  0
 11 18  1  0  0  0  0
 12 13  1  0  0  0  0
 13 19  1  0  0  0  0
 14 20  1  0  0  0  0
 14 21  1  0  0  0  0
 14 22  1  0  0  0  0
M  CHG  4   1  -1   3  -1   5   1   6   1
M  END
> <PUBCHEM_COMPOUND_CID>
70999

> <PUBCHEM_CONFORMER_RMSD>
0.6

> <PUBCHEM_CONFORMER_DIVERSEORDER>
1

> <PUBCHEM_MMFF94_PARTIAL_CHARGES>
16
1 -0.52
10 -0.15
11 -0.15
12 0.13
13 -0.15
17 0.15
18 0.15
19 0.15
2 -0.52
3 -0.52
4 -0.52
5 0.91
6 0.91
7 -0.14
8 0.14
9 0.13

> <PUBCHEM_EFFECTIVE_ROTOR_COUNT>
3

> <PUBCHEM_PHARMACOPHORE_FEATURES>
8
1 1 acceptor
1 1 anion
1 14 hydrophobe
1 2 acceptor
1 3 acceptor
1 3 anion
1 4 acceptor
6 7 9 10 11 12 13 rings

> <PUBCHEM_HEAVY_ATOM_COUNT>
14

> <PUBCHEM_ATOM_DEF_STEREO_COUNT>
0

> <PUBCHEM_ATOM_UDEF_STEREO_COUNT>
0

> <PUBCHEM_BOND_DEF_STEREO_COUNT>
0

> <PUBCHEM_BOND_UDEF_STEREO_COUNT>
0

> <PUBCHEM_ISOTOPIC_ATOM_COUNT>
0

> <PUBCHEM_COMPONENT_COUNT>
1

> <PUBCHEM_CACTVS_TAUTO_COUNT>
1

> <PUBCHEM_CONFORMER_ID>
0001155700000001

> <PUBCHEM_MMFF94_ENERGY>
53.1694

> <PUBCHEM_FEATURE_SELFOVERLAP>
40.76

> <PUBCHEM_SHAPE_FINGERPRINT>
1 1 17328866496167327965
10608611 8 18413386519164007816
108231 29 17972604560930286987
10967382 1 18266740173389390407
11132069 177 18412541015759111448
11206711 2 18410574006710736039
12032990 46 18265901439233533507
13380535 21 18269567039153984319
13380535 76 18268424625235045231
14325111 11 18410575085063960066
14614273 12 18187636969165414767
16945 1 18266459797834688711
193761 8 18194683665999833031
20510252 161 18342176699972285144
20871998 184 18273217525301181967
21296965 67 18267865180217666851
21501502 16 18337669711521110010
21524375 3 17900544479931863657
22802520 49 18057901164008667190
2334 1 18266741461842896301
23402539 116 18270390723761124614
23557571 272 18200325410690983558
23559900 14 18128254490219316670
25610 137 18264209286548206518
2748010 2 18268136737977611125
3071541 158 17900533781505666989
54173680 148 18410012126283558683
6333449 129 18412261701356633293
81228 2 18336841843779302227

> <PUBCHEM_SHAPE_MULTIPOLES>
254.67
5.04
2.62
0.58
2.83
1.02
0
-1.28
0
-1.86
0
-0.04
-0.05
0

> <PUBCHEM_SHAPE_SELFOVERLAP>
535.36

> <PUBCHEM_SHAPE_VOLUME>
144.6

> <PUBCHEM_COORDINATE_TYPE>
2
5
10

$$$$
