143210
  -OEChem-11012400293D

 40 41  0     1  0  0  0  0  0999 V2000
    1.1044    0.2967    0.4818 C   0  0  1  0  0  0  0  0  0  0  0  0
   -1.3447    0.3683   -0.1146 C   0  0  0  0  0  0  0  0  0  0  0  0
   -0.1284    1.1864    0.3151 C   0  0  0  0  0  0  0  0  0  0  0  0
    1.4240   -0.5353   -0.7844 C   0  0  2  0  0  0  0  0  0  0  0  0
    2.3096    1.1295    0.9461 C   0  0  0  0  0  0  0  0  0  0  0  0
    2.6851   -1.3864   -0.5522 C   0  0  0  0  0  0  0  0  0  0  0  0
   -1.6648   -0.7140    0.9254 C   0  0  0  0  0  0  0  0  0  0  0  0
   -2.5574    1.2803   -0.3450 C   0  0  0  0  0  0  0  0  0  0  0  0
    3.5506    0.2643    1.1498 C   0  0  0  0  0  0  0  0  0  0  0  0
    3.8830   -0.5605   -0.0887 C   0  0  0  0  0  0  0  0  0  0  0  0
   -2.9099   -1.5114    0.5441 C   0  0  0  0  0  0  0  0  0  0  0  0
   -3.8010    0.4795   -0.7240 C   0  0  0  0  0  0  0  0  0  0  0  0
   -4.1109   -0.6010    0.3074 C   0  0  0  0  0  0  0  0  0  0  0  0
    1.5604    0.3036   -2.0609 C   0  0  0  0  0  0  0  0  0  0  0  0
    0.9211   -0.4087    1.3022 H   0  0  0  0  0  0  0  0  0  0  0  0
   -1.1547   -0.1211   -1.0761 H   0  0  0  0  0  0  0  0  0  0  0  0
    0.0669    1.9821   -0.4140 H   0  0  0  0  0  0  0  0  0  0  0  0
   -0.3408    1.6933    1.2657 H   0  0  0  0  0  0  0  0  0  0  0  0
    0.6187   -1.2579   -0.9608 H   0  0  0  0  0  0  0  0  0  0  0  0
    2.0712    1.6355    1.8898 H   0  0  0  0  0  0  0  0  0  0  0  0
    2.5311    1.9187    0.2176 H   0  0  0  0  0  0  0  0  0  0  0  0
    2.9487   -1.9339   -1.4650 H   0  0  0  0  0  0  0  0  0  0  0  0
    2.4645   -2.1451    0.2102 H   0  0  0  0  0  0  0  0  0  0  0  0
   -1.8155   -0.2562    1.9112 H   0  0  0  0  0  0  0  0  0  0  0  0
   -0.8488   -1.4354    1.0256 H   0  0  0  0  0  0  0  0  0  0  0  0
   -2.3373    2.0026   -1.1402 H   0  0  0  0  0  0  0  0  0  0  0  0
   -2.7659    1.8608    0.5628 H   0  0  0  0  0  0  0  0  0  0  0  0
    3.3873   -0.4090    2.0006 H   0  0  0  0  0  0  0  0  0  0  0  0
    4.4044    0.9004    1.4091 H   0  0  0  0  0  0  0  0  0  0  0  0
    4.2147    0.1036   -0.8952 H   0  0  0  0  0  0  0  0  0  0  0  0
    4.7233   -1.2286    0.1326 H   0  0  0  0  0  0  0  0  0  0  0  0
   -3.1445   -2.2305    1.3371 H   0  0  0  0  0  0  0  0  0  0  0  0
   -2.7076   -2.0922   -0.3643 H   0  0  0  0  0  0  0  0  0  0  0  0
   -3.6506    0.0146   -1.7062 H   0  0  0  0  0  0  0  0  0  0  0  0
   -4.6589    1.1548   -0.8189 H   0  0  0  0  0  0  0  0  0  0  0  0
   -4.9659   -1.1980   -0.0290 H   0  0  0  0  0  0  0  0  0  0  0  0
   -4.4028   -0.1290    1.2536 H   0  0  0  0  0  0  0  0  0  0  0  0
    1.8443   -0.3316   -2.9074 H   0  0  0  0  0  0  0  0  0  0  0  0
    0.6177    0.7877   -2.3314 H   0  0  0  0  0  0  0  0  0  0  0  0
    2.3209    1.0838   -1.9642 H   0  0  0  0  0  0  0  0  0  0  0  0
  1  3  1  0  0  0  0
  1  4  1  0  0  0  0
  1  5  1  0  0  0  0
  1 15  1  0  0  0  0
  2  3  1  0  0  0  0
  2  7  1  0  0  0  0
  2  8  1  0  0  0  0
  2 16  1  0  0  0  0
  3 17  1  0  0  0  0
  3 18  1  0  0  0  0
  4  6  1  0  0  0  0
  4 14  1  0  0  0  0
  4 19  1  0  0  0  0
  5  9  1  0  0  0  0
  5 20  1  0  0  0  0
  5 21  1  0  0  0  0
  6 10  1  0  0  0  0
  6 22  1  0  0  0  0
  6 23  1  0  0  0  0
  7 11  1  0  0  0  0
  7 24  1  0  0  0  0
  7 25  1  0  0  0  0
  8 12  1  0  0  0  0
  8 26  1  0  0  0  0
  8 27  1  0  0  0  0
  9 10  1  0  0  0  0
  9 28  1  0  0  0  0
  9 29  1  0  0  0  0
 10 30  1  0  0  0  0
 10 31  1  0  0  0  0
 11 13  1  0  0  0  0
 11 32  1  0  0  0  0
 11 33  1  0  0  0  0
 12 13  1  0  0  0  0
 12 34  1  0  0  0  0
 12 35  1  0  0  0  0
 13 36  1  0  0  0  0
 13 37  1  0  0  0  0
 14 38  1  0  0  0  0
 14 39  1  0  0  0  0
 14 40  1  0  0  0  0
M  END
> <PUBCHEM_COMPOUND_CID>
143210

> <PUBCHEM_CONFORMER_RMSD>
0.6

> <PUBCHEM_CONFORMER_DIVERSEORDER>
6
16
20
1
19
15
14
17
5
3
8
24
23
18
13
21
7
22
4
11
12
2
9
10

> <PUBCHEM_MMFF94_PARTIAL_CHARGES>
0

> <PUBCHEM_EFFECTIVE_ROTOR_COUNT>
4.4

> <PUBCHEM_PHARMACOPHORE_FEATURES>
2
6 1 4 5 6 9 10 rings
6 2 7 8 11 12 13 rings

> <PUBCHEM_HEAVY_ATOM_COUNT>
14

> <PUBCHEM_ATOM_DEF_STEREO_COUNT>
0

> <PUBCHEM_ATOM_UDEF_STEREO_COUNT>
2

> <PUBCHEM_BOND_DEF_STEREO_COUNT>
0

> <PUBCHEM_BOND_UDEF_STEREO_COUNT>
0

> <PUBCHEM_ISOTOPIC_ATOM_COUNT>
0

> <PUBCHEM_COMPONENT_COUNT>
1

> <PUBCHEM_CACTVS_TAUTO_COUNT>
1

> <PUBCHEM_CONFORMER_ID>
00022F6A00000006

> <PUBCHEM_MMFF94_ENERGY>
16.3873

> <PUBCHEM_FEATURE_SELFOVERLAP>
10.149

> <PUBCHEM_SHAPE_FINGERPRINT>
10219947 1 17275382105927679040
10465860 71 17531258231303180174
10751810 167 16950287299556335067
11471102 22 17632578236471709752
11615757 297 16487252187995860776
12251169 10 17346596387342327350
12500047 106 18261385599107007951
13296908 3 18342740710545251363
13581323 91 18187080659052078113
13693222 15 17703790310067485138
14115302 16 17967255316696393927
14144814 61 15267344019956794505
14252887 29 17418105316208576718
14350558 41 18334864904550318790
14993402 34 16370728119328041178
15219456 202 18271802432203051080
15309172 13 16559030484552723804
15375358 24 18273208690679826905
15653759 3 18411136935157639569
15775835 57 16200142231552141376
17834072 14 18412258432696636473
18175812 5 18342733035644597084
18186145 218 18335979766655097705
19141452 34 18271810185584819507
200 152 17131825465574503353
201361 129 13398641523810129550
20201158 50 18343584027410906667
20279233 1 18342738524760383991
20281407 28 18411989060948419483
204376 136 17059480984964447168
20528008 55 17988920089256856995
20645476 183 16732984236933058107
20645477 70 17560512902818377445
21119208 17 16805322188960553271
21730867 7 18273216413036403882
22169311 21 18411978048720967619
22485316 2 18343862216911735083
232386 152 18114181977289463935
23402539 116 17895463761306534773
23557571 272 18333726897262953509
23559900 14 18336543812057171098
23598291 2 16950290602180451271
26918003 58 17847059982571253363
296302 2 18335420192371761304
474 4 15122074422229242394
57812782 119 18412259532245200523
581208 293 17703504471641320120
69090 78 18273206521943226423
7364860 26 18043820989849682244
74978 22 16009040522006513537
77492 1 16370442241656450105
81228 2 18056216686404466297

> <PUBCHEM_SHAPE_MULTIPOLES>
288.11
7.54
1.37
1.3
2.13
0.11
-0.45
1.29
0.55
0.3
0.1
-0.74
-0.1
0.88

> <PUBCHEM_SHAPE_SELFOVERLAP>
570.229

> <PUBCHEM_SHAPE_VOLUME>
167.5

> <PUBCHEM_COORDINATE_TYPE>
2
5
10

$$$$
