137763
  -OEChem-11012401183D

 38 40  0     0  0  0  0  0  0999 V2000
    3.3021   -0.0004    0.6237 C   0  0  0  0  0  0  0  0  0  0  0  0
   -3.3022    0.0005    0.6236 C   0  0  0  0  0  0  0  0  0  0  0  0
    2.8897   -1.3153   -0.0784 C   0  0  0  0  0  0  0  0  0  0  0  0
    2.8902    1.3148   -0.0782 C   0  0  0  0  0  0  0  0  0  0  0  0
   -2.8902   -1.3149   -0.0782 C   0  0  0  0  0  0  0  0  0  0  0  0
   -2.8897    1.3155   -0.0782 C   0  0  0  0  0  0  0  0  0  0  0  0
    1.4068   -1.5975   -0.0765 C   0  0  0  0  0  0  0  0  0  0  0  0
    1.4074    1.5970   -0.0767 C   0  0  0  0  0  0  0  0  0  0  0  0
   -1.4074   -1.5972   -0.0766 C   0  0  0  0  0  0  0  0  0  0  0  0
   -1.4067    1.5974   -0.0767 C   0  0  0  0  0  0  0  0  0  0  0  0
    0.6984   -1.6621   -1.2826 C   0  0  0  0  0  0  0  0  0  0  0  0
    0.6990    1.6617   -1.2828 C   0  0  0  0  0  0  0  0  0  0  0  0
   -0.6990   -1.6619   -1.2827 C   0  0  0  0  0  0  0  0  0  0  0  0
   -0.6984    1.6617   -1.2828 C   0  0  0  0  0  0  0  0  0  0  0  0
    0.6983   -1.7127    1.1259 C   0  0  0  0  0  0  0  0  0  0  0  0
    0.6989    1.7128    1.1257 C   0  0  0  0  0  0  0  0  0  0  0  0
   -0.6989   -1.7126    1.1259 C   0  0  0  0  0  0  0  0  0  0  0  0
   -0.6983    1.7129    1.1257 C   0  0  0  0  0  0  0  0  0  0  0  0
    2.9489   -0.0004    1.6617 H   0  0  0  0  0  0  0  0  0  0  0  0
    4.3988   -0.0006    0.6809 H   0  0  0  0  0  0  0  0  0  0  0  0
   -4.3989    0.0007    0.6806 H   0  0  0  0  0  0  0  0  0  0  0  0
   -2.9491    0.0004    1.6616 H   0  0  0  0  0  0  0  0  0  0  0  0
    3.3891   -2.1543    0.4229 H   0  0  0  0  0  0  0  0  0  0  0  0
    3.2736   -1.3047   -1.1062 H   0  0  0  0  0  0  0  0  0  0  0  0
    3.2744    1.3045   -1.1058 H   0  0  0  0  0  0  0  0  0  0  0  0
    3.3896    2.1536    0.4235 H   0  0  0  0  0  0  0  0  0  0  0  0
   -3.2743   -1.3046   -1.1058 H   0  0  0  0  0  0  0  0  0  0  0  0
   -3.3896   -2.1536    0.4235 H   0  0  0  0  0  0  0  0  0  0  0  0
   -3.3889    2.1545    0.4235 H   0  0  0  0  0  0  0  0  0  0  0  0
   -3.2739    1.3054   -1.1058 H   0  0  0  0  0  0  0  0  0  0  0  0
    1.2232   -1.6164   -2.2337 H   0  0  0  0  0  0  0  0  0  0  0  0
    1.2239    1.6157   -2.2339 H   0  0  0  0  0  0  0  0  0  0  0  0
   -1.2238   -1.6161   -2.2337 H   0  0  0  0  0  0  0  0  0  0  0  0
   -1.2233    1.6159   -2.2339 H   0  0  0  0  0  0  0  0  0  0  0  0
    1.2248   -1.7146    2.0770 H   0  0  0  0  0  0  0  0  0  0  0  0
    1.2253    1.7149    2.0769 H   0  0  0  0  0  0  0  0  0  0  0  0
   -1.2253   -1.7144    2.0770 H   0  0  0  0  0  0  0  0  0  0  0  0
   -1.2248    1.7151    2.0768 H   0  0  0  0  0  0  0  0  0  0  0  0
  1  3  1  0  0  0  0
  1  4  1  0  0  0  0
  1 19  1  0  0  0  0
  1 20  1  0  0  0  0
  2  5  1  0  0  0  0
  2  6  1  0  0  0  0
  2 21  1  0  0  0  0
  2 22  1  0  0  0  0
  3  7  1  0  0  0  0
  3 23  1  0  0  0  0
  3 24  1  0  0  0  0
  4  8  1  0  0  0  0
  4 25  1  0  0  0  0
  4 26  1  0  0  0  0
  5  9  1  0  0  0  0
  5 27  1  0  0  0  0
  5 28  1  0  0  0  0
  6 10  1  0  0  0  0
  6 29  1  0  0  0  0
  6 30  1  0  0  0  0
  7 11  2  0  0  0  0
  7 15  1  0  0  0  0
  8 12  2  0  0  0  0
  8 16  1  0  0  0  0
  9 13  2  0  0  0  0
  9 17  1  0  0  0  0
 10 14  2  0  0  0  0
 10 18  1  0  0  0  0
 11 13  1  0  0  0  0
 11 31  1  0  0  0  0
 12 14  1  0  0  0  0
 12 32  1  0  0  0  0
 13 33  1  0  0  0  0
 14 34  1  0  0  0  0
 15 17  2  0  0  0  0
 15 35  1  0  0  0  0
 16 18  2  0  0  0  0
 16 36  1  0  0  0  0
 17 37  1  0  0  0  0
 18 38  1  0  0  0  0
M  END
> <PUBCHEM_COMPOUND_CID>
137763

> <PUBCHEM_CONFORMER_RMSD>
0.6

> <PUBCHEM_CONFORMER_DIVERSEORDER>
1

> <PUBCHEM_MMFF94_PARTIAL_CHARGES>
24
10 -0.14
11 -0.15
12 -0.15
13 -0.15
14 -0.15
15 -0.15
16 -0.15
17 -0.15
18 -0.15
3 0.14
31 0.15
32 0.15
33 0.15
34 0.15
35 0.15
36 0.15
37 0.15
38 0.15
4 0.14
5 0.14
6 0.14
7 -0.14
8 -0.14
9 -0.14

> <PUBCHEM_EFFECTIVE_ROTOR_COUNT>
1.2

> <PUBCHEM_PHARMACOPHORE_FEATURES>
2
6 7 9 11 13 15 17 rings
6 8 10 12 14 16 18 rings

> <PUBCHEM_HEAVY_ATOM_COUNT>
18

> <PUBCHEM_ATOM_DEF_STEREO_COUNT>
0

> <PUBCHEM_ATOM_UDEF_STEREO_COUNT>
0

> <PUBCHEM_BOND_DEF_STEREO_COUNT>
0

> <PUBCHEM_BOND_UDEF_STEREO_COUNT>
0

> <PUBCHEM_ISOTOPIC_ATOM_COUNT>
0

> <PUBCHEM_COMPONENT_COUNT>
1

> <PUBCHEM_CACTVS_TAUTO_COUNT>
1

> <PUBCHEM_CONFORMER_ID>
00021A2300000001

> <PUBCHEM_MMFF94_ENERGY>
52.5595

> <PUBCHEM_FEATURE_SELFOVERLAP>
10.149

> <PUBCHEM_SHAPE_FINGERPRINT>
104564 63 18267313195167838412
10863032 1 18341895190345717857
10948715 1 18411700984570239920
11086676 242 18409448106978031538
11132069 177 18340198609750062634
12011746 2 18338517421905674716
13132413 78 18339926029550661476
141345 1 9187583869673537997
14251745 187 18337664329779129000
144361 1 18410856563934757267
15775835 57 18128263491351969457
15881359 60 18192123006555518896
16945 1 18410855464423129167
20511035 2 18050292766655766479
20691752 17 17748831804511174209
20905425 154 18340214110408600055
22344851 341 18335978675379846978
2334 1 18410012164774428679
23419403 2 17045071919252412992
238 59 17760044516416989069
2748010 2 18050567335319699631
2897 32 18408887372969252377

> <PUBCHEM_SHAPE_MULTIPOLES>
370.43
4.34
2.83
1.31
0
0
-0.13
0
0.56
0
-0.13
0
0
0

> <PUBCHEM_SHAPE_SELFOVERLAP>
794.372

> <PUBCHEM_SHAPE_VOLUME>
191.6

> <PUBCHEM_COORDINATE_TYPE>
2
5
10

$$$$
