138697
  -OEChem-11012400573D

 48 48  0     0  0  0  0  0  0999 V2000
   -1.9934    2.6962    0.9409 O   0  0  0  0  0  0  0  0  0  0  0  0
   -3.3319   -0.3783    0.9404 O   0  0  0  0  0  0  0  0  0  0  0  0
    1.3386    3.0736    0.9422 O   0  0  0  0  0  0  0  0  0  0  0  0
   -1.3381   -3.0734    0.9421 O   0  0  0  0  0  0  0  0  0  0  0  0
    3.3320    0.3773    0.9406 O   0  0  0  0  0  0  0  0  0  0  0  0
    1.9924   -2.6969    0.9407 O   0  0  0  0  0  0  0  0  0  0  0  0
   -2.1079    2.8551   -1.3527 O   0  0  0  0  0  0  0  0  0  0  0  0
   -3.5263   -0.3978   -1.3531 O   0  0  0  0  0  0  0  0  0  0  0  0
    1.4187    3.2538   -1.3513 O   0  0  0  0  0  0  0  0  0  0  0  0
   -1.4186   -3.2537   -1.3514 O   0  0  0  0  0  0  0  0  0  0  0  0
    3.5262    0.3993   -1.3529 O   0  0  0  0  0  0  0  0  0  0  0  0
    2.1084   -2.8545   -1.3529 O   0  0  0  0  0  0  0  0  0  0  0  0
   -0.8286    1.1221   -0.3303 C   0  0  0  0  0  0  0  0  0  0  0  0
   -1.3861   -0.1565   -0.3304 C   0  0  0  0  0  0  0  0  0  0  0  0
    0.5574    1.2788   -0.3302 C   0  0  0  0  0  0  0  0  0  0  0  0
   -0.5574   -1.2785   -0.3306 C   0  0  0  0  0  0  0  0  0  0  0  0
    1.3860    0.1568   -0.3302 C   0  0  0  0  0  0  0  0  0  0  0  0
    0.8287   -1.1219   -0.3305 C   0  0  0  0  0  0  0  0  0  0  0  0
   -1.6968    2.2978   -0.3311 C   0  0  0  0  0  0  0  0  0  0  0  0
   -2.8383   -0.3207   -0.3315 C   0  0  0  0  0  0  0  0  0  0  0  0
    1.1416    2.6185   -0.3301 C   0  0  0  0  0  0  0  0  0  0  0  0
   -1.1414   -2.6183   -0.3304 C   0  0  0  0  0  0  0  0  0  0  0  0
    2.8383    0.3210   -0.3314 C   0  0  0  0  0  0  0  0  0  0  0  0
    1.6967   -2.2977   -0.3314 C   0  0  0  0  0  0  0  0  0  0  0  0
   -2.8415    3.8421    1.0722 C   0  0  0  0  0  0  0  0  0  0  0  0
   -4.7484   -0.5400    1.0713 C   0  0  0  0  0  0  0  0  0  0  0  0
    1.9071    4.3808    1.0744 C   0  0  0  0  0  0  0  0  0  0  0  0
   -1.9064   -4.3807    1.0742 C   0  0  0  0  0  0  0  0  0  0  0  0
    4.7485    0.5387    1.0716 C   0  0  0  0  0  0  0  0  0  0  0  0
    2.8403   -3.8430    1.0718 C   0  0  0  0  0  0  0  0  0  0  0  0
   -3.8149    3.6449    0.6133 H   0  0  0  0  0  0  0  0  0  0  0  0
   -2.3676    4.7159    0.6151 H   0  0  0  0  0  0  0  0  0  0  0  0
   -2.9872    4.0373    2.1378 H   0  0  0  0  0  0  0  0  0  0  0  0
   -4.9905   -0.5689    2.1369 H   0  0  0  0  0  0  0  0  0  0  0  0
   -5.0641   -1.4814    0.6122 H   0  0  0  0  0  0  0  0  0  0  0  0
   -5.2681    0.3074    0.6144 H   0  0  0  0  0  0  0  0  0  0  0  0
    1.2497    5.1255    0.6160 H   0  0  0  0  0  0  0  0  0  0  0  0
    2.9007    4.4076    0.6173 H   0  0  0  0  0  0  0  0  0  0  0  0
    2.0033    4.6039    2.1401 H   0  0  0  0  0  0  0  0  0  0  0  0
   -2.0025   -4.6038    2.1400 H   0  0  0  0  0  0  0  0  0  0  0  0
   -1.2490   -5.1254    0.6157 H   0  0  0  0  0  0  0  0  0  0  0  0
   -2.9001   -4.4075    0.6172 H   0  0  0  0  0  0  0  0  0  0  0  0
    5.0643    1.4807    0.6135 H   0  0  0  0  0  0  0  0  0  0  0  0
    5.2681   -0.3080    0.6135 H   0  0  0  0  0  0  0  0  0  0  0  0
    4.9908    0.5665    2.1371 H   0  0  0  0  0  0  0  0  0  0  0  0
    2.3666   -4.7164    0.6140 H   0  0  0  0  0  0  0  0  0  0  0  0
    2.9854   -4.0387    2.1374 H   0  0  0  0  0  0  0  0  0  0  0  0
    3.8139   -3.6456    0.6135 H   0  0  0  0  0  0  0  0  0  0  0  0
  1 19  1  0  0  0  0
  1 25  1  0  0  0  0
  2 20  1  0  0  0  0
  2 26  1  0  0  0  0
  3 21  1  0  0  0  0
  3 27  1  0  0  0  0
  4 22  1  0  0  0  0
  4 28  1  0  0  0  0
  5 23  1  0  0  0  0
  5 29  1  0  0  0  0
  6 24  1  0  0  0  0
  6 30  1  0  0  0  0
  7 19  2  0  0  0  0
  8 20  2  0  0  0  0
  9 21  2  0  0  0  0
 10 22  2  0  0  0  0
 11 23  2  0  0  0  0
 12 24  2  0  0  0  0
 13 14  2  0  0  0  0
 13 15  1  0  0  0  0
 13 19  1  0  0  0  0
 14 16  1  0  0  0  0
 14 20  1  0  0  0  0
 15 17  2  0  0  0  0
 15 21  1  0  0  0  0
 16 18  2  0  0  0  0
 16 22  1  0  0  0  0
 17 18  1  0  0  0  0
 17 23  1  0  0  0  0
 18 24  1  0  0  0  0
 25 31  1  0  0  0  0
 25 32  1  0  0  0  0
 25 33  1  0  0  0  0
 26 34  1  0  0  0  0
 26 35  1  0  0  0  0
 26 36  1  0  0  0  0
 27 37  1  0  0  0  0
 27 38  1  0  0  0  0
 27 39  1  0  0  0  0
 28 40  1  0  0  0  0
 28 41  1  0  0  0  0
 28 42  1  0  0  0  0
 29 43  1  0  0  0  0
 29 44  1  0  0  0  0
 29 45  1  0  0  0  0
 30 46  1  0  0  0  0
 30 47  1  0  0  0  0
 30 48  1  0  0  0  0
M  END
> <PUBCHEM_COMPOUND_CID>
138697

> <PUBCHEM_CONFORMER_RMSD>
1

> <PUBCHEM_CONFORMER_DIVERSEORDER>
1
4
5
2
3

> <PUBCHEM_MMFF94_PARTIAL_CHARGES>
30
1 -0.43
10 -0.57
11 -0.57
12 -0.57
13 0.09
14 0.09
15 0.09
16 0.09
17 0.09
18 0.09
19 0.63
2 -0.43
20 0.63
21 0.63
22 0.63
23 0.63
24 0.63
25 0.28
26 0.28
27 0.28
28 0.28
29 0.28
3 -0.43
30 0.28
4 -0.43
5 -0.43
6 -0.43
7 -0.57
8 -0.57
9 -0.57

> <PUBCHEM_EFFECTIVE_ROTOR_COUNT>
12

> <PUBCHEM_PHARMACOPHORE_FEATURES>
7
1 10 acceptor
1 11 acceptor
1 12 acceptor
1 7 acceptor
1 8 acceptor
1 9 acceptor
6 13 14 15 16 17 18 rings

> <PUBCHEM_HEAVY_ATOM_COUNT>
30

> <PUBCHEM_ATOM_DEF_STEREO_COUNT>
0

> <PUBCHEM_ATOM_UDEF_STEREO_COUNT>
0

> <PUBCHEM_BOND_DEF_STEREO_COUNT>
0

> <PUBCHEM_BOND_UDEF_STEREO_COUNT>
0

> <PUBCHEM_ISOTOPIC_ATOM_COUNT>
0

> <PUBCHEM_COMPONENT_COUNT>
1

> <PUBCHEM_CACTVS_TAUTO_COUNT>
1

> <PUBCHEM_CONFORMER_ID>
00021DC900000001

> <PUBCHEM_MMFF94_ENERGY>
116.9343

> <PUBCHEM_FEATURE_SELFOVERLAP>
35.527

> <PUBCHEM_SHAPE_FINGERPRINT>
10967382 1 18410294734999513567
1100329 8 18266741461758247099
12553582 1 18410294743563054942
13140716 1 18194682806863397099
14178342 30 18268148664912381912
16945 1 18410574019511189796
19591789 44 18194133914459703079
20691752 17 17605846815335580902
20739085 24 18122367695434915369
20905425 154 18268427937018691230
22182313 1 18266458711176249855
2334 1 17762056940185190703
23558518 356 18337954463642296055
23559900 14 18199196255879802604
2748010 2 18194683665856856479
350125 39 18194129520639347023
352729 6 18266459986781536629

> <PUBCHEM_SHAPE_MULTIPOLES>
546.95
6.22
6.22
1.32
0
0
-0.03
0
1.72
0
1.73
0
0
0

> <PUBCHEM_SHAPE_SELFOVERLAP>
1156.631

> <PUBCHEM_SHAPE_VOLUME>
311

> <PUBCHEM_COORDINATE_TYPE>
2
5
10

$$$$
