101681595
  -OEChem-11012401113D

 42 44  0     0  0  0  0  0  0999 V2000
   -0.4645    0.7149   -2.2159 O   0  0  0  0  0  0  0  0  0  0  0  0
   -1.6403    1.9530    2.1815 O   0  0  0  0  0  0  0  0  0  0  0  0
   -0.4712    1.2963    0.1488 C   0  0  0  0  0  0  0  0  0  0  0  0
    0.1657    0.0330    0.7119 C   0  0  0  0  0  0  0  0  0  0  0  0
    0.5122    2.4543    0.0483 C   0  0  0  0  0  0  0  0  0  0  0  0
   -1.0950    1.0105   -1.2086 C   0  0  0  0  0  0  0  0  0  0  0  0
   -1.6764    1.7005    0.9838 C   0  0  0  0  0  0  0  0  0  0  0  0
   -2.6022    1.0733   -1.1533 C   0  0  0  0  0  0  0  0  0  0  0  0
   -2.9240    1.8163    0.1416 C   0  0  0  0  0  0  0  0  0  0  0  0
    1.6580   -0.1069    0.4132 C   0  0  0  0  0  0  0  0  0  0  0  0
   -0.5966   -1.2361    0.3354 C   0  0  0  0  0  0  0  0  0  0  0  0
   -0.1688    3.7243   -0.4294 C   0  0  0  0  0  0  0  0  0  0  0  0
    2.4873   -0.7864    1.3054 C   0  0  0  0  0  0  0  0  0  0  0  0
   -1.6158   -1.7089    1.1621 C   0  0  0  0  0  0  0  0  0  0  0  0
    2.1904    0.4450   -0.7518 C   0  0  0  0  0  0  0  0  0  0  0  0
   -0.2734   -1.9221   -0.8352 C   0  0  0  0  0  0  0  0  0  0  0  0
    3.8494   -0.9139    1.0327 C   0  0  0  0  0  0  0  0  0  0  0  0
   -2.3117   -2.8679    0.8182 C   0  0  0  0  0  0  0  0  0  0  0  0
    3.5524    0.3176   -1.0247 C   0  0  0  0  0  0  0  0  0  0  0  0
   -0.9692   -3.0810   -1.1791 C   0  0  0  0  0  0  0  0  0  0  0  0
    4.3820   -0.3618   -0.1324 C   0  0  0  0  0  0  0  0  0  0  0  0
   -1.9883   -3.5540   -0.3524 C   0  0  0  0  0  0  0  0  0  0  0  0
    0.1222    0.1091    1.8100 H   0  0  0  0  0  0  0  0  0  0  0  0
    0.9489    2.6598    1.0350 H   0  0  0  0  0  0  0  0  0  0  0  0
    1.3287    2.4192   -0.6575 H   0  0  0  0  0  0  0  0  0  0  0  0
   -3.0015    0.0553   -1.1310 H   0  0  0  0  0  0  0  0  0  0  0  0
   -2.9975    1.6049   -2.0227 H   0  0  0  0  0  0  0  0  0  0  0  0
   -3.1224    2.8742   -0.0539 H   0  0  0  0  0  0  0  0  0  0  0  0
   -3.7788    1.3676    0.6539 H   0  0  0  0  0  0  0  0  0  0  0  0
   -0.6252    3.6096   -1.4175 H   0  0  0  0  0  0  0  0  0  0  0  0
    0.5703    4.5304   -0.5112 H   0  0  0  0  0  0  0  0  0  0  0  0
   -0.9301    4.0794    0.2714 H   0  0  0  0  0  0  0  0  0  0  0  0
    2.0855   -1.2229    2.2159 H   0  0  0  0  0  0  0  0  0  0  0  0
   -1.8783   -1.1858    2.0776 H   0  0  0  0  0  0  0  0  0  0  0  0
    1.6145    0.8348   -1.5748 H   0  0  0  0  0  0  0  0  0  0  0  0
    0.5126   -1.5955   -1.5072 H   0  0  0  0  0  0  0  0  0  0  0  0
    4.4948   -1.4451    1.7261 H   0  0  0  0  0  0  0  0  0  0  0  0
   -3.1052   -3.2360    1.4618 H   0  0  0  0  0  0  0  0  0  0  0  0
    3.9621    0.7140   -1.9494 H   0  0  0  0  0  0  0  0  0  0  0  0
   -0.7175   -3.6159   -2.0903 H   0  0  0  0  0  0  0  0  0  0  0  0
    5.4408   -0.4689   -0.3493 H   0  0  0  0  0  0  0  0  0  0  0  0
   -2.5301   -4.4564   -0.6202 H   0  0  0  0  0  0  0  0  0  0  0  0
  1  6  2  0  0  0  0
  2  7  2  0  0  0  0
  3  4  1  0  0  0  0
  3  5  1  0  0  0  0
  3  6  1  0  0  0  0
  3  7  1  0  0  0  0
  4 10  1  0  0  0  0
  4 11  1  0  0  0  0
  4 23  1  0  0  0  0
  5 12  1  0  0  0  0
  5 24  1  0  0  0  0
  5 25  1  0  0  0  0
  6  8  1  0  0  0  0
  7  9  1  0  0  0  0
  8  9  1  0  0  0  0
  8 26  1  0  0  0  0
  8 27  1  0  0  0  0
  9 28  1  0  0  0  0
  9 29  1  0  0  0  0
 10 13  2  0  0  0  0
 10 15  1  0  0  0  0
 11 14  2  0  0  0  0
 11 16  1  0  0  0  0
 12 30  1  0  0  0  0
 12 31  1  0  0  0  0
 12 32  1  0  0  0  0
 13 17  1  0  0  0  0
 13 33  1  0  0  0  0
 14 18  1  0  0  0  0
 14 34  1  0  0  0  0
 15 19  2  0  0  0  0
 15 35  1  0  0  0  0
 16 20  2  0  0  0  0
 16 36  1  0  0  0  0
 17 21  2  0  0  0  0
 17 37  1  0  0  0  0
 18 22  2  0  0  0  0
 18 38  1  0  0  0  0
 19 21  1  0  0  0  0
 19 39  1  0  0  0  0
 20 22  1  0  0  0  0
 20 40  1  0  0  0  0
 21 41  1  0  0  0  0
 22 42  1  0  0  0  0
M  END
> <PUBCHEM_COMPOUND_CID>
101681595

> <PUBCHEM_CONFORMER_RMSD>
0.8

> <PUBCHEM_CONFORMER_DIVERSEORDER>
2
3
5
1
4
6

> <PUBCHEM_MMFF94_PARTIAL_CHARGES>
30
1 -0.57
10 -0.14
11 -0.14
13 -0.15
14 -0.15
15 -0.15
16 -0.15
17 -0.15
18 -0.15
19 -0.15
2 -0.57
20 -0.15
21 -0.15
22 -0.15
3 0.12
33 0.15
34 0.15
35 0.15
36 0.15
37 0.15
38 0.15
39 0.15
4 0.29
40 0.15
41 0.15
42 0.15
6 0.45
7 0.45
8 0.06
9 0.06

> <PUBCHEM_EFFECTIVE_ROTOR_COUNT>
4.6

> <PUBCHEM_PHARMACOPHORE_FEATURES>
6
1 1 acceptor
1 12 hydrophobe
1 2 acceptor
5 3 6 7 8 9 rings
6 10 13 15 17 19 21 rings
6 11 14 16 18 20 22 rings

> <PUBCHEM_HEAVY_ATOM_COUNT>
22

> <PUBCHEM_ATOM_DEF_STEREO_COUNT>
0

> <PUBCHEM_ATOM_UDEF_STEREO_COUNT>
0

> <PUBCHEM_BOND_DEF_STEREO_COUNT>
0

> <PUBCHEM_BOND_UDEF_STEREO_COUNT>
0

> <PUBCHEM_ISOTOPIC_ATOM_COUNT>
0

> <PUBCHEM_COMPONENT_COUNT>
1

> <PUBCHEM_CACTVS_TAUTO_COUNT>
9

> <PUBCHEM_CONFORMER_ID>
060F89BB00000002

> <PUBCHEM_MMFF94_ENERGY>
85.011

> <PUBCHEM_FEATURE_SELFOVERLAP>
30.447

> <PUBCHEM_SHAPE_FINGERPRINT>
104564 63 18336548325545969071
11578080 2 17843678013574184121
11680986 33 18195514016327300505
12403814 3 17313103016713260652
12553582 1 18122345937337004114
13083527 12 17546135946693103608
13140716 1 18409161143365666464
13149001 5 18122873629681924605
133893 2 17256512033778799847
13538477 17 18260545598394078514
13681431 1 17617645996414162254
14863182 85 17977419086699512521
15042514 8 18408886209286621802
15309172 13 18192997015199423384
16752209 62 18337942467598386099
16945 1 18262788687808359115
17357779 13 18126550443804729055
17492 54 18187351117796423197
20028762 73 18202562917487199303
20691752 17 17980503173317475805
20905425 154 17765723807227132005
21421861 104 17903921406589797353
21731516 1 18122061163661574430
22907989 373 18410864286423125204
229495 10 16878771695767680054
23419403 2 17189762194627082489
23557571 272 18199459030320648554
23559900 14 18342167836040806138
23598288 3 18334303084395219138
2748010 2 18196918071390778192
427121 178 17269516099787681305
4340502 62 18123480380323909593
5845 1 17909811464525677562
70251023 43 18050011292064742846
7364860 26 17118048863587601371
81228 2 18340480157678251762

> <PUBCHEM_SHAPE_MULTIPOLES>
441.01
5.07
4.03
1.56
5.98
0.35
0.02
1.56
-0.3
-3.59
0.23
-0.3
-0.14
-0.47

> <PUBCHEM_SHAPE_SELFOVERLAP>
965.064

> <PUBCHEM_SHAPE_VOLUME>
237.7

> <PUBCHEM_COORDINATE_TYPE>
2
5
10

$$$$
