11041416
  -OEChem-11012400483D

 30 36  0     0  0  0  0  0  0999 V2000
   -0.7040   -0.9874   -1.0205 C   0  0  0  0  0  0  0  0  0  0  0  0
    0.7040   -1.3150   -0.5358 C   0  0  0  0  0  0  0  0  0  0  0  0
   -0.7041    0.5358   -1.3150 C   0  0  0  0  0  0  0  0  0  0  0  0
    0.7040   -1.0205    0.9873 C   0  0  0  0  0  0  0  0  0  0  0  0
    0.7041    1.0205   -0.9873 C   0  0  0  0  0  0  0  0  0  0  0  0
   -0.7039   -0.5358    1.3149 C   0  0  0  0  0  0  0  0  0  0  0  0
    0.7040    1.3150    0.5358 C   0  0  0  0  0  0  0  0  0  0  0  0
   -0.7040    0.9873    1.0205 C   0  0  0  0  0  0  0  0  0  0  0  0
   -1.6149   -1.0994    0.2125 C   0  0  0  0  0  0  0  0  0  0  0  0
   -1.6149    1.0994   -0.2125 C   0  0  0  0  0  0  0  0  0  0  0  0
    1.6149   -0.2125   -1.0994 C   0  0  0  0  0  0  0  0  0  0  0  0
    1.6149    0.2125    1.0994 C   0  0  0  0  0  0  0  0  0  0  0  0
   -2.6478    0.0000    0.0000 C   0  0  0  0  0  0  0  0  0  0  0  0
    2.6478    0.0000    0.0000 C   0  0  0  0  0  0  0  0  0  0  0  0
   -1.0358   -1.5703   -1.8838 H   0  0  0  0  0  0  0  0  0  0  0  0
    1.0359   -2.3334   -0.7550 H   0  0  0  0  0  0  0  0  0  0  0  0
   -1.0359    0.7550   -2.3333 H   0  0  0  0  0  0  0  0  0  0  0  0
    1.0358   -1.8838    1.5703 H   0  0  0  0  0  0  0  0  0  0  0  0
    1.0359    1.8839   -1.5704 H   0  0  0  0  0  0  0  0  0  0  0  0
   -1.0358   -0.7550    2.3333 H   0  0  0  0  0  0  0  0  0  0  0  0
    1.0358    2.3334    0.7550 H   0  0  0  0  0  0  0  0  0  0  0  0
   -1.0359    1.5702    1.8838 H   0  0  0  0  0  0  0  0  0  0  0  0
   -1.9936   -2.1045    0.4069 H   0  0  0  0  0  0  0  0  0  0  0  0
   -1.9936    2.1046   -0.4067 H   0  0  0  0  0  0  0  0  0  0  0  0
    1.9935    0.4069    2.1045 H   0  0  0  0  0  0  0  0  0  0  0  0
    1.9936   -0.4069   -2.1046 H   0  0  0  0  0  0  0  0  0  0  0  0
   -3.2744   -0.1702   -0.8810 H   0  0  0  0  0  0  0  0  0  0  0  0
   -3.2745    0.1703    0.8810 H   0  0  0  0  0  0  0  0  0  0  0  0
    3.2744   -0.8809    0.1703 H   0  0  0  0  0  0  0  0  0  0  0  0
    3.2744    0.8809   -0.1702 H   0  0  0  0  0  0  0  0  0  0  0  0
  1  2  1  0  0  0  0
  1  3  1  0  0  0  0
  1  9  1  0  0  0  0
  1 15  1  0  0  0  0
  2  4  1  0  0  0  0
  2 11  1  0  0  0  0
  2 16  1  0  0  0  0
  3  5  1  0  0  0  0
  3 10  1  0  0  0  0
  3 17  1  0  0  0  0
  4  6  1  0  0  0  0
  4 12  1  0  0  0  0
  4 18  1  0  0  0  0
  5  7  1  0  0  0  0
  5 11  1  0  0  0  0
  5 19  1  0  0  0  0
  6  8  1  0  0  0  0
  6  9  1  0  0  0  0
  6 20  1  0  0  0  0
  7  8  1  0  0  0  0
  7 12  1  0  0  0  0
  7 21  1  0  0  0  0
  8 10  1  0  0  0  0
  8 22  1  0  0  0  0
  9 13  1  0  0  0  0
  9 23  1  0  0  0  0
 10 13  1  0  0  0  0
 10 24  1  0  0  0  0
 11 14  1  0  0  0  0
 11 26  1  0  0  0  0
 12 14  1  0  0  0  0
 12 25  1  0  0  0  0
 13 27  1  0  0  0  0
 13 28  1  0  0  0  0
 14 29  1  0  0  0  0
 14 30  1  0  0  0  0
M  END
> <PUBCHEM_COMPOUND_CID>
11041416

> <PUBCHEM_CONFORMER_RMSD>
0.4

> <PUBCHEM_CONFORMER_DIVERSEORDER>
1

> <PUBCHEM_MMFF94_PARTIAL_CHARGES>
0

> <PUBCHEM_EFFECTIVE_ROTOR_COUNT>
0.4

> <PUBCHEM_PHARMACOPHORE_FEATURES>
2
11 1 2 3 4 5 6 7 8 11 12 14 rings
11 1 2 3 4 5 6 7 8 9 10 13 rings

> <PUBCHEM_HEAVY_ATOM_COUNT>
14

> <PUBCHEM_ATOM_DEF_STEREO_COUNT>
0

> <PUBCHEM_ATOM_UDEF_STEREO_COUNT>
0

> <PUBCHEM_BOND_DEF_STEREO_COUNT>
0

> <PUBCHEM_BOND_UDEF_STEREO_COUNT>
0

> <PUBCHEM_ISOTOPIC_ATOM_COUNT>
0

> <PUBCHEM_COMPONENT_COUNT>
1

> <PUBCHEM_CACTVS_TAUTO_COUNT>
1

> <PUBCHEM_CONFORMER_ID>
00A87A8800000001

> <PUBCHEM_MMFF94_ENERGY>
85.8943

> <PUBCHEM_FEATURE_SELFOVERLAP>
13.388

> <PUBCHEM_SHAPE_FINGERPRINT>
10863032 1 17845098371974794316
10948715 1 18341894035036782840
12423570 1 9816677023896581331
13024252 1 16877942728720134770
144361 1 18335154080287210263
15557651 10 18335127692039935020
16945 1 18334858316065056007
2748010 2 17772461541414717660
369184 2 18131626790279268882
5084963 1 18260267451420962180
528886 8 17918270943770258419

> <PUBCHEM_SHAPE_MULTIPOLES>
288.11
2.65
1.37
1.37
0
0
0
0
0
0.07
0
-0.07
0
0.1

> <PUBCHEM_SHAPE_SELFOVERLAP>
732.642

> <PUBCHEM_SHAPE_VOLUME>
119.8

> <PUBCHEM_COORDINATE_TYPE>
2
5
10

$$$$
