111263
  -OEChem-10312420392D

 33 37  0     1  0  0  0  0  0999 V2000
    3.8898    0.4265    0.0000 C   0  0  3  0  0  0  0  0  0  0  0  0
    3.8898   -0.5735    0.0000 C   0  0  3  0  0  0  0  0  0  0  0  0
    4.7558    0.9265    0.0000 C   0  0  3  0  0  0  0  0  0  0  0  0
    4.7558   -1.0735    0.0000 C   0  0  3  0  0  0  0  0  0  0  0  0
    5.6218    0.4265    0.0000 C   0  0  3  0  0  0  0  0  0  0  0  0
    5.6218   -0.5735    0.0000 C   0  0  3  0  0  0  0  0  0  0  0  0
    3.7679    1.0735    0.0000 C   0  0  0  0  0  0  0  0  0  0  0  0
    2.9436    0.7312    0.0000 C   0  0  3  0  0  0  0  0  0  0  0  0
    2.9436   -0.8782    0.0000 C   0  0  3  0  0  0  0  0  0  0  0  0
    2.3600   -0.0735    0.0000 C   0  0  0  0  0  0  0  0  0  0  0  0
    6.5681    0.7312    0.0000 C   0  0  0  0  0  0  0  0  0  0  0  0
    2.0000    0.4228    0.0000 C   0  0  0  0  0  0  0  0  0  0  0  0
    2.0000   -0.5698    0.0000 C   0  0  0  0  0  0  0  0  0  0  0  0
    6.5681   -0.8782    0.0000 C   0  0  0  0  0  0  0  0  0  0  0  0
    7.1517   -0.0735    0.0000 C   0  0  0  0  0  0  0  0  0  0  0  0
    4.4267    0.1165    0.0000 H   0  0  0  0  0  0  0  0  0  0  0  0
    3.8242   -1.1900    0.0000 H   0  0  0  0  0  0  0  0  0  0  0  0
    4.9600    1.5119    0.0000 H   0  0  0  0  0  0  0  0  0  0  0  0
    4.7558   -1.6935    0.0000 H   0  0  0  0  0  0  0  0  0  0  0  0
    5.6874    1.0430    0.0000 H   0  0  0  0  0  0  0  0  0  0  0  0
    5.6874   -1.1900    0.0000 H   0  0  0  0  0  0  0  0  0  0  0  0
    3.7399    1.6929    0.0000 H   0  0  0  0  0  0  0  0  0  0  0  0
    3.1654    0.9272    0.0000 H   0  0  0  0  0  0  0  0  0  0  0  0
    2.9422    1.3512    0.0000 H   0  0  0  0  0  0  0  0  0  0  0  0
    2.9422   -1.4982    0.0000 H   0  0  0  0  0  0  0  0  0  0  0  0
    1.8991    0.3412    0.0000 H   0  0  0  0  0  0  0  0  0  0  0  0
    1.8991   -0.4882    0.0000 H   0  0  0  0  0  0  0  0  0  0  0  0
    7.1054    1.0405    0.0000 H   0  0  0  0  0  0  0  0  0  0  0  0
    6.3170    1.2981    0.0000 H   0  0  0  0  0  0  0  0  0  0  0  0
    1.4981    0.7868    0.0000 H   0  0  0  0  0  0  0  0  0  0  0  0
    1.4981   -0.9338    0.0000 H   0  0  0  0  0  0  0  0  0  0  0  0
    6.7607   -1.4676    0.0000 H   0  0  0  0  0  0  0  0  0  0  0  0
    7.7717   -0.0735    0.0000 H   0  0  0  0  0  0  0  0  0  0  0  0
  1  2  1  0  0  0  0
  1  3  1  0  0  0  0
  1  8  1  0  0  0  0
  1 16  1  0  0  0  0
  2  4  1  0  0  0  0
  2  9  1  0  0  0  0
  2 17  1  0  0  0  0
  3  5  1  0  0  0  0
  3  7  1  0  0  0  0
  3 18  1  0  0  0  0
  4  6  1  0  0  0  0
  4  7  1  0  0  0  0
  4 19  1  0  0  0  0
  5  6  1  0  0  0  0
  5 11  1  0  0  0  0
  5 20  1  0  0  0  0
  6 14  1  0  0  0  0
  6 21  1  0  0  0  0
  7 22  1  0  0  0  0
  7 23  1  0  0  0  0
  8 10  1  0  0  0  0
  8 12  1  0  0  0  0
  8 24  1  0  0  0  0
  9 10  1  0  0  0  0
  9 13  1  0  0  0  0
  9 25  1  0  0  0  0
 10 26  1  0  0  0  0
 10 27  1  0  0  0  0
 11 15  1  0  0  0  0
 11 28  1  0  0  0  0
 11 29  1  0  0  0  0
 12 13  2  0  0  0  0
 12 30  1  0  0  0  0
 13 31  1  0  0  0  0
 14 15  2  0  0  0  0
 14 32  1  0  0  0  0
 15 33  1  0  0  0  0
M  END
> <PUBCHEM_COMPOUND_CID>
111263

> <PUBCHEM_COMPOUND_CANONICALIZED>
1

> <PUBCHEM_CACTVS_COMPLEXITY>
378

> <PUBCHEM_CACTVS_HBOND_ACCEPTOR>
0

> <PUBCHEM_CACTVS_HBOND_DONOR>
0

> <PUBCHEM_CACTVS_ROTATABLE_BOND>
0

> <PUBCHEM_CACTVS_SUBSKEYS>
AAADceBwAAAAAAAAAAAAAAAAAAAAAYMGCBAwQAAAAAAYIAAAAAAAGAAAAAAADQCAAAAAAAAAAACAACBCAAAAAAAgAAAICAAAAAgAAAIAAQAAAAAAgAAIAAMAgMAOgAAAAAAAAACAAAQAACAAAQAACAAAAA==

> <PUBCHEM_IUPAC_OPENEYE_NAME>
pentacyclo[6.5.1.13,6.02,7.09,13]pentadeca-4,10-diene

> <PUBCHEM_IUPAC_CAS_NAME>
pentacyclo[6.5.1.13,6.02,7.09,13]pentadeca-4,10-diene

> <PUBCHEM_IUPAC_NAME_MARKUP>
pentacyclo[6.5.1.1<SUP>3,6</SUP>.0<SUP>2,7</SUP>.0<SUP>9,13</SUP>]pentadeca-4,10-diene

> <PUBCHEM_IUPAC_NAME>
pentacyclo[6.5.1.13,6.02,7.09,13]pentadeca-4,10-diene

> <PUBCHEM_IUPAC_SYSTEMATIC_NAME>
pentacyclo[6.5.1.13,6.02,7.09,13]pentadeca-4,10-diene

> <PUBCHEM_IUPAC_TRADITIONAL_NAME>
pentacyclo[6.5.1.13,6.02,7.09,13]pentadeca-4,10-diene

> <PUBCHEM_IUPAC_INCHI>
InChI=1S/C15H18/c1-2-10-11(3-1)13-7-12(10)14-8-4-5-9(6-8)15(13)14/h1-2,4-5,8-15H,3,6-7H2

> <PUBCHEM_IUPAC_INCHIKEY>
XCGKRTHKVBCXLN-UHFFFAOYSA-N

> <PUBCHEM_XLOGP3_AA>
3.6

> <PUBCHEM_EXACT_MASS>
198.140850574

> <PUBCHEM_MOLECULAR_FORMULA>
C15H18

> <PUBCHEM_MOLECULAR_WEIGHT>
198.30

> <PUBCHEM_OPENEYE_CAN_SMILES>
C1C=CC2C1C3CC2C4C3C5CC4C=C5

> <PUBCHEM_OPENEYE_ISO_SMILES>
C1C=CC2C1C3CC2C4C3C5CC4C=C5

> <PUBCHEM_CACTVS_TPSA>
0

> <PUBCHEM_MONOISOTOPIC_WEIGHT>
198.140850574

> <PUBCHEM_TOTAL_CHARGE>
0

> <PUBCHEM_HEAVY_ATOM_COUNT>
15

> <PUBCHEM_ATOM_DEF_STEREO_COUNT>
0

> <PUBCHEM_ATOM_UDEF_STEREO_COUNT>
8

> <PUBCHEM_BOND_DEF_STEREO_COUNT>
0

> <PUBCHEM_BOND_UDEF_STEREO_COUNT>
0

> <PUBCHEM_ISOTOPIC_ATOM_COUNT>
0

> <PUBCHEM_COMPONENT_COUNT>
1

> <PUBCHEM_CACTVS_TAUTO_COUNT>
-1

> <PUBCHEM_COORDINATE_TYPE>
1
5
255

> <PUBCHEM_BONDANNOTATIONS>
1  8  3
2  9  3
3  7  3
4  7  3
5  11  3
6  14  3
8  10  3
9  10  3

$$$$
