15742
  -OEChem-11012401203D

 28 29  0     0  0  0  0  0  0999 V2000
    1.3976   -0.6690   -0.3192 C   0  0  0  0  0  0  0  0  0  0  0  0
    0.6100    0.4344    0.0145 C   0  0  0  0  0  0  0  0  0  0  0  0
    0.7836   -1.9799   -0.6946 C   0  0  0  0  0  0  0  0  0  0  0  0
   -0.8346    0.3520    0.0099 C   0  0  0  0  0  0  0  0  0  0  0  0
    2.7885   -0.5643   -0.3080 C   0  0  0  0  0  0  0  0  0  0  0  0
    1.2181    1.6427    0.3596 C   0  0  0  0  0  0  0  0  0  0  0  0
    0.5624   -2.8882    0.5082 C   0  0  0  0  0  0  0  0  0  0  0  0
    3.3942    0.6438    0.0372 C   0  0  0  0  0  0  0  0  0  0  0  0
    2.6091    1.7473    0.3709 C   0  0  0  0  0  0  0  0  0  0  0  0
   -1.5465    0.6513   -1.1517 C   0  0  0  0  0  0  0  0  0  0  0  0
   -1.5154   -0.0273    1.1670 C   0  0  0  0  0  0  0  0  0  0  0  0
   -2.9391    0.5717   -1.1564 C   0  0  0  0  0  0  0  0  0  0  0  0
   -2.9081   -0.1070    1.1621 C   0  0  0  0  0  0  0  0  0  0  0  0
   -3.6199    0.1925    0.0004 C   0  0  0  0  0  0  0  0  0  0  0  0
   -0.1563   -1.8500   -1.2414 H   0  0  0  0  0  0  0  0  0  0  0  0
    1.4416   -2.4968   -1.4062 H   0  0  0  0  0  0  0  0  0  0  0  0
    3.4140   -1.4157   -0.5633 H   0  0  0  0  0  0  0  0  0  0  0  0
    0.6226    2.5140    0.6227 H   0  0  0  0  0  0  0  0  0  0  0  0
    1.5074   -3.1017    1.0195 H   0  0  0  0  0  0  0  0  0  0  0  0
    0.1346   -3.8423    0.1833 H   0  0  0  0  0  0  0  0  0  0  0  0
   -0.1185   -2.4494    1.2411 H   0  0  0  0  0  0  0  0  0  0  0  0
    4.4772    0.7253    0.0468 H   0  0  0  0  0  0  0  0  0  0  0  0
    3.0809    2.6879    0.6397 H   0  0  0  0  0  0  0  0  0  0  0  0
   -1.0314    0.9479   -2.0624 H   0  0  0  0  0  0  0  0  0  0  0  0
   -0.9773   -0.2577    2.0834 H   0  0  0  0  0  0  0  0  0  0  0  0
   -3.4934    0.8046   -2.0609 H   0  0  0  0  0  0  0  0  0  0  0  0
   -3.4384   -0.4007    2.0632 H   0  0  0  0  0  0  0  0  0  0  0  0
   -4.7041    0.1307   -0.0032 H   0  0  0  0  0  0  0  0  0  0  0  0
  1  2  1  0  0  0  0
  1  3  1  0  0  0  0
  1  5  2  0  0  0  0
  2  4  1  0  0  0  0
  2  6  2  0  0  0  0
  3  7  1  0  0  0  0
  3 15  1  0  0  0  0
  3 16  1  0  0  0  0
  4 10  2  0  0  0  0
  4 11  1  0  0  0  0
  5  8  1  0  0  0  0
  5 17  1  0  0  0  0
  6  9  1  0  0  0  0
  6 18  1  0  0  0  0
  7 19  1  0  0  0  0
  7 20  1  0  0  0  0
  7 21  1  0  0  0  0
  8  9  2  0  0  0  0
  8 22  1  0  0  0  0
  9 23  1  0  0  0  0
 10 12  1  0  0  0  0
 10 24  1  0  0  0  0
 11 13  2  0  0  0  0
 11 25  1  0  0  0  0
 12 14  2  0  0  0  0
 12 26  1  0  0  0  0
 13 14  1  0  0  0  0
 13 27  1  0  0  0  0
 14 28  1  0  0  0  0
M  END
> <PUBCHEM_COMPOUND_CID>
15742

> <PUBCHEM_CONFORMER_RMSD>
0.6

> <PUBCHEM_CONFORMER_DIVERSEORDER>
1

> <PUBCHEM_MMFF94_PARTIAL_CHARGES>
20
1 -0.14
10 -0.15
11 -0.15
12 -0.15
13 -0.15
14 -0.15
17 0.15
18 0.15
22 0.15
23 0.15
24 0.15
25 0.15
26 0.15
27 0.15
28 0.15
3 0.14
5 -0.15
6 -0.15
8 -0.15
9 -0.15

> <PUBCHEM_EFFECTIVE_ROTOR_COUNT>
2

> <PUBCHEM_PHARMACOPHORE_FEATURES>
3
1 7 hydrophobe
6 1 2 5 6 8 9 rings
6 4 10 11 12 13 14 rings

> <PUBCHEM_HEAVY_ATOM_COUNT>
14

> <PUBCHEM_ATOM_DEF_STEREO_COUNT>
0

> <PUBCHEM_ATOM_UDEF_STEREO_COUNT>
0

> <PUBCHEM_BOND_DEF_STEREO_COUNT>
0

> <PUBCHEM_BOND_UDEF_STEREO_COUNT>
0

> <PUBCHEM_ISOTOPIC_ATOM_COUNT>
0

> <PUBCHEM_COMPONENT_COUNT>
1

> <PUBCHEM_CACTVS_TAUTO_COUNT>
1

> <PUBCHEM_CONFORMER_ID>
00003D7E00000001

> <PUBCHEM_MMFF94_ENERGY>
43.067

> <PUBCHEM_FEATURE_SELFOVERLAP>
15.223

> <PUBCHEM_SHAPE_FINGERPRINT>
1 1 18410006633094110334
10219947 1 18410576192981191972
107287 299 18334864900128679598
11471102 20 18413105035280935981
11680611 10 17755557671683393026
12236239 1 17203330009237016777
12326174 3 18271527477129231022
12491281 212 16701751534992461992
13380535 76 18271524316386598974
13464514 151 17828190013406877549
13538477 17 16845564323327556253
13581323 91 16008749117271305201
14251717 144 18342173358340145935
15207287 21 17894910745749814123
15219456 202 18187645773790433333
15309172 13 18410295851706919040
15502708 68 18411139125638641218
15775835 57 18341893025761335252
15852999 172 17749103366334412515
16945 1 18273217469524408294
18175812 5 18040718094899834653
18186145 218 18201442501525216164
19049666 15 17970907748321591949
19422 9 17275389802297979741
200 152 18131344216070635317
20201158 50 18261675874487610251
20279233 1 18113618976081265121
204376 136 18339922740011803608
20645477 70 18271237206449752271
21639500 275 18271798055673762676
21730867 7 18409450275683210774
22802520 49 17898284996674939237
23236772 104 17561366188302885937
23402539 116 17240754112650522295
23419403 2 16907279992377768038
23557571 272 17240487970770264519
23559900 14 17240759537289208010
25 1 18342459244311540588
257057 1 17399220959368093306
2748010 2 18267596882116126902
2871803 45 18267570481342893335
474 4 17272835748672714296
528886 8 18271803549073883096
568465 68 18336844064003010009
63268167 104 18202843257795483984
633830 44 18131084735120644852
77492 1 17275386499463035917
81228 2 17616803779255508650
8272917 22 18129671777385735511

> <PUBCHEM_SHAPE_MULTIPOLES>
288.11
5.36
2.07
1.09
1.51
1.55
-0.01
-1.6
0
-1.44
0.18
0.75
-0.01
0.5

> <PUBCHEM_SHAPE_SELFOVERLAP>
619.49

> <PUBCHEM_SHAPE_VOLUME>
150.7

> <PUBCHEM_COORDINATE_TYPE>
2
5
10

$$$$
