144703
  -OEChem-11012400543D

 16 17  0     0  0  0  0  0  0999 V2000
    0.5420    0.4102    0.7877 N   0  0  0  0  0  0  0  0  0  0  0  0
   -0.5420   -0.4099    0.7912 N   0  0  0  0  0  0  0  0  0  0  0  0
    2.0533   -1.0324   -0.4035 N   0  0  0  0  0  0  0  0  0  0  0  0
   -2.0519    1.0320   -0.4027 N   0  0  0  0  0  0  0  0  0  0  0  0
    2.7728    0.9826    0.3383 N   0  0  0  0  0  0  0  0  0  0  0  0
   -2.7721   -0.9827    0.3389 N   0  0  0  0  0  0  0  0  0  0  0  0
    3.3354   -0.7696   -0.6934 N   0  0  0  0  0  0  0  0  0  0  0  0
   -3.3336    0.7689   -0.6942 N   0  0  0  0  0  0  0  0  0  0  0  0
    3.8043    0.4136   -0.2734 N   0  0  0  0  0  0  0  0  0  0  0  0
   -3.8029   -0.4141   -0.2744 N   0  0  0  0  0  0  0  0  0  0  0  0
    1.7432    0.0941    0.2433 C   0  0  0  0  0  0  0  0  0  0  0  0
   -1.7485   -0.0926    0.2422 C   0  0  0  0  0  0  0  0  0  0  0  0
    0.4129    1.2964    1.2690 H   0  0  0  0  0  0  0  0  0  0  0  0
   -0.4140   -1.2949    1.2749 H   0  0  0  0  0  0  0  0  0  0  0  0
    3.9168   -1.4274   -1.2017 H   0  0  0  0  0  0  0  0  0  0  0  0
   -3.9143    1.4264   -1.2035 H   0  0  0  0  0  0  0  0  0  0  0  0
  1  2  1  0  0  0  0
  1 11  1  0  0  0  0
  1 13  1  0  0  0  0
  2 12  1  0  0  0  0
  2 14  1  0  0  0  0
  3  7  1  0  0  0  0
  3 11  2  0  0  0  0
  4  8  1  0  0  0  0
  4 12  2  0  0  0  0
  5  9  2  0  0  0  0
  5 11  1  0  0  0  0
  6 10  2  0  0  0  0
  6 12  1  0  0  0  0
  7  9  1  0  0  0  0
  7 15  1  0  0  0  0
  8 10  1  0  0  0  0
  8 16  1  0  0  0  0
M  END
> <PUBCHEM_COMPOUND_CID>
144703

> <PUBCHEM_CONFORMER_RMSD>
0.6

> <PUBCHEM_CONFORMER_DIVERSEORDER>
1
5
2
6
7
4
3

> <PUBCHEM_MMFF94_PARTIAL_CHARGES>
16
1 -0.48
10 -0.42
11 0.6
12 0.6
13 0.4
14 0.4
15 0.27
16 0.27
2 -0.48
3 -0.71
4 -0.71
5 -0.23
6 -0.23
7 0.57
8 0.57
9 -0.42

> <PUBCHEM_EFFECTIVE_ROTOR_COUNT>
3

> <PUBCHEM_PHARMACOPHORE_FEATURES>
6
1 1 donor
1 2 donor
4 1 3 5 11 cation
4 2 4 6 12 cation
5 3 5 7 9 11 rings
5 4 6 8 10 12 rings

> <PUBCHEM_HEAVY_ATOM_COUNT>
12

> <PUBCHEM_ATOM_DEF_STEREO_COUNT>
0

> <PUBCHEM_ATOM_UDEF_STEREO_COUNT>
0

> <PUBCHEM_BOND_DEF_STEREO_COUNT>
0

> <PUBCHEM_BOND_UDEF_STEREO_COUNT>
0

> <PUBCHEM_ISOTOPIC_ATOM_COUNT>
0

> <PUBCHEM_COMPONENT_COUNT>
1

> <PUBCHEM_CACTVS_TAUTO_COUNT>
14

> <PUBCHEM_CONFORMER_ID>
0002353F00000001

> <PUBCHEM_MMFF94_ENERGY>
8.4242

> <PUBCHEM_FEATURE_SELFOVERLAP>
32.045

> <PUBCHEM_SHAPE_FINGERPRINT>
12897270 3 18410573972266562353
12932764 1 18260265239586697067
14325111 11 18335137583333696043
15775835 57 16225761913167406669
18186145 218 18409452453310783760
190213 19 15841834451501874318
20201158 50 18343023280833775850
20279233 1 18410855473087098754
20361792 2 15841544171979597657
20645477 70 18130225956330734167
21293036 1 18342458157573973442
22169311 14 9511462220989528478
22485316 2 16774074072635793135
23402539 116 18040704892518383414
23402655 69 18343300344768362388
93112 12 18410573993741385781

> <PUBCHEM_SHAPE_MULTIPOLES>
197.14
7.15
1
0.78
0.01
0
-0.03
0
1.59
0
0.07
0
0
0.53

> <PUBCHEM_SHAPE_SELFOVERLAP>
416.635

> <PUBCHEM_SHAPE_VOLUME>
108.4

> <PUBCHEM_COORDINATE_TYPE>
2
5
10

$$$$
