5463213
  -OEChem-11012400513D

 20 21  0     0  0  0  0  0  0999 V2000
   -2.8177    0.6621    0.0000 N   0  0  0  0  0  0  0  0  0  0  0  0
    2.8160   -0.6629    0.0001 N   0  0  0  0  0  0  0  0  0  0  0  0
   -0.4719    0.4153    0.0002 N   0  0  0  0  0  0  0  0  0  0  0  0
    0.4701   -0.4154    0.0003 N   0  0  0  0  0  0  0  0  0  0  0  0
   -3.9175   -0.1040   -0.0005 N   0  0  0  0  0  0  0  0  0  0  0  0
    3.9160    0.1028   -0.0005 N   0  0  0  0  0  0  0  0  0  0  0  0
   -2.0899   -1.3807   -0.0006 N   0  0  0  0  0  0  0  0  0  0  0  0
    2.0887    1.3801   -0.0006 N   0  0  0  0  0  0  0  0  0  0  0  0
   -3.4661   -1.3523   -0.0013 N   0  0  0  0  0  0  0  0  0  0  0  0
    3.4650    1.3514   -0.0013 N   0  0  0  0  0  0  0  0  0  0  0  0
   -1.7097   -0.1238   -0.0002 C   0  0  0  0  0  0  0  0  0  0  0  0
    1.7195    0.1283   -0.0001 C   0  0  0  0  0  0  0  0  0  0  0  0
   -2.9205    2.0988    0.0023 C   0  0  0  0  0  0  0  0  0  0  0  0
    2.9182   -2.0997    0.0023 C   0  0  0  0  0  0  0  0  0  0  0  0
   -3.0462    2.4286    1.0363 H   0  0  0  0  0  0  0  0  0  0  0  0
   -2.0157    2.5334   -0.4286 H   0  0  0  0  0  0  0  0  0  0  0  0
   -3.7855    2.3925   -0.5983 H   0  0  0  0  0  0  0  0  0  0  0  0
    3.0737   -2.4306   -1.0272 H   0  0  0  0  0  0  0  0  0  0  0  0
    3.7654   -2.3921    0.6281 H   0  0  0  0  0  0  0  0  0  0  0  0
    2.0015   -2.5345    0.4069 H   0  0  0  0  0  0  0  0  0  0  0  0
  1  5  1  0  0  0  0
  1 11  1  0  0  0  0
  1 13  1  0  0  0  0
  2  6  1  0  0  0  0
  2 12  1  0  0  0  0
  2 14  1  0  0  0  0
  3  4  2  0  0  0  0
  3 11  1  0  0  0  0
  4 12  1  0  0  0  0
  5  9  2  0  0  0  0
  6 10  2  0  0  0  0
  7  9  1  0  0  0  0
  7 11  2  0  0  0  0
  8 10  1  0  0  0  0
  8 12  2  0  0  0  0
 13 15  1  0  0  0  0
 13 16  1  0  0  0  0
 13 17  1  0  0  0  0
 14 18  1  0  0  0  0
 14 19  1  0  0  0  0
 14 20  1  0  0  0  0
M  END
> <PUBCHEM_COMPOUND_CID>
5463213

> <PUBCHEM_CONFORMER_RMSD>
0.6

> <PUBCHEM_CONFORMER_DIVERSEORDER>
1
4
5
3
2

> <PUBCHEM_MMFF94_PARTIAL_CHARGES>
12
1 0.31
11 0.31
12 0.31
13 0.26
14 0.26
2 0.31
3 -0.13
4 -0.13
5 -0.42
6 -0.42
7 -0.34
8 -0.34

> <PUBCHEM_EFFECTIVE_ROTOR_COUNT>
2

> <PUBCHEM_PHARMACOPHORE_FEATURES>
4
4 1 3 7 11 cation
4 2 4 8 12 cation
5 1 5 7 9 11 rings
5 2 6 8 10 12 rings

> <PUBCHEM_HEAVY_ATOM_COUNT>
14

> <PUBCHEM_ATOM_DEF_STEREO_COUNT>
0

> <PUBCHEM_ATOM_UDEF_STEREO_COUNT>
0

> <PUBCHEM_BOND_DEF_STEREO_COUNT>
1

> <PUBCHEM_BOND_UDEF_STEREO_COUNT>
0

> <PUBCHEM_ISOTOPIC_ATOM_COUNT>
0

> <PUBCHEM_COMPONENT_COUNT>
1

> <PUBCHEM_CACTVS_TAUTO_COUNT>
1

> <PUBCHEM_CONFORMER_ID>
00535CAD00000001

> <PUBCHEM_MMFF94_ENERGY>
11.1656

> <PUBCHEM_FEATURE_SELFOVERLAP>
20.297

> <PUBCHEM_SHAPE_FINGERPRINT>
10608611 8 18411415107257377505
12162725 195 18407760356381611724
12932764 1 17489297624649464966
13296908 3 18410575063235871134
14144814 61 18410855447243260009
14325111 11 18410575076099537568
14415576 193 18336269024276059748
15442244 35 18194965145434534744
17834074 16 18410294709251074878
18186145 218 18338520741994521870
20645477 56 18334857178263206757
20645477 70 18341330007052066142
20871998 22 18054227631879673846
23402539 116 18342730828658953469
23402655 69 18411417297833006588
23463225 33 18411700954600310494
23559900 14 18341888542168847426
4214541 1 18410573942207189345
5104073 3 18410573967971582945
77779 3 18410577279391367172
93112 12 18410575058893275213
9709674 26 18410016549947308450

> <PUBCHEM_SHAPE_MULTIPOLES>
238.3
7.76
1.87
0.55
0.01
0
0
0
0
0
0
0
0
0

> <PUBCHEM_SHAPE_SELFOVERLAP>
499.574

> <PUBCHEM_SHAPE_VOLUME>
135.1

> <PUBCHEM_COORDINATE_TYPE>
2
5
10

$$$$
