140044
  -OEChem-11012400523D

 23 23  0     0  0  0  0  0  0999 V2000
    1.3421   -0.0065    0.7165 S   0  0  0  0  0  0  0  0  0  0  0  0
    1.6613    1.2443    1.3945 O   0  0  0  0  0  0  0  0  0  0  0  0
    1.6404   -1.2694    1.3806 O   0  0  0  0  0  0  0  0  0  0  0  0
   -0.3576   -0.0028    0.3173 C   0  0  0  0  0  0  0  0  0  0  0  0
   -3.0735    0.0037   -0.3198 C   0  0  0  0  0  0  0  0  0  0  0  0
   -1.0371   -1.2090    0.1477 C   0  0  0  0  0  0  0  0  0  0  0  0
   -1.0360    1.2068    0.1684 C   0  0  0  0  0  0  0  0  0  0  0  0
   -2.3951   -1.2058   -0.1710 C   0  0  0  0  0  0  0  0  0  0  0  0
   -2.3941    1.2101   -0.1501 C   0  0  0  0  0  0  0  0  0  0  0  0
   -4.5257    0.0074   -0.6591 C   0  0  0  0  0  0  0  0  0  0  0  0
    2.0973    0.0065   -0.8432 C   0  0  0  0  0  0  0  0  0  0  0  0
    3.3918    0.0071   -0.9411 C   0  0  0  0  0  0  0  0  0  0  0  0
    4.6863    0.0076   -1.0406 C   0  0  0  0  0  0  0  0  0  0  0  0
   -0.5277   -2.1628    0.2526 H   0  0  0  0  0  0  0  0  0  0  0  0
   -0.5254    2.1580    0.2902 H   0  0  0  0  0  0  0  0  0  0  0  0
   -2.9137   -2.1522   -0.3001 H   0  0  0  0  0  0  0  0  0  0  0  0
   -2.9120    2.1588   -0.2628 H   0  0  0  0  0  0  0  0  0  0  0  0
   -4.7916    0.8917   -1.2483 H   0  0  0  0  0  0  0  0  0  0  0  0
   -4.7938   -0.8690   -1.2589 H   0  0  0  0  0  0  0  0  0  0  0  0
   -5.1254    0.0025    0.2564 H   0  0  0  0  0  0  0  0  0  0  0  0
    1.4853    0.0135   -1.7382 H   0  0  0  0  0  0  0  0  0  0  0  0
    5.3075   -0.0063   -0.1527 H   0  0  0  0  0  0  0  0  0  0  0  0
    5.1653    0.0224   -2.0126 H   0  0  0  0  0  0  0  0  0  0  0  0
  1  2  2  0  0  0  0
  1  3  2  0  0  0  0
  1  4  1  0  0  0  0
  1 11  1  0  0  0  0
  4  6  2  0  0  0  0
  4  7  1  0  0  0  0
  5  8  2  0  0  0  0
  5  9  1  0  0  0  0
  5 10  1  0  0  0  0
  6  8  1  0  0  0  0
  6 14  1  0  0  0  0
  7  9  2  0  0  0  0
  7 15  1  0  0  0  0
  8 16  1  0  0  0  0
  9 17  1  0  0  0  0
 10 18  1  0  0  0  0
 10 19  1  0  0  0  0
 10 20  1  0  0  0  0
 11 12  2  0  0  0  0
 11 21  1  0  0  0  0
 12 13  2  0  0  0  0
 13 22  1  0  0  0  0
 13 23  1  0  0  0  0
M  END
> <PUBCHEM_COMPOUND_CID>
140044

> <PUBCHEM_CONFORMER_RMSD>
0.6

> <PUBCHEM_CONFORMER_DIVERSEORDER>
1
4
2
3

> <PUBCHEM_MMFF94_PARTIAL_CHARGES>
20
1 1.33
10 0.14
11 -0.1
12 -0.13
13 -0.24
14 0.15
15 0.15
16 0.15
17 0.15
2 -0.65
21 0.15
22 0.15
23 0.15
3 -0.65
4 -0.01
5 -0.14
6 -0.15
7 -0.15
8 -0.15
9 -0.15

> <PUBCHEM_EFFECTIVE_ROTOR_COUNT>
2

> <PUBCHEM_PHARMACOPHORE_FEATURES>
4
1 13 hydrophobe
1 2 acceptor
1 3 acceptor
6 4 5 6 7 8 9 rings

> <PUBCHEM_HEAVY_ATOM_COUNT>
13

> <PUBCHEM_ATOM_DEF_STEREO_COUNT>
0

> <PUBCHEM_ATOM_UDEF_STEREO_COUNT>
0

> <PUBCHEM_BOND_DEF_STEREO_COUNT>
0

> <PUBCHEM_BOND_UDEF_STEREO_COUNT>
0

> <PUBCHEM_ISOTOPIC_ATOM_COUNT>
0

> <PUBCHEM_COMPONENT_COUNT>
1

> <PUBCHEM_CACTVS_TAUTO_COUNT>
1

> <PUBCHEM_CONFORMER_ID>
0002230C00000001

> <PUBCHEM_MMFF94_ENERGY>
16.6238

> <PUBCHEM_FEATURE_SELFOVERLAP>
20.315

> <PUBCHEM_SHAPE_FINGERPRINT>
10130415 120 11239992378258884247
11031198 65 16370729218560087446
12119455 92 14129057045101224456
12932764 1 18410845564898019361
13760787 19 17676202481728329187
14911166 2 18412824694528766141
14943859 89 17894355492308948718
14993402 34 18113617889391307557
15219456 202 17845931956565876368
15775835 57 17240203239633479934
16945 1 18336816559565209001
170605 34 16081090376740168856
1813 80 14548477829376837080
18186145 218 18201427078682745633
19784866 240 15267350625548034845
200 152 16056882420483241173
20112054 13 14635161178420775484
20201158 50 17704080585601140134
20523700 14 18113897169476329215
20645476 183 17894910758824814591
20645477 70 16845290561690090333
20671657 53 17060350604209751360
20871999 31 18272374126847407333
21119208 17 18186526509623790230
21501925 9 10807934868660463451
22926399 37 16950569895334998053
231179 274 15502089756898080086
23402539 116 18342459197088227060
23557571 272 18055622069646180259
23559900 14 18341335565741397652
2748010 2 18123176072999872571
8030462 33 18333723607275287011

> <PUBCHEM_SHAPE_MULTIPOLES>
259.64
7.55
1.25
1.14
1.96
0
-0.19
-0.02
3.5
-0.48
-0.26
0.89
0
-0.01

> <PUBCHEM_SHAPE_SELFOVERLAP>
522.795

> <PUBCHEM_SHAPE_VOLUME>
151.3

> <PUBCHEM_COORDINATE_TYPE>
2
5
10

$$$$
