71816169
  -OEChem-11012400553D

 28 27  0     1  0  0  0  0  0999 V2000
   -2.0168    2.2388   -0.1273 N   0  0  0  0  0  0  0  0  0  0  0  0
    2.0129   -2.2418    0.1254 N   0  0  0  0  0  0  0  0  0  0  0  0
   -0.7637   -0.0688    0.2453 C   0  0  1  0  0  0  0  0  0  0  0  0
    0.7648    0.0688   -0.2458 C   0  0  2  0  0  0  0  0  0  0  0  0
   -1.5248   -1.1665   -0.5744 C   0  0  0  0  0  0  0  0  0  0  0  0
    1.5242    1.1666    0.5753 C   0  0  0  0  0  0  0  0  0  0  0  0
   -0.8534   -0.3959    1.7585 C   0  0  0  0  0  0  0  0  0  0  0  0
    0.8552    0.3967   -1.7588 C   0  0  0  0  0  0  0  0  0  0  0  0
   -2.9910   -1.3864   -0.2029 C   0  0  0  0  0  0  0  0  0  0  0  0
    2.9907    1.3879    0.2054 C   0  0  0  0  0  0  0  0  0  0  0  0
   -1.4665    1.2299    0.0348 C   0  0  0  0  0  0  0  0  0  0  0  0
    1.4682   -1.2296   -0.0355 C   0  0  0  0  0  0  0  0  0  0  0  0
   -1.5187   -0.9089   -1.6395 H   0  0  0  0  0  0  0  0  0  0  0  0
   -1.0116   -2.1304   -0.4792 H   0  0  0  0  0  0  0  0  0  0  0  0
    1.0106    2.1304    0.4803 H   0  0  0  0  0  0  0  0  0  0  0  0
    1.5178    0.9084    1.6403 H   0  0  0  0  0  0  0  0  0  0  0  0
   -0.3929   -1.3613    1.9915 H   0  0  0  0  0  0  0  0  0  0  0  0
   -0.3782    0.3701    2.3792 H   0  0  0  0  0  0  0  0  0  0  0  0
   -1.8932   -0.4366    2.1026 H   0  0  0  0  0  0  0  0  0  0  0  0
    0.3957    1.3627   -1.9913 H   0  0  0  0  0  0  0  0  0  0  0  0
    0.3791   -0.3685   -2.3797 H   0  0  0  0  0  0  0  0  0  0  0  0
    1.8952    0.4366   -2.1026 H   0  0  0  0  0  0  0  0  0  0  0  0
   -3.0943   -1.7944    0.8064 H   0  0  0  0  0  0  0  0  0  0  0  0
   -3.4389   -2.1122   -0.8904 H   0  0  0  0  0  0  0  0  0  0  0  0
   -3.5759   -0.4650   -0.2715 H   0  0  0  0  0  0  0  0  0  0  0  0
    3.0947    1.7959   -0.8038 H   0  0  0  0  0  0  0  0  0  0  0  0
    3.4374    2.1140    0.8934 H   0  0  0  0  0  0  0  0  0  0  0  0
    3.5762    0.4669    0.2746 H   0  0  0  0  0  0  0  0  0  0  0  0
  1 11  3  0  0  0  0
  2 12  3  0  0  0  0
  3  4  1  0  0  0  0
  3  5  1  0  0  0  0
  3  7  1  0  0  0  0
  3 11  1  0  0  0  0
  4  6  1  0  0  0  0
  4  8  1  0  0  0  0
  4 12  1  0  0  0  0
  5  9  1  0  0  0  0
  5 13  1  0  0  0  0
  5 14  1  0  0  0  0
  6 10  1  0  0  0  0
  6 15  1  0  0  0  0
  6 16  1  0  0  0  0
  7 17  1  0  0  0  0
  7 18  1  0  0  0  0
  7 19  1  0  0  0  0
  8 20  1  0  0  0  0
  8 21  1  0  0  0  0
  8 22  1  0  0  0  0
  9 23  1  0  0  0  0
  9 24  1  0  0  0  0
  9 25  1  0  0  0  0
 10 26  1  0  0  0  0
 10 27  1  0  0  0  0
 10 28  1  0  0  0  0
M  END
> <PUBCHEM_COMPOUND_CID>
71816169

> <PUBCHEM_CONFORMER_RMSD>
0.6

> <PUBCHEM_CONFORMER_DIVERSEORDER>
1
18
6
7
16
19
17
10
12
4
9
15
13
11
8
5
14
2
3

> <PUBCHEM_MMFF94_PARTIAL_CHARGES>
6
1 -0.56
11 0.36
12 0.36
2 -0.56
3 0.2
4 0.2

> <PUBCHEM_EFFECTIVE_ROTOR_COUNT>
3

> <PUBCHEM_PHARMACOPHORE_FEATURES>
7
1 1 acceptor
1 10 hydrophobe
1 2 acceptor
1 7 hydrophobe
1 8 hydrophobe
1 9 hydrophobe
4 3 4 5 6 hydrophobe

> <PUBCHEM_HEAVY_ATOM_COUNT>
12

> <PUBCHEM_ATOM_DEF_STEREO_COUNT>
2

> <PUBCHEM_ATOM_UDEF_STEREO_COUNT>
0

> <PUBCHEM_BOND_DEF_STEREO_COUNT>
0

> <PUBCHEM_BOND_UDEF_STEREO_COUNT>
0

> <PUBCHEM_ISOTOPIC_ATOM_COUNT>
0

> <PUBCHEM_COMPONENT_COUNT>
1

> <PUBCHEM_CACTVS_TAUTO_COUNT>
1

> <PUBCHEM_CONFORMER_ID>
0447D3E900000001

> <PUBCHEM_MMFF94_ENERGY>
28.7326

> <PUBCHEM_FEATURE_SELFOVERLAP>
35.904

> <PUBCHEM_SHAPE_FINGERPRINT>
12423570 1 17461418485172831527
12897270 3 18268704085819099629
12932764 1 18268730358033809413
13024252 1 17824808182191366352
13380535 21 18340776956966275480
13380535 239 17702965710727646629
13380536 237 18339346483790821760
15557651 10 17549317743969901440
15775835 57 18201166567035127392
16945 1 18127391548487237638
19010151 120 17983858062329187121
20082192 1 17631191713343278623
20511035 2 17972907781204720765
21501502 16 18411133606563331352
21922407 69 17846235348665954530
22344851 12 17045491794906883251
23526114 1 18341054034465992502
23552423 10 18335701619919306295
241688 4 17895749569841871853
24536 1 17459207289932119174
2748010 2 18339922623541083172
5084963 1 17844533412319888328
528886 8 18052526957309351011
57177213 63 18335424612061927084
68250623 7 18339636750512560491

> <PUBCHEM_SHAPE_MULTIPOLES>
236.99
3.72
2.1
1.22
0
0
0
0
0
0
0
0
0
0

> <PUBCHEM_SHAPE_SELFOVERLAP>
451.478

> <PUBCHEM_SHAPE_VOLUME>
144.6

> <PUBCHEM_COORDINATE_TYPE>
2
5
10

$$$$
