90473536
  -OEChem-11012400433D

 28 27  0     1  0  0  0  0  0999 V2000
    0.1515   -1.4025   -1.0493 O   0  0  0  0  0  0  0  0  0  0  0  0
   -0.1517    1.4026   -1.0491 O   0  0  0  0  0  0  0  0  0  0  0  0
    2.2325    0.4247    1.2198 O   0  0  0  0  0  0  0  0  0  0  0  0
   -2.2324   -0.4250    1.2197 O   0  0  0  0  0  0  0  0  0  0  0  0
    2.6863   -0.5607   -0.8154 O   0  0  0  0  0  0  0  0  0  0  0  0
   -2.6863    0.5611   -0.8150 O   0  0  0  0  0  0  0  0  0  0  0  0
    0.4385   -0.6268    0.1069 C   0  0  2  0  0  0  0  0  0  0  0  0
   -0.4384    0.6269    0.1070 C   0  0  2  0  0  0  0  0  0  0  0  0
    1.9145   -0.2746    0.0909 C   0  0  0  0  0  0  0  0  0  0  0  0
   -1.9146    0.2748    0.0912 C   0  0  0  0  0  0  0  0  0  0  0  0
    0.5330   -2.7601   -0.8743 C   0  0  0  0  0  0  0  0  0  0  0  0
   -0.5329    2.7603   -0.8739 C   0  0  0  0  0  0  0  0  0  0  0  0
    3.5966    0.8456    1.3211 C   0  0  0  0  0  0  0  0  0  0  0  0
   -3.5963   -0.8464    1.3208 C   0  0  0  0  0  0  0  0  0  0  0  0
    0.2391   -1.2221    1.0076 H   0  0  0  0  0  0  0  0  0  0  0  0
   -0.2390    1.2221    1.0077 H   0  0  0  0  0  0  0  0  0  0  0  0
    0.3257   -3.2926   -1.8069 H   0  0  0  0  0  0  0  0  0  0  0  0
   -0.0617   -3.2226   -0.0801 H   0  0  0  0  0  0  0  0  0  0  0  0
    1.5982   -2.8645   -0.6514 H   0  0  0  0  0  0  0  0  0  0  0  0
   -0.3260    3.2928   -1.8066 H   0  0  0  0  0  0  0  0  0  0  0  0
    0.0622    3.2227   -0.0799 H   0  0  0  0  0  0  0  0  0  0  0  0
   -1.5981    2.8648   -0.6505 H   0  0  0  0  0  0  0  0  0  0  0  0
    3.7160    1.3874    2.2631 H   0  0  0  0  0  0  0  0  0  0  0  0
    3.8472    1.5179    0.4950 H   0  0  0  0  0  0  0  0  0  0  0  0
    4.2616   -0.0232    1.3288 H   0  0  0  0  0  0  0  0  0  0  0  0
   -3.7156   -1.3886    2.2625 H   0  0  0  0  0  0  0  0  0  0  0  0
   -3.8468   -1.5184    0.4944 H   0  0  0  0  0  0  0  0  0  0  0  0
   -4.2616    0.0223    1.3288 H   0  0  0  0  0  0  0  0  0  0  0  0
  1  7  1  0  0  0  0
  1 11  1  0  0  0  0
  2  8  1  0  0  0  0
  2 12  1  0  0  0  0
  3  9  1  0  0  0  0
  3 13  1  0  0  0  0
  4 10  1  0  0  0  0
  4 14  1  0  0  0  0
  5  9  2  0  0  0  0
  6 10  2  0  0  0  0
  7  8  1  0  0  0  0
  7  9  1  0  0  0  0
  7 15  1  0  0  0  0
  8 10  1  0  0  0  0
  8 16  1  0  0  0  0
 11 17  1  0  0  0  0
 11 18  1  0  0  0  0
 11 19  1  0  0  0  0
 12 20  1  0  0  0  0
 12 21  1  0  0  0  0
 12 22  1  0  0  0  0
 13 23  1  0  0  0  0
 13 24  1  0  0  0  0
 13 25  1  0  0  0  0
 14 26  1  0  0  0  0
 14 27  1  0  0  0  0
 14 28  1  0  0  0  0
M  END
> <PUBCHEM_COMPOUND_CID>
90473536

> <PUBCHEM_CONFORMER_RMSD>
0.8

> <PUBCHEM_CONFORMER_DIVERSEORDER>
1
8
17
9
19
2
5
16
12
14
18
15
13
4
10
7
11
3
6

> <PUBCHEM_MMFF94_PARTIAL_CHARGES>
14
1 -0.56
10 0.66
11 0.28
12 0.28
13 0.28
14 0.28
2 -0.56
3 -0.43
4 -0.43
5 -0.57
6 -0.57
7 0.34
8 0.34
9 0.66

> <PUBCHEM_EFFECTIVE_ROTOR_COUNT>
7

> <PUBCHEM_PHARMACOPHORE_FEATURES>
4
1 1 acceptor
1 2 acceptor
1 5 acceptor
1 6 acceptor

> <PUBCHEM_HEAVY_ATOM_COUNT>
14

> <PUBCHEM_ATOM_DEF_STEREO_COUNT>
2

> <PUBCHEM_ATOM_UDEF_STEREO_COUNT>
0

> <PUBCHEM_BOND_DEF_STEREO_COUNT>
0

> <PUBCHEM_BOND_UDEF_STEREO_COUNT>
0

> <PUBCHEM_ISOTOPIC_ATOM_COUNT>
0

> <PUBCHEM_COMPONENT_COUNT>
1

> <PUBCHEM_CACTVS_TAUTO_COUNT>
1

> <PUBCHEM_CONFORMER_ID>
0564844000000001

> <PUBCHEM_MMFF94_ENERGY>
28.8761

> <PUBCHEM_FEATURE_SELFOVERLAP>
20.317

> <PUBCHEM_SHAPE_FINGERPRINT>
10219947 1 18411710906213478683
10857977 72 18260833704309742249
12423570 1 18122625225710371041
12491281 212 16271929362698560962
13380536 167 17402613446592059727
14648413 74 17764859204793779264
15309172 13 18272926146208767554
15490181 7 18199734874215776822
15852999 172 17536846928431959613
16945 1 18410855464423129103
17844478 74 18411419488435100080
18175812 5 18410575054598307895
18380122 1 18410856516690116627
20379382 53 17558563408462173951
20645477 56 18271227427263075184
20653085 51 14261068860865920562
21061003 4 18410868658942685049
21501502 16 17906170646502617149
22802520 49 18050010982546886205
23402539 116 17823112593954592453
23557571 272 18042135275568102263
2748010 2 18266741289959555461
3250762 1 17906171750303924268
430814 3 15913610557694027121
44249140 249 18198909097653452416
5084963 1 18264496091948473182
528862 383 17826807128600873709
68419 9 17405156608360085591

> <PUBCHEM_SHAPE_MULTIPOLES>
252.9
4.77
2.29
1.36
0
0
0.24
0
2.74
0
-1.24
0
0
1.1

> <PUBCHEM_SHAPE_SELFOVERLAP>
486.518

> <PUBCHEM_SHAPE_VOLUME>
154.9

> <PUBCHEM_COORDINATE_TYPE>
2
5
10

$$$$
