607509
  -OEChem-11012400583D

 32 31  0     0  0  0  0  0  0999 V2000
   -1.1764   -0.0057    0.0068 Si  0  0  0  0  0  0  0  0  0  0  0  0
    1.1437    0.0994   -0.2544 Si  0  0  0  0  0  0  0  0  0  0  0  0
   -1.7379    1.4938    0.4688 O   0  0  0  0  0  0  0  0  0  0  0  0
   -1.8084   -0.4669   -1.4675 O   0  0  0  0  0  0  0  0  0  0  0  0
   -1.4826   -1.1658    1.1657 O   0  0  0  0  0  0  0  0  0  0  0  0
    1.6401   -1.4256   -0.7150 O   0  0  0  0  0  0  0  0  0  0  0  0
    1.4558    1.2083   -1.4614 O   0  0  0  0  0  0  0  0  0  0  0  0
    1.8354    0.5631    1.1891 O   0  0  0  0  0  0  0  0  0  0  0  0
   -1.3210    2.0727    1.6965 C   0  0  0  0  0  0  0  0  0  0  0  0
   -3.2134   -0.5964   -1.6295 C   0  0  0  0  0  0  0  0  0  0  0  0
   -1.0716   -2.5061    0.9388 C   0  0  0  0  0  0  0  0  0  0  0  0
    3.0074   -1.6504   -1.0279 C   0  0  0  0  0  0  0  0  0  0  0  0
    1.1120    2.5742   -1.2800 C   0  0  0  0  0  0  0  0  0  0  0  0
    1.6167   -0.1946    2.3700 C   0  0  0  0  0  0  0  0  0  0  0  0
   -1.9202    2.9733    1.8636 H   0  0  0  0  0  0  0  0  0  0  0  0
   -0.2710    2.3777    1.6573 H   0  0  0  0  0  0  0  0  0  0  0  0
   -1.4925    1.3967    2.5415 H   0  0  0  0  0  0  0  0  0  0  0  0
   -3.4101   -0.9104   -2.6591 H   0  0  0  0  0  0  0  0  0  0  0  0
   -3.7191    0.3611   -1.4635 H   0  0  0  0  0  0  0  0  0  0  0  0
   -3.6200   -1.3603   -0.9576 H   0  0  0  0  0  0  0  0  0  0  0  0
    0.0006   -2.6261    1.1187 H   0  0  0  0  0  0  0  0  0  0  0  0
   -1.3328   -2.8597   -0.0651 H   0  0  0  0  0  0  0  0  0  0  0  0
   -1.5961   -3.1420    1.6594 H   0  0  0  0  0  0  0  0  0  0  0  0
    3.1259   -2.7049   -1.2952 H   0  0  0  0  0  0  0  0  0  0  0  0
    3.6499   -1.4452   -0.1644 H   0  0  0  0  0  0  0  0  0  0  0  0
    3.3212   -1.0457   -1.8860 H   0  0  0  0  0  0  0  0  0  0  0  0
    0.0296    2.7215   -1.3464 H   0  0  0  0  0  0  0  0  0  0  0  0
    1.5734    3.1471   -2.0907 H   0  0  0  0  0  0  0  0  0  0  0  0
    1.4945    2.9700   -0.3325 H   0  0  0  0  0  0  0  0  0  0  0  0
    0.5908   -0.0866    2.7328 H   0  0  0  0  0  0  0  0  0  0  0  0
    2.2830    0.1951    3.1461 H   0  0  0  0  0  0  0  0  0  0  0  0
    1.8612   -1.2524    2.2229 H   0  0  0  0  0  0  0  0  0  0  0  0
  1  2  1  0  0  0  0
  1  3  1  0  0  0  0
  1  4  1  0  0  0  0
  1  5  1  0  0  0  0
  2  6  1  0  0  0  0
  2  7  1  0  0  0  0
  2  8  1  0  0  0  0
  3  9  1  0  0  0  0
  4 10  1  0  0  0  0
  5 11  1  0  0  0  0
  6 12  1  0  0  0  0
  7 13  1  0  0  0  0
  8 14  1  0  0  0  0
  9 15  1  0  0  0  0
  9 16  1  0  0  0  0
  9 17  1  0  0  0  0
 10 18  1  0  0  0  0
 10 19  1  0  0  0  0
 10 20  1  0  0  0  0
 11 21  1  0  0  0  0
 11 22  1  0  0  0  0
 11 23  1  0  0  0  0
 12 24  1  0  0  0  0
 12 25  1  0  0  0  0
 12 26  1  0  0  0  0
 13 27  1  0  0  0  0
 13 28  1  0  0  0  0
 13 29  1  0  0  0  0
 14 30  1  0  0  0  0
 14 31  1  0  0  0  0
 14 32  1  0  0  0  0
M  END
> <PUBCHEM_COMPOUND_CID>
607509

> <PUBCHEM_CONFORMER_RMSD>
0.8

> <PUBCHEM_CONFORMER_DIVERSEORDER>
19
3
38
7
16
43
27
25
35
39
46
26
33
8
24
36
6
41
20
11
44
22
31
14
34
42
32
28
9
17
30
45
40
13
4
37
23
2
29
12
5
18
1
21
15
10

> <PUBCHEM_MMFF94_PARTIAL_CHARGES>
14
1 0.89
10 0.28
11 0.28
12 0.28
13 0.28
14 0.28
2 0.89
3 -0.58
4 -0.58
5 -0.58
6 -0.58
7 -0.58
8 -0.58
9 0.28

> <PUBCHEM_EFFECTIVE_ROTOR_COUNT>
7

> <PUBCHEM_PHARMACOPHORE_FEATURES>
0

> <PUBCHEM_HEAVY_ATOM_COUNT>
14

> <PUBCHEM_ATOM_DEF_STEREO_COUNT>
0

> <PUBCHEM_ATOM_UDEF_STEREO_COUNT>
0

> <PUBCHEM_BOND_DEF_STEREO_COUNT>
0

> <PUBCHEM_BOND_UDEF_STEREO_COUNT>
0

> <PUBCHEM_ISOTOPIC_ATOM_COUNT>
0

> <PUBCHEM_COMPONENT_COUNT>
1

> <PUBCHEM_CACTVS_TAUTO_COUNT>
1

> <PUBCHEM_CONFORMER_ID>
0009451500000013

> <PUBCHEM_MMFF94_ENERGY>
23.7553

> <PUBCHEM_FEATURE_SELFOVERLAP>
0

> <PUBCHEM_SHAPE_FINGERPRINT>
12423570 1 8231143473795122904
13380535 239 17825688899310274175
14817 1 16700909163004586724
15557651 10 17549547309908549728
15852999 172 18124288722405580010
16945 1 16962984700199131947
18186145 218 18114168745033315183
20082192 1 18114470066389255322
20511035 2 17986137139411779329
207724 885 18045809808873361612
22344851 12 11994805181970333154
23419403 2 15159170977787455226
241688 4 18121771738399289956
5084963 1 18125173644893387497
528886 8 17972902266609033578

> <PUBCHEM_SHAPE_MULTIPOLES>
289.32
3.73
2.5
2.12
0.34
0.43
-0.63
-1.19
1.39
-0.13
-0.05
-0.08
0.27
-0.33

> <PUBCHEM_SHAPE_SELFOVERLAP>
516.373

> <PUBCHEM_SHAPE_VOLUME>
189.4

> <PUBCHEM_COORDINATE_TYPE>
2
5
10

$$$$
