140055
  -OEChem-11012401233D

 20 21  0     1  0  0  0  0  0999 V2000
   -0.3156   -0.0121    1.2782 O   0  0  0  0  0  0  0  0  0  0  0  0
    0.0827    0.9708    0.2925 C   0  0  1  0  0  0  0  0  0  0  0  0
    1.0854    0.1720   -0.5539 C   0  0  2  0  0  0  0  0  0  0  0  0
   -0.7732   -1.0199    0.3477 C   0  0  2  0  0  0  0  0  0  0  0  0
    0.4840   -1.2420   -0.4933 C   0  0  0  0  0  0  0  0  0  0  0  0
   -1.2277    1.1637   -0.4707 C   0  0  0  0  0  0  0  0  0  0  0  0
   -1.8249   -0.2437   -0.4420 C   0  0  0  0  0  0  0  0  0  0  0  0
    2.4893    0.2112    0.0416 C   0  0  0  0  0  0  0  0  0  0  0  0
    0.4760    1.8820    0.7496 H   0  0  0  0  0  0  0  0  0  0  0  0
    1.1300    0.5472   -1.5826 H   0  0  0  0  0  0  0  0  0  0  0  0
   -1.1485   -1.9144    0.8495 H   0  0  0  0  0  0  0  0  0  0  0  0
    0.2575   -1.6465   -1.4847 H   0  0  0  0  0  0  0  0  0  0  0  0
    1.1608   -1.9391    0.0136 H   0  0  0  0  0  0  0  0  0  0  0  0
   -1.0824    1.5484   -1.4842 H   0  0  0  0  0  0  0  0  0  0  0  0
   -1.8891    1.8514    0.0684 H   0  0  0  0  0  0  0  0  0  0  0  0
   -2.7779   -0.2250    0.0985 H   0  0  0  0  0  0  0  0  0  0  0  0
   -2.0020   -0.6556   -1.4398 H   0  0  0  0  0  0  0  0  0  0  0  0
    3.1712   -0.4192   -0.5386 H   0  0  0  0  0  0  0  0  0  0  0  0
    2.8819    1.2334    0.0305 H   0  0  0  0  0  0  0  0  0  0  0  0
    2.5008   -0.1417    1.0785 H   0  0  0  0  0  0  0  0  0  0  0  0
  1  2  1  0  0  0  0
  1  4  1  0  0  0  0
  2  3  1  0  0  0  0
  2  6  1  0  0  0  0
  2  9  1  0  0  0  0
  3  5  1  0  0  0  0
  3  8  1  0  0  0  0
  3 10  1  0  0  0  0
  4  5  1  0  0  0  0
  4  7  1  0  0  0  0
  4 11  1  0  0  0  0
  5 12  1  0  0  0  0
  5 13  1  0  0  0  0
  6  7  1  0  0  0  0
  6 14  1  0  0  0  0
  6 15  1  0  0  0  0
  7 16  1  0  0  0  0
  7 17  1  0  0  0  0
  8 18  1  0  0  0  0
  8 19  1  0  0  0  0
  8 20  1  0  0  0  0
M  END
> <PUBCHEM_COMPOUND_CID>
140055

> <PUBCHEM_CONFORMER_RMSD>
0.4

> <PUBCHEM_CONFORMER_DIVERSEORDER>
2
4
3
1

> <PUBCHEM_MMFF94_PARTIAL_CHARGES>
3
1 -0.56
2 0.28
4 0.28

> <PUBCHEM_EFFECTIVE_ROTOR_COUNT>
1

> <PUBCHEM_PHARMACOPHORE_FEATURES>
2
1 1 acceptor
7 1 2 3 4 5 6 7 rings

> <PUBCHEM_HEAVY_ATOM_COUNT>
8

> <PUBCHEM_ATOM_DEF_STEREO_COUNT>
0

> <PUBCHEM_ATOM_UDEF_STEREO_COUNT>
3

> <PUBCHEM_BOND_DEF_STEREO_COUNT>
0

> <PUBCHEM_BOND_UDEF_STEREO_COUNT>
0

> <PUBCHEM_ISOTOPIC_ATOM_COUNT>
0

> <PUBCHEM_COMPONENT_COUNT>
1

> <PUBCHEM_CACTVS_TAUTO_COUNT>
1

> <PUBCHEM_CONFORMER_ID>
0002231700000002

> <PUBCHEM_MMFF94_ENERGY>
28.0615

> <PUBCHEM_FEATURE_SELFOVERLAP>
10.148

> <PUBCHEM_SHAPE_FINGERPRINT>
12423570 1 8470009750799379615
13024252 1 16370722673156463868
137420 1 14614634584361547475
16945 1 18334290985128967839
21040471 1 18263366884484380540
23552423 10 18260553277584970950
24536 1 17532680995017592726
29004967 10 15913045455956780710
369184 2 18410851083978499904
5084963 1 17385719196906826996
5943 1 17115558392541004147

> <PUBCHEM_SHAPE_MULTIPOLES>
158.77
2.31
1.25
0.91
1.03
0.06
-0.14
-0.2
0.26
-0.21
0.09
-0.07
0.01
0.13

> <PUBCHEM_SHAPE_SELFOVERLAP>
332.216

> <PUBCHEM_SHAPE_VOLUME>
94.7

> <PUBCHEM_COORDINATE_TYPE>
2
5
10

$$$$
