145367
  -OEChem-11012401223D

 30 30  0     0  0  0  0  0  0999 V2000
   -2.7457    0.9858    0.7421 O   0  0  0  0  0  0  0  0  0  0  0  0
    2.7454   -0.9853    0.7426 O   0  0  0  0  0  0  0  0  0  0  0  0
   -0.5650    1.3940    0.1437 N   0  0  0  0  0  0  0  0  0  0  0  0
   -1.6830   -0.6265   -0.5137 N   0  0  0  0  0  0  0  0  0  0  0  0
    1.6828    0.6265   -0.5140 N   0  0  0  0  0  0  0  0  0  0  0  0
    0.5650   -1.3941    0.1436 N   0  0  0  0  0  0  0  0  0  0  0  0
    0.4641    1.3477   -0.8947 C   0  0  0  0  0  0  0  0  0  0  0  0
   -0.4642   -1.3476   -0.8946 C   0  0  0  0  0  0  0  0  0  0  0  0
   -1.7255    0.6101    0.1489 C   0  0  0  0  0  0  0  0  0  0  0  0
    1.7254   -0.6099    0.1488 C   0  0  0  0  0  0  0  0  0  0  0  0
   -0.4367    2.4765    1.1132 C   0  0  0  0  0  0  0  0  0  0  0  0
   -2.9314   -1.3471   -0.7390 C   0  0  0  0  0  0  0  0  0  0  0  0
    2.9313    1.3470   -0.7394 C   0  0  0  0  0  0  0  0  0  0  0  0
    0.4374   -2.4771    1.1125 C   0  0  0  0  0  0  0  0  0  0  0  0
    0.0681    0.9619   -1.8355 H   0  0  0  0  0  0  0  0  0  0  0  0
    0.7341    2.3886   -1.1175 H   0  0  0  0  0  0  0  0  0  0  0  0
   -0.7342   -2.3885   -1.1177 H   0  0  0  0  0  0  0  0  0  0  0  0
   -0.0684   -0.9617   -1.8354 H   0  0  0  0  0  0  0  0  0  0  0  0
   -0.6342    3.4259    0.6071 H   0  0  0  0  0  0  0  0  0  0  0  0
    0.5791    2.4771    1.5189 H   0  0  0  0  0  0  0  0  0  0  0  0
   -1.1450    2.3579    1.9376 H   0  0  0  0  0  0  0  0  0  0  0  0
   -3.8040   -0.7179   -0.5456 H   0  0  0  0  0  0  0  0  0  0  0  0
   -2.9611   -2.2129   -0.0711 H   0  0  0  0  0  0  0  0  0  0  0  0
   -2.9646   -1.6813   -1.7802 H   0  0  0  0  0  0  0  0  0  0  0  0
    3.8039    0.7177   -0.5463 H   0  0  0  0  0  0  0  0  0  0  0  0
    2.9612    2.2127   -0.0713 H   0  0  0  0  0  0  0  0  0  0  0  0
    2.9644    1.6814   -1.7805 H   0  0  0  0  0  0  0  0  0  0  0  0
    0.6355   -3.4262    0.6059 H   0  0  0  0  0  0  0  0  0  0  0  0
   -0.5783   -2.4786    1.5183 H   0  0  0  0  0  0  0  0  0  0  0  0
    1.1457   -2.3585    1.9370 H   0  0  0  0  0  0  0  0  0  0  0  0
  1  9  2  0  0  0  0
  2 10  2  0  0  0  0
  3  7  1  0  0  0  0
  3  9  1  0  0  0  0
  3 11  1  0  0  0  0
  4  8  1  0  0  0  0
  4  9  1  0  0  0  0
  4 12  1  0  0  0  0
  5  7  1  0  0  0  0
  5 10  1  0  0  0  0
  5 13  1  0  0  0  0
  6  8  1  0  0  0  0
  6 10  1  0  0  0  0
  6 14  1  0  0  0  0
  7 15  1  0  0  0  0
  7 16  1  0  0  0  0
  8 17  1  0  0  0  0
  8 18  1  0  0  0  0
 11 19  1  0  0  0  0
 11 20  1  0  0  0  0
 11 21  1  0  0  0  0
 12 22  1  0  0  0  0
 12 23  1  0  0  0  0
 12 24  1  0  0  0  0
 13 25  1  0  0  0  0
 13 26  1  0  0  0  0
 13 27  1  0  0  0  0
 14 28  1  0  0  0  0
 14 29  1  0  0  0  0
 14 30  1  0  0  0  0
M  END
> <PUBCHEM_COMPOUND_CID>
145367

> <PUBCHEM_CONFORMER_RMSD>
0.4

> <PUBCHEM_CONFORMER_DIVERSEORDER>
1
2
3

> <PUBCHEM_MMFF94_PARTIAL_CHARGES>
14
1 -0.57
10 0.69
11 0.3
12 0.3
13 0.3
14 0.3
2 -0.57
3 -0.66
4 -0.66
5 -0.66
6 -0.66
7 0.6
8 0.6
9 0.69

> <PUBCHEM_EFFECTIVE_ROTOR_COUNT>
1.2

> <PUBCHEM_PHARMACOPHORE_FEATURES>
2
1 1 acceptor
1 2 acceptor

> <PUBCHEM_HEAVY_ATOM_COUNT>
14

> <PUBCHEM_ATOM_DEF_STEREO_COUNT>
0

> <PUBCHEM_ATOM_UDEF_STEREO_COUNT>
0

> <PUBCHEM_BOND_DEF_STEREO_COUNT>
0

> <PUBCHEM_BOND_UDEF_STEREO_COUNT>
0

> <PUBCHEM_ISOTOPIC_ATOM_COUNT>
0

> <PUBCHEM_COMPONENT_COUNT>
1

> <PUBCHEM_CACTVS_TAUTO_COUNT>
1

> <PUBCHEM_CONFORMER_ID>
000237D700000001

> <PUBCHEM_MMFF94_ENERGY>
50.7227

> <PUBCHEM_FEATURE_SELFOVERLAP>
10.149

> <PUBCHEM_SHAPE_FINGERPRINT>
12382932 28 18272087141553821329
12423570 1 14721560024193765044
12696612 119 17904773175919156362
14251711 518 18120931698852670531
14617773 55 18344144799768267166
14761567 1 17902228150182875150
14817 1 15594931753958333739
15775835 57 18412554214193878121
16945 1 18194683670151823479
18185500 45 18410851032138250975
22112679 90 18201993331165181279
22802520 49 17984173506555890926
23236772 104 18341618152223250241
2334 1 18410574036691058775
23388829 49 18264194838367887090
23419403 2 16174731297868314813
23552423 10 18335136440935867751
23559900 14 17977958101101809340
241688 4 18342166787034843505
2748010 2 18410855473013063943
2897 32 18408325509695369564
5084963 1 18336815438178084390
528862 383 18113340824987287496
53812654 25 18198890577955120614
63268167 104 18335129946892412911
66348 1 18122344854540255271

> <PUBCHEM_SHAPE_MULTIPOLES>
256.45
3.76
2.59
1.09
0
0
0.08
0
-0.62
0
0.95
0
0
-0.95

> <PUBCHEM_SHAPE_SELFOVERLAP>
505.688

> <PUBCHEM_SHAPE_VOLUME>
150.4

> <PUBCHEM_COORDINATE_TYPE>
2
5
10

$$$$
