19431
  -OEChem-11012401253D

 22 22  0     0  0  0  0  0  0999 V2000
    0.8101    3.0175   -1.0967 O   0  5  0  0  0  0  0  0  0  0  0  0
    0.8107    3.0159    1.0985 O   0  0  0  0  0  0  0  0  0  0  0  0
    2.9779    0.3502    1.0967 O   0  5  0  0  0  0  0  0  0  0  0  0
    2.9771    0.3516   -1.0985 O   0  0  0  0  0  0  0  0  0  0  0  0
    1.7148   -2.8736   -1.0965 O   0  5  0  0  0  0  0  0  0  0  0  0
    1.7118   -2.8735    1.0987 O   0  0  0  0  0  0  0  0  0  0  0  0
   -3.7755   -0.7691    1.0973 O   0  5  0  0  0  0  0  0  0  0  0  0
   -3.7756   -0.7694   -1.0979 O   0  0  0  0  0  0  0  0  0  0  0  0
    0.5986    2.4551    0.0006 N   0  3  0  0  0  0  0  0  0  0  0  0
    2.3852    0.2581   -0.0007 N   0  3  0  0  0  0  0  0  0  0  0  0
   -2.1792    1.9964    0.0013 N   0  0  0  0  0  0  0  0  0  0  0  0
    1.3450   -2.3953    0.0006 N   0  3  0  0  0  0  0  0  0  0  0  0
   -3.1809   -0.6606   -0.0004 N   0  3  0  0  0  0  0  0  0  0  0  0
    0.0944    1.1192   -0.0003 C   0  0  0  0  0  0  0  0  0  0  0  0
    0.9740    0.0366   -0.0003 C   0  0  0  0  0  0  0  0  0  0  0  0
   -1.2829    0.8988   -0.0004 C   0  0  0  0  0  0  0  0  0  0  0  0
    0.4763   -1.2665   -0.0006 C   0  0  0  0  0  0  0  0  0  0  0  0
   -1.7806   -0.4043   -0.0005 C   0  0  0  0  0  0  0  0  0  0  0  0
   -0.9010   -1.4870   -0.0008 C   0  0  0  0  0  0  0  0  0  0  0  0
   -1.2899   -2.5040   -0.0007 H   0  0  0  0  0  0  0  0  0  0  0  0
   -3.1784    1.8428   -0.0013 H   0  0  0  0  0  0  0  0  0  0  0  0
   -1.8319    2.9456   -0.0012 H   0  0  0  0  0  0  0  0  0  0  0  0
  1  9  1  0  0  0  0
  2  9  2  0  0  0  0
  3 10  1  0  0  0  0
  4 10  2  0  0  0  0
  5 12  1  0  0  0  0
  6 12  2  0  0  0  0
  7 13  1  0  0  0  0
  8 13  2  0  0  0  0
  9 14  1  0  0  0  0
 10 15  1  0  0  0  0
 11 16  1  0  0  0  0
 11 21  1  0  0  0  0
 11 22  1  0  0  0  0
 12 17  1  0  0  0  0
 13 18  1  0  0  0  0
 14 15  1  0  0  0  0
 14 16  2  0  0  0  0
 15 17  2  0  0  0  0
 16 18  1  0  0  0  0
 17 19  1  0  0  0  0
 18 19  2  0  0  0  0
 19 20  1  0  0  0  0
M  CHG  8   1  -1   3  -1   5  -1   7  -1   9   1  10   1  12   1  13   1
M  END
> <PUBCHEM_COMPOUND_CID>
19431

> <PUBCHEM_CONFORMER_RMSD>
0.6

> <PUBCHEM_CONFORMER_DIVERSEORDER>
1
3
2
5
4

> <PUBCHEM_MMFF94_PARTIAL_CHARGES>
22
1 -0.52
10 0.91
11 -0.9
12 0.91
13 0.91
14 0.13
15 0.13
16 0.1
17 0.13
18 0.13
19 -0.15
2 -0.52
20 0.15
21 0.4
22 0.4
3 -0.52
4 -0.52
5 -0.52
6 -0.52
7 -0.52
8 -0.52
9 0.91

> <PUBCHEM_EFFECTIVE_ROTOR_COUNT>
4

> <PUBCHEM_PHARMACOPHORE_FEATURES>
15
1 1 acceptor
1 1 anion
1 11 cation
1 11 donor
1 2 acceptor
1 3 acceptor
1 3 anion
1 4 acceptor
1 5 acceptor
1 5 anion
1 6 acceptor
1 7 acceptor
1 7 anion
1 8 acceptor
6 14 15 16 17 18 19 rings

> <PUBCHEM_HEAVY_ATOM_COUNT>
19

> <PUBCHEM_ATOM_DEF_STEREO_COUNT>
0

> <PUBCHEM_ATOM_UDEF_STEREO_COUNT>
0

> <PUBCHEM_BOND_DEF_STEREO_COUNT>
0

> <PUBCHEM_BOND_UDEF_STEREO_COUNT>
0

> <PUBCHEM_ISOTOPIC_ATOM_COUNT>
0

> <PUBCHEM_COMPONENT_COUNT>
1

> <PUBCHEM_CACTVS_TAUTO_COUNT>
1

> <PUBCHEM_CONFORMER_ID>
00004BE700000001

> <PUBCHEM_MMFF94_ENERGY>
86.0646

> <PUBCHEM_FEATURE_SELFOVERLAP>
76.456

> <PUBCHEM_SHAPE_FINGERPRINT>
10967382 1 18338516447011447047
12382932 28 18267012869426769552
13140716 1 18122343751039797611
13380536 305 18193566781197352020
14790565 3 18266200472216255529
16945 1 18410855503357539527
193761 8 18050286964355351172
20645477 70 18265889349644147183
20905425 154 18268711602249374646
21501502 16 18266458694133738091
2255824 54 18265900344222250637
23184049 29 17977380538745947698
2334 1 17689998259795005599
23388829 49 18342165700619068461
23419403 2 17249994343539718756
23559900 14 18271815580347995756
2748010 2 18267019449459007143
3060560 45 18268984444078251823
7364860 26 18342176699898431691
81228 2 17617939136748739947

> <PUBCHEM_SHAPE_MULTIPOLES>
319.15
4.56
3.4
0.99
3.26
0.65
0
-1.32
0
-1.84
0
-0.19
-0.03
0

> <PUBCHEM_SHAPE_SELFOVERLAP>
682.344

> <PUBCHEM_SHAPE_VOLUME>
176.8

> <PUBCHEM_COORDINATE_TYPE>
2
5
10

$$$$
