5462932
  -OEChem-11012401273D

 34 35  0     0  0  0  0  0  0999 V2000
    1.5873   -0.6792    0.0000 S   0  0  0  0  0  0  0  0  0  0  0  0
   -1.5722   -0.6776    0.0001 S   0  0  0  0  0  0  0  0  0  0  0  0
    4.3113   -0.2906    0.0000 C   0  0  0  0  0  0  0  0  0  0  0  0
   -4.3046   -0.2977    0.0000 C   0  0  0  0  0  0  0  0  0  0  0  0
    3.2579   -1.3641    0.0000 C   0  0  0  0  0  0  0  0  0  0  0  0
   -3.2578   -1.3603    0.0000 C   0  0  0  0  0  0  0  0  0  0  0  0
    4.7911    0.1986    1.2079 C   0  0  0  0  0  0  0  0  0  0  0  0
   -4.7941    0.1991   -1.2079 C   0  0  0  0  0  0  0  0  0  0  0  0
    4.7907    0.1988   -1.2079 C   0  0  0  0  0  0  0  0  0  0  0  0
   -4.7938    0.1994    1.2080 C   0  0  0  0  0  0  0  0  0  0  0  0
    5.7678    1.1946    1.2079 C   0  0  0  0  0  0  0  0  0  0  0  0
   -5.7728    1.1932   -1.2080 C   0  0  0  0  0  0  0  0  0  0  0  0
    5.7674    1.1945   -1.2080 C   0  0  0  0  0  0  0  0  0  0  0  0
   -5.7725    1.1934    1.2080 C   0  0  0  0  0  0  0  0  0  0  0  0
    6.2559    1.6925    0.0000 C   0  0  0  0  0  0  0  0  0  0  0  0
   -6.2619    1.6902    0.0000 C   0  0  0  0  0  0  0  0  0  0  0  0
    0.6693   -2.1447    0.0000 C   0  0  0  0  0  0  0  0  0  0  0  0
   -0.6690   -2.1403    0.0000 C   0  0  0  0  0  0  0  0  0  0  0  0
    3.3892   -2.0086   -0.8778 H   0  0  0  0  0  0  0  0  0  0  0  0
    3.3892   -2.0087    0.8776 H   0  0  0  0  0  0  0  0  0  0  0  0
   -3.3839   -2.0063    0.8775 H   0  0  0  0  0  0  0  0  0  0  0  0
   -3.3838   -2.0062   -0.8775 H   0  0  0  0  0  0  0  0  0  0  0  0
    4.4175   -0.1811    2.1547 H   0  0  0  0  0  0  0  0  0  0  0  0
   -4.4210   -0.1786   -2.1563 H   0  0  0  0  0  0  0  0  0  0  0  0
    4.4168   -0.1807   -2.1548 H   0  0  0  0  0  0  0  0  0  0  0  0
   -4.4203   -0.1780    2.1563 H   0  0  0  0  0  0  0  0  0  0  0  0
    6.1479    1.5826    2.1484 H   0  0  0  0  0  0  0  0  0  0  0  0
   -6.1537    1.5804   -2.1486 H   0  0  0  0  0  0  0  0  0  0  0  0
    6.1473    1.5826   -2.1485 H   0  0  0  0  0  0  0  0  0  0  0  0
   -6.1532    1.5808    2.1485 H   0  0  0  0  0  0  0  0  0  0  0  0
    7.0161    2.4681   -0.0001 H   0  0  0  0  0  0  0  0  0  0  0  0
   -7.0237    2.4643    0.0000 H   0  0  0  0  0  0  0  0  0  0  0  0
    1.1951   -3.0941    0.0000 H   0  0  0  0  0  0  0  0  0  0  0  0
   -1.1975   -3.0883    0.0000 H   0  0  0  0  0  0  0  0  0  0  0  0
  1  5  1  0  0  0  0
  1 17  1  0  0  0  0
  2  6  1  0  0  0  0
  2 18  1  0  0  0  0
  3  5  1  0  0  0  0
  3  7  2  0  0  0  0
  3  9  1  0  0  0  0
  4  6  1  0  0  0  0
  4  8  2  0  0  0  0
  4 10  1  0  0  0  0
  5 19  1  0  0  0  0
  5 20  1  0  0  0  0
  6 21  1  0  0  0  0
  6 22  1  0  0  0  0
  7 11  1  0  0  0  0
  7 23  1  0  0  0  0
  8 12  1  0  0  0  0
  8 24  1  0  0  0  0
  9 13  2  0  0  0  0
  9 25  1  0  0  0  0
 10 14  2  0  0  0  0
 10 26  1  0  0  0  0
 11 15  2  0  0  0  0
 11 27  1  0  0  0  0
 12 16  2  0  0  0  0
 12 28  1  0  0  0  0
 13 15  1  0  0  0  0
 13 29  1  0  0  0  0
 14 16  1  0  0  0  0
 14 30  1  0  0  0  0
 15 31  1  0  0  0  0
 16 32  1  0  0  0  0
 17 18  2  0  0  0  0
 17 33  1  0  0  0  0
 18 34  1  0  0  0  0
M  END
> <PUBCHEM_COMPOUND_CID>
5462932

> <PUBCHEM_CONFORMER_RMSD>
0.8

> <PUBCHEM_CONFORMER_DIVERSEORDER>
1
57
49
12
50
13
20
28
58
46
11
53
16
59
14
9
42
75
4
74
5
32
72
70
8
34
54
6
23
29
15
52
30
24
18
51
61
43
62
47
77
65
7
10
36
21
48
3
37
41
64
73
22
33
26
2
39
66
25
35
38
67
40
68
76
17
60
27
63
45
56
44
19
55
71
31
69

> <PUBCHEM_MMFF94_PARTIAL_CHARGES>
30
1 -0.33
10 -0.15
11 -0.15
12 -0.15
13 -0.15
14 -0.15
15 -0.15
16 -0.15
17 -0.05
18 -0.05
2 -0.33
23 0.15
24 0.15
25 0.15
26 0.15
27 0.15
28 0.15
29 0.15
3 -0.14
30 0.15
31 0.15
32 0.15
33 0.15
34 0.15
4 -0.14
5 0.37
6 0.37
7 -0.15
8 -0.15
9 -0.15

> <PUBCHEM_EFFECTIVE_ROTOR_COUNT>
6

> <PUBCHEM_PHARMACOPHORE_FEATURES>
2
6 3 7 9 11 13 15 rings
6 4 8 10 12 14 16 rings

> <PUBCHEM_HEAVY_ATOM_COUNT>
18

> <PUBCHEM_ATOM_DEF_STEREO_COUNT>
0

> <PUBCHEM_ATOM_UDEF_STEREO_COUNT>
0

> <PUBCHEM_BOND_DEF_STEREO_COUNT>
1

> <PUBCHEM_BOND_UDEF_STEREO_COUNT>
0

> <PUBCHEM_ISOTOPIC_ATOM_COUNT>
0

> <PUBCHEM_COMPONENT_COUNT>
1

> <PUBCHEM_CACTVS_TAUTO_COUNT>
1

> <PUBCHEM_CONFORMER_ID>
00535B9400000001

> <PUBCHEM_MMFF94_ENERGY>
41.9345

> <PUBCHEM_FEATURE_SELFOVERLAP>
10.149

> <PUBCHEM_SHAPE_FINGERPRINT>
10 15 17603311453322752969
10378564 45 17775295937275093438
10753850 27 9511460017919465855
117890 112 18409728469647941526
12166972 35 12463566304974611811
12596602 18 15719393936150122213
13167372 99 18260545611231546496
13668630 136 10879989160069234757
13955234 65 17970626290335763050
14123256 34 8646772218037461768
14251764 18 17968097551504454399
14251764 30 11383829368164765105
14528608 73 17418371393796128806
15183329 4 15769781234046222499
15188451 53 13623538987004880339
15348495 7 15647341869740151592
17780758 139 13190335756426285327
17870717 6 13973676218781625527
18222031 100 12247679366193960994
20028762 73 10881400941584388120
20281389 69 18334294258147378387
20398071 356 8646498439478998560
20526848 3 18410578387493111429
21150785 3 17131825491381139799
21774942 28 17489310733633672448
22061861 79 13183018510178779681
23081809 10 18411692188514400887
25122255 55 9943518631203117005
270888 7 18410854360616761382
2748736 6 18410568491888545889
2767999 5 18411132541353354627
2838139 119 18201996599350411491
2916195 48 18410855486051323331
3014063 24 11241975905862243937
312425 54 14418129595694421937
351380 3 9295289438870482761
3663271 9 16226050024005915464
465052 167 8574714615852665690
5104073 3 17096364119956388906
543368 44 18273494559988343137
59682541 52 16845581877022484222

> <PUBCHEM_SHAPE_MULTIPOLES>
378.13
20.68
2.03
1.26
0.1
0.45
0
-14.64
0
-0.01
0
0
-0.44
0

> <PUBCHEM_SHAPE_SELFOVERLAP>
762.128

> <PUBCHEM_SHAPE_VOLUME>
217.4

> <PUBCHEM_COORDINATE_TYPE>
2
5
10

$$$$
