83043
  -OEChem-11012401043D

 30 30  0     0  0  0  0  0  0999 V2000
   -3.2107    0.9631   -1.0945 O   0  0  0  0  0  0  0  0  0  0  0  0
    3.2108   -0.9632   -1.0945 O   0  0  0  0  0  0  0  0  0  0  0  0
   -1.6142   -3.1412   -0.4505 O   0  0  0  0  0  0  0  0  0  0  0  0
    1.6141    3.1412   -0.4505 O   0  0  0  0  0  0  0  0  0  0  0  0
   -3.3995    1.0203    1.1989 O   0  0  0  0  0  0  0  0  0  0  0  0
    3.3994   -1.0203    1.1990 O   0  0  0  0  0  0  0  0  0  0  0  0
   -3.1469   -1.9025    0.6824 O   0  0  0  0  0  0  0  0  0  0  0  0
    3.1469    1.9025    0.6822 O   0  0  0  0  0  0  0  0  0  0  0  0
   -1.3414    0.3826    0.1780 C   0  0  0  0  0  0  0  0  0  0  0  0
    1.3414   -0.3825    0.1778 C   0  0  0  0  0  0  0  0  0  0  0  0
   -1.0020   -0.9704    0.1779 C   0  0  0  0  0  0  0  0  0  0  0  0
    1.0019    0.9704    0.1779 C   0  0  0  0  0  0  0  0  0  0  0  0
   -0.3395    1.3530    0.1781 C   0  0  0  0  0  0  0  0  0  0  0  0
    0.3395   -1.3529    0.1778 C   0  0  0  0  0  0  0  0  0  0  0  0
   -2.7334    0.8139    0.1778 C   0  0  0  0  0  0  0  0  0  0  0  0
    2.7334   -0.8139    0.1778 C   0  0  0  0  0  0  0  0  0  0  0  0
   -2.0255   -2.0077    0.1788 C   0  0  0  0  0  0  0  0  0  0  0  0
    2.0255    2.0077    0.1788 C   0  0  0  0  0  0  0  0  0  0  0  0
   -4.5719    1.3863   -1.2267 C   0  0  0  0  0  0  0  0  0  0  0  0
    4.5721   -1.3865   -1.2265 C   0  0  0  0  0  0  0  0  0  0  0  0
   -0.6250    2.4026    0.1921 H   0  0  0  0  0  0  0  0  0  0  0  0
    0.6250   -2.4025    0.1917 H   0  0  0  0  0  0  0  0  0  0  0  0
   -2.3087   -3.8341   -0.4458 H   0  0  0  0  0  0  0  0  0  0  0  0
    2.3086    3.8340   -0.4459 H   0  0  0  0  0  0  0  0  0  0  0  0
   -5.2409    0.6511   -0.7698 H   0  0  0  0  0  0  0  0  0  0  0  0
   -4.7071    2.3700   -0.7677 H   0  0  0  0  0  0  0  0  0  0  0  0
   -4.8039    1.4596   -2.2924 H   0  0  0  0  0  0  0  0  0  0  0  0
    4.7072   -2.3702   -0.7674 H   0  0  0  0  0  0  0  0  0  0  0  0
    5.2410   -0.6512   -0.7695 H   0  0  0  0  0  0  0  0  0  0  0  0
    4.8041   -1.4598   -2.2921 H   0  0  0  0  0  0  0  0  0  0  0  0
  1 15  1  0  0  0  0
  1 19  1  0  0  0  0
  2 16  1  0  0  0  0
  2 20  1  0  0  0  0
  3 17  1  0  0  0  0
  3 23  1  0  0  0  0
  4 18  1  0  0  0  0
  4 24  1  0  0  0  0
  5 15  2  0  0  0  0
  6 16  2  0  0  0  0
  7 17  2  0  0  0  0
  8 18  2  0  0  0  0
  9 11  2  0  0  0  0
  9 13  1  0  0  0  0
  9 15  1  0  0  0  0
 10 12  1  0  0  0  0
 10 14  2  0  0  0  0
 10 16  1  0  0  0  0
 11 14  1  0  0  0  0
 11 17  1  0  0  0  0
 12 13  2  0  0  0  0
 12 18  1  0  0  0  0
 13 21  1  0  0  0  0
 14 22  1  0  0  0  0
 19 25  1  0  0  0  0
 19 26  1  0  0  0  0
 19 27  1  0  0  0  0
 20 28  1  0  0  0  0
 20 29  1  0  0  0  0
 20 30  1  0  0  0  0
M  END
> <PUBCHEM_COMPOUND_CID>
83043

> <PUBCHEM_CONFORMER_RMSD>
0.8

> <PUBCHEM_CONFORMER_DIVERSEORDER>
1
2
5
3
4
6

> <PUBCHEM_MMFF94_PARTIAL_CHARGES>
24
1 -0.43
10 0.09
11 0.09
12 0.09
13 -0.15
14 -0.15
15 0.63
16 0.63
17 0.63
18 0.63
19 0.28
2 -0.43
20 0.28
21 0.15
22 0.15
23 0.5
24 0.5
3 -0.65
4 -0.65
5 -0.57
6 -0.57
7 -0.57
8 -0.57
9 0.09

> <PUBCHEM_EFFECTIVE_ROTOR_COUNT>
6

> <PUBCHEM_PHARMACOPHORE_FEATURES>
9
1 3 acceptor
1 4 acceptor
1 5 acceptor
1 6 acceptor
1 7 acceptor
1 8 acceptor
3 3 7 17 anion
3 4 8 18 anion
6 9 10 11 12 13 14 rings

> <PUBCHEM_HEAVY_ATOM_COUNT>
20

> <PUBCHEM_ATOM_DEF_STEREO_COUNT>
0

> <PUBCHEM_ATOM_UDEF_STEREO_COUNT>
0

> <PUBCHEM_BOND_DEF_STEREO_COUNT>
0

> <PUBCHEM_BOND_UDEF_STEREO_COUNT>
0

> <PUBCHEM_ISOTOPIC_ATOM_COUNT>
0

> <PUBCHEM_COMPONENT_COUNT>
1

> <PUBCHEM_CACTVS_TAUTO_COUNT>
1

> <PUBCHEM_CONFORMER_ID>
0001446300000001

> <PUBCHEM_MMFF94_ENERGY>
74.0779

> <PUBCHEM_FEATURE_SELFOVERLAP>
45.792

> <PUBCHEM_SHAPE_FINGERPRINT>
10608611 8 18336541732850024633
10693767 8 17770200684132925215
10756046 5 18338800129580242740
10967382 1 18337951173438475266
11578080 2 17387384962077582676
11680986 33 18342175596266091936
12403259 415 18260546698059154917
12553582 1 18338520707898651178
12730499 353 17971182639878693013
13140716 1 18410855477308031537
13380535 21 18339089309707468944
13583140 156 17603864494707781097
14223421 5 18122626316637371331
14790565 3 18123209908621277552
14911166 2 18338797805960691990
14993402 34 18338516318104353997
15099037 51 18337953376788372671
15219456 202 18340769346357872152
15279308 100 18334571313465701925
15442244 35 18411702101451368330
15536298 74 18342742961472150448
15848700 24 18200305503649636644
16752209 62 18120086178716265128
16945 1 18338797797370757353
17041 50 18410860940912633028
17804303 29 18410866442375556874
18186145 218 18411419488377123177
19591789 44 16901325767535519512
20233049 118 18115308860997109636
20600515 1 18270104713820844856
20645476 183 17458640989952180098
20871999 31 18335995219942394622
21029758 11 18271804550007277080
21069387 34 17417809513210241989
21501502 16 18338797947694612683
221490 88 18265626544473397754
22182313 1 18338517555049660423
22713019 99 18200588086506220767
23184049 29 18266738167703480018
2334 1 18266177416588171793
23366157 5 18042407001280605420
23402539 116 18056759819520558926
23558518 356 18116147951340716915
23559900 14 18342745083814041014
23566358 2 18268149927632091508
25 1 18118958093161601453
2748010 2 18338797926219776075
3060560 45 18266723698195517287
335352 9 18338516330983981383
34934 24 18334847286974389410
350125 39 18337403728797059899
352729 6 18342460344118690971
7364860 26 18199758118805362984
74978 22 18410575097547980856
7832392 63 18409165523815394840
81228 2 18055079748779325784
9709674 26 18339077228069940831

> <PUBCHEM_SHAPE_MULTIPOLES>
364.64
7.35
2.89
1.03
0
0
0.15
0
1.94
0
0.17
0
0
0.94

> <PUBCHEM_SHAPE_SELFOVERLAP>
777.658

> <PUBCHEM_SHAPE_VOLUME>
202.4

> <PUBCHEM_COORDINATE_TYPE>
2
5
10

$$$$
