97637
  -OEChem-11012400593D

 26 27  0     0  0  0  0  0  0999 V2000
    1.6619    2.5344   -0.1707 O   0  0  0  0  0  0  0  0  0  0  0  0
    2.4891    0.3155   -0.0178 C   0  0  0  0  0  0  0  0  0  0  0  0
    2.1363   -1.0157    0.0721 C   0  0  0  0  0  0  0  0  0  0  0  0
    3.8063    0.7262   -0.0429 C   0  0  0  0  0  0  0  0  0  0  0  0
   -2.4794    0.1462   -0.0143 C   0  0  0  0  0  0  0  0  0  0  0  0
    3.1442   -1.9777    0.1399 C   0  0  0  0  0  0  0  0  0  0  0  0
    4.8143   -0.2356    0.0247 C   0  0  0  0  0  0  0  0  0  0  0  0
    4.4831   -1.5876    0.1162 C   0  0  0  0  0  0  0  0  0  0  0  0
    1.4167    1.3391   -0.0896 C   0  0  0  0  0  0  0  0  0  0  0  0
   -3.2051    0.2101    1.1752 C   0  0  0  0  0  0  0  0  0  0  0  0
   -3.0871   -0.3263   -1.1774 C   0  0  0  0  0  0  0  0  0  0  0  0
   -4.5385   -0.1987    1.2017 C   0  0  0  0  0  0  0  0  0  0  0  0
   -4.4205   -0.7350   -1.1511 C   0  0  0  0  0  0  0  0  0  0  0  0
   -5.1462   -0.6711    0.0385 C   0  0  0  0  0  0  0  0  0  0  0  0
   -1.1134    0.5654   -0.0414 C   0  0  0  0  0  0  0  0  0  0  0  0
    0.0382    0.9109   -0.0632 C   0  0  0  0  0  0  0  0  0  0  0  0
    1.1097   -1.3647    0.0936 H   0  0  0  0  0  0  0  0  0  0  0  0
    4.0832    1.7737   -0.1136 H   0  0  0  0  0  0  0  0  0  0  0  0
    2.8871   -3.0306    0.2111 H   0  0  0  0  0  0  0  0  0  0  0  0
    5.8570    0.0678    0.0063 H   0  0  0  0  0  0  0  0  0  0  0  0
    5.2680   -2.3365    0.1689 H   0  0  0  0  0  0  0  0  0  0  0  0
   -2.7454    0.5761    2.0902 H   0  0  0  0  0  0  0  0  0  0  0  0
   -2.5347   -0.3822   -2.1125 H   0  0  0  0  0  0  0  0  0  0  0  0
   -5.1036   -0.1490    2.1278 H   0  0  0  0  0  0  0  0  0  0  0  0
   -4.8939   -1.1029   -2.0568 H   0  0  0  0  0  0  0  0  0  0  0  0
   -6.1844   -0.9893    0.0590 H   0  0  0  0  0  0  0  0  0  0  0  0
  1  9  2  0  0  0  0
  2  3  2  0  0  0  0
  2  4  1  0  0  0  0
  2  9  1  0  0  0  0
  3  6  1  0  0  0  0
  3 17  1  0  0  0  0
  4  7  2  0  0  0  0
  4 18  1  0  0  0  0
  5 10  2  0  0  0  0
  5 11  1  0  0  0  0
  5 15  1  0  0  0  0
  6  8  2  0  0  0  0
  6 19  1  0  0  0  0
  7  8  1  0  0  0  0
  7 20  1  0  0  0  0
  8 21  1  0  0  0  0
  9 16  1  0  0  0  0
 10 12  1  0  0  0  0
 10 22  1  0  0  0  0
 11 13  2  0  0  0  0
 11 23  1  0  0  0  0
 12 14  2  0  0  0  0
 12 24  1  0  0  0  0
 13 14  1  0  0  0  0
 13 25  1  0  0  0  0
 14 26  1  0  0  0  0
 15 16  3  0  0  0  0
M  END
> <PUBCHEM_COMPOUND_CID>
97637

> <PUBCHEM_CONFORMER_RMSD>
0.6

> <PUBCHEM_CONFORMER_DIVERSEORDER>
1
2

> <PUBCHEM_MMFF94_PARTIAL_CHARGES>
26
1 -0.57
10 -0.15
11 -0.15
12 -0.15
13 -0.15
14 -0.15
15 -0.07
16 -0.1
17 0.15
18 0.15
19 0.15
2 0.09
20 0.15
21 0.15
22 0.15
23 0.15
24 0.15
25 0.15
26 0.15
3 -0.15
4 -0.15
5 0.07
6 -0.15
7 -0.15
8 -0.15
9 0.59

> <PUBCHEM_EFFECTIVE_ROTOR_COUNT>
1

> <PUBCHEM_PHARMACOPHORE_FEATURES>
3
1 1 acceptor
6 2 3 4 6 7 8 rings
6 5 10 11 12 13 14 rings

> <PUBCHEM_HEAVY_ATOM_COUNT>
16

> <PUBCHEM_ATOM_DEF_STEREO_COUNT>
0

> <PUBCHEM_ATOM_UDEF_STEREO_COUNT>
0

> <PUBCHEM_BOND_DEF_STEREO_COUNT>
0

> <PUBCHEM_BOND_UDEF_STEREO_COUNT>
0

> <PUBCHEM_ISOTOPIC_ATOM_COUNT>
0

> <PUBCHEM_COMPONENT_COUNT>
1

> <PUBCHEM_CACTVS_TAUTO_COUNT>
1

> <PUBCHEM_CONFORMER_ID>
00017D6500000001

> <PUBCHEM_MMFF94_ENERGY>
36.6299

> <PUBCHEM_FEATURE_SELFOVERLAP>
15.223

> <PUBCHEM_SHAPE_FINGERPRINT>
10447042 23 18259978250441982498
10912923 1 17775569775193153705
11796584 16 16370997469659555170
12107183 9 17482567286490470115
12236239 1 17989208161793678371
12553582 1 18412540994606060718
12596602 18 17203605999614480442
13167823 11 18131069350753168023
13533116 47 18270680991136724587
13544653 18 18335140856278234148
13862211 1 18336824200729240642
14251717 144 18409445895133261846
14252887 29 18202287961901065214
14386348 63 17676210182129729427
14455015 7 18186526505497718779
14863182 85 18411989040307468510
15188451 53 16630228282558292599
15375462 189 18273213092952792184
15477762 27 18408322190149886316
17870717 6 16660648436425422219
1813 80 18340500984016816380
18186145 218 17240480321365315073
200 152 18413668015620751737
20281475 54 18341611559664709333
20325693 3 15357697479481765699
20432913 95 18410014329575206571
20645477 70 18187643643238721644
21267235 1 18411707552250475262
21728266 224 16988552538044980639
221490 88 18189621724818508906
2215653 11 18040708169942589711
22224240 67 18270668892604573592
2255824 54 18269276927304275988
22646028 1 18130786767706407021
22646028 28 18272931626571368743
23557571 272 16805315583084704860
23559900 14 18115305708275213081
23596394 208 17313094224846588459
2871803 45 18040996202970403282
314194 84 18411419505530794034
33824 294 18334855018110713954
34797466 226 15936705816636852646
351380 3 18272089383490105878
42 15 17846500331094556433
465052 167 18341899610020429903
4990 188 17022619784106560033
5104073 3 18339077090678571376
5281201 14 17530402841121250733
573450 72 17418376900508379955
602551 16 15625932196546022414
83771 10 18412543185007869448
94968 8 18335420149775477242

> <PUBCHEM_SHAPE_MULTIPOLES>
323.4
11.82
1.68
0.97
3.74
0.27
-0.02
-4.46
-0.49
-2.02
0.06
1.32
-0.1
-0.49

> <PUBCHEM_SHAPE_SELFOVERLAP>
698.068

> <PUBCHEM_SHAPE_VOLUME>
176.5

> <PUBCHEM_COORDINATE_TYPE>
2
5
10

$$$$
