8492
  -OEChem-11012401283D

 16 16  0     0  0  0  0  0  0999 V2000
   -2.4041    2.0988    0.0000 Cl  0  0  0  0  0  0  0  0  0  0  0  0
    3.1251   -0.8175    0.0000 O   0  5  0  0  0  0  0  0  0  0  0  0
    2.7483    1.3452   -0.0002 O   0  0  0  0  0  0  0  0  0  0  0  0
    2.3377    0.1595    0.0000 N   0  3  0  0  0  0  0  0  0  0  0  0
   -3.1952   -0.8399   -0.0003 N   0  0  0  0  0  0  0  0  0  0  0  0
    0.9388   -0.0842    0.0001 C   0  0  0  0  0  0  0  0  0  0  0  0
   -1.8094   -0.5644    0.0001 C   0  0  0  0  0  0  0  0  0  0  0  0
    0.0438    0.9857    0.0001 C   0  0  0  0  0  0  0  0  0  0  0  0
    0.4598   -1.3943    0.0001 C   0  0  0  0  0  0  0  0  0  0  0  0
   -1.3302    0.7456    0.0001 C   0  0  0  0  0  0  0  0  0  0  0  0
   -0.9144   -1.6344    0.0001 C   0  0  0  0  0  0  0  0  0  0  0  0
    0.3977    2.0145    0.0000 H   0  0  0  0  0  0  0  0  0  0  0  0
    1.1272   -2.2522    0.0000 H   0  0  0  0  0  0  0  0  0  0  0  0
   -1.2739   -2.6603    0.0000 H   0  0  0  0  0  0  0  0  0  0  0  0
   -3.8583   -0.0763    0.0003 H   0  0  0  0  0  0  0  0  0  0  0  0
   -3.5238   -1.7964    0.0003 H   0  0  0  0  0  0  0  0  0  0  0  0
  1 10  1  0  0  0  0
  2  4  1  0  0  0  0
  3  4  2  0  0  0  0
  4  6  1  0  0  0  0
  5  7  1  0  0  0  0
  5 15  1  0  0  0  0
  5 16  1  0  0  0  0
  6  8  2  0  0  0  0
  6  9  1  0  0  0  0
  7 10  2  0  0  0  0
  7 11  1  0  0  0  0
  8 10  1  0  0  0  0
  8 12  1  0  0  0  0
  9 11  2  0  0  0  0
  9 13  1  0  0  0  0
 11 14  1  0  0  0  0
M  CHG  2   2  -1   4   1
M  END
> <PUBCHEM_COMPOUND_CID>
8492

> <PUBCHEM_CONFORMER_RMSD>
0.4

> <PUBCHEM_CONFORMER_DIVERSEORDER>
1

> <PUBCHEM_MMFF94_PARTIAL_CHARGES>
16
1 -0.18
10 0.18
11 -0.15
12 0.15
13 0.15
14 0.15
15 0.4
16 0.4
2 -0.52
3 -0.52
4 0.91
5 -0.9
6 0.13
7 0.1
8 -0.15
9 -0.15

> <PUBCHEM_EFFECTIVE_ROTOR_COUNT>
1

> <PUBCHEM_PHARMACOPHORE_FEATURES>
6
1 2 acceptor
1 2 anion
1 3 acceptor
1 5 cation
1 5 donor
6 6 7 8 9 10 11 rings

> <PUBCHEM_HEAVY_ATOM_COUNT>
11

> <PUBCHEM_ATOM_DEF_STEREO_COUNT>
0

> <PUBCHEM_ATOM_UDEF_STEREO_COUNT>
0

> <PUBCHEM_BOND_DEF_STEREO_COUNT>
0

> <PUBCHEM_BOND_UDEF_STEREO_COUNT>
0

> <PUBCHEM_ISOTOPIC_ATOM_COUNT>
0

> <PUBCHEM_COMPONENT_COUNT>
1

> <PUBCHEM_CACTVS_TAUTO_COUNT>
1

> <PUBCHEM_CONFORMER_ID>
0000212C00000001

> <PUBCHEM_MMFF94_ENERGY>
40.2598

> <PUBCHEM_FEATURE_SELFOVERLAP>
30.527

> <PUBCHEM_SHAPE_FINGERPRINT>
11206711 2 18410853261479595989
12032990 46 18337116786253628539
12897270 3 18410571790523448247
12932764 1 17561077046809564740
13380535 21 18195822764535822439
13380535 76 18194678173026266183
14325111 11 18410575067662752672
16945 1 18338517555091975367
193761 8 18050567340010584963
19973954 147 18410576201618618820
20653085 51 18337965497270562408
20871998 184 18128824216702677487
21040471 1 18338516331026237541
21501502 16 18265329508656087291
23402539 116 18342163501574941639
23402655 69 18196917891772675333
23552423 10 18333733502938212414
23559900 14 18199754649057512998
241688 4 18051968422724760971
2748010 2 18339365137012954671
369184 2 18342457070931455722
5084963 1 18273215300386614754
6333449 129 18339640049385281373

> <PUBCHEM_SHAPE_MULTIPOLES>
206.54
4.31
1.93
0.59
1.41
0.29
0
0.75
0
-0.86
0
-0.06
0.01
0

> <PUBCHEM_SHAPE_SELFOVERLAP>
424.766

> <PUBCHEM_SHAPE_VOLUME>
120.1

> <PUBCHEM_COORDINATE_TYPE>
2
5
10

$$$$
