96862
  -OEChem-11012400313D

 32 35  0     0  0  0  0  0  0999 V2000
   -0.0355    0.7004    0.2199 C   0  0  0  0  0  0  0  0  0  0  0  0
   -0.0355   -0.7004    0.2199 C   0  0  0  0  0  0  0  0  0  0  0  0
    1.2445    1.4816    0.3790 C   0  0  0  0  0  0  0  0  0  0  0  0
    1.2445   -1.4816    0.3791 C   0  0  0  0  0  0  0  0  0  0  0  0
    2.5045    0.7018    0.1009 C   0  0  0  0  0  0  0  0  0  0  0  0
    2.5045   -0.7018    0.1010 C   0  0  0  0  0  0  0  0  0  0  0  0
   -1.2527    1.3914    0.1141 C   0  0  0  0  0  0  0  0  0  0  0  0
   -1.2528   -1.3914    0.1141 C   0  0  0  0  0  0  0  0  0  0  0  0
   -2.4725    0.7060   -0.0034 C   0  0  0  0  0  0  0  0  0  0  0  0
   -2.4726   -0.7060   -0.0035 C   0  0  0  0  0  0  0  0  0  0  0  0
    3.7064    1.3919   -0.1185 C   0  0  0  0  0  0  0  0  0  0  0  0
    3.7064   -1.3919   -0.1183 C   0  0  0  0  0  0  0  0  0  0  0  0
   -3.6924    1.3933   -0.1164 C   0  0  0  0  0  0  0  0  0  0  0  0
   -3.6924   -1.3933   -0.1168 C   0  0  0  0  0  0  0  0  0  0  0  0
    4.8930    0.6958   -0.3466 C   0  0  0  0  0  0  0  0  0  0  0  0
    4.8929   -0.6959   -0.3464 C   0  0  0  0  0  0  0  0  0  0  0  0
   -4.8952    0.6957   -0.2290 C   0  0  0  0  0  0  0  0  0  0  0  0
   -4.8952   -0.6957   -0.2291 C   0  0  0  0  0  0  0  0  0  0  0  0
    1.2924    1.8644    1.4059 H   0  0  0  0  0  0  0  0  0  0  0  0
    1.2123    2.3376   -0.3076 H   0  0  0  0  0  0  0  0  0  0  0  0
    1.2122   -2.3376   -0.3073 H   0  0  0  0  0  0  0  0  0  0  0  0
    1.2923   -1.8642    1.4061 H   0  0  0  0  0  0  0  0  0  0  0  0
   -1.2449    2.4807    0.1258 H   0  0  0  0  0  0  0  0  0  0  0  0
   -1.2449   -2.4807    0.1257 H   0  0  0  0  0  0  0  0  0  0  0  0
    3.7228    2.4791   -0.1104 H   0  0  0  0  0  0  0  0  0  0  0  0
    3.7229   -2.4791   -0.1101 H   0  0  0  0  0  0  0  0  0  0  0  0
   -3.7158    2.4811   -0.1176 H   0  0  0  0  0  0  0  0  0  0  0  0
   -3.7159   -2.4812   -0.1182 H   0  0  0  0  0  0  0  0  0  0  0  0
    5.8172    1.2397   -0.5184 H   0  0  0  0  0  0  0  0  0  0  0  0
    5.8171   -1.2398   -0.5181 H   0  0  0  0  0  0  0  0  0  0  0  0
   -5.8315    1.2392   -0.3160 H   0  0  0  0  0  0  0  0  0  0  0  0
   -5.8315   -1.2392   -0.3162 H   0  0  0  0  0  0  0  0  0  0  0  0
  1  2  1  0  0  0  0
  1  3  1  0  0  0  0
  1  7  2  0  0  0  0
  2  4  1  0  0  0  0
  2  8  2  0  0  0  0
  3  5  1  0  0  0  0
  3 19  1  0  0  0  0
  3 20  1  0  0  0  0
  4  6  1  0  0  0  0
  4 21  1  0  0  0  0
  4 22  1  0  0  0  0
  5  6  1  0  0  0  0
  5 11  2  0  0  0  0
  6 12  2  0  0  0  0
  7  9  1  0  0  0  0
  7 23  1  0  0  0  0
  8 10  1  0  0  0  0
  8 24  1  0  0  0  0
  9 10  1  0  0  0  0
  9 13  2  0  0  0  0
 10 14  2  0  0  0  0
 11 15  1  0  0  0  0
 11 25  1  0  0  0  0
 12 16  1  0  0  0  0
 12 26  1  0  0  0  0
 13 17  1  0  0  0  0
 13 27  1  0  0  0  0
 14 18  1  0  0  0  0
 14 28  1  0  0  0  0
 15 16  2  0  0  0  0
 15 29  1  0  0  0  0
 16 30  1  0  0  0  0
 17 18  2  0  0  0  0
 17 31  1  0  0  0  0
 18 32  1  0  0  0  0
M  END
> <PUBCHEM_COMPOUND_CID>
96862

> <PUBCHEM_CONFORMER_RMSD>
0.6

> <PUBCHEM_CONFORMER_DIVERSEORDER>
1

> <PUBCHEM_MMFF94_PARTIAL_CHARGES>
26
1 -0.14
11 -0.15
12 -0.15
13 -0.15
14 -0.15
15 -0.15
16 -0.15
17 -0.15
18 -0.15
2 -0.14
23 0.15
24 0.15
25 0.15
26 0.15
27 0.15
28 0.15
29 0.15
3 0.29
30 0.15
31 0.15
32 0.15
4 0.29
5 -0.14
6 -0.14
7 -0.15
8 -0.15

> <PUBCHEM_EFFECTIVE_ROTOR_COUNT>
0.4

> <PUBCHEM_PHARMACOPHORE_FEATURES>
4
6 1 2 3 4 5 6 rings
6 1 2 7 8 9 10 rings
6 5 6 11 12 15 16 rings
6 9 10 13 14 17 18 rings

> <PUBCHEM_HEAVY_ATOM_COUNT>
18

> <PUBCHEM_ATOM_DEF_STEREO_COUNT>
0

> <PUBCHEM_ATOM_UDEF_STEREO_COUNT>
0

> <PUBCHEM_BOND_DEF_STEREO_COUNT>
0

> <PUBCHEM_BOND_UDEF_STEREO_COUNT>
0

> <PUBCHEM_ISOTOPIC_ATOM_COUNT>
0

> <PUBCHEM_COMPONENT_COUNT>
1

> <PUBCHEM_CACTVS_TAUTO_COUNT>
1

> <PUBCHEM_CONFORMER_ID>
00017A5E00000001

> <PUBCHEM_MMFF94_ENERGY>
53.2279

> <PUBCHEM_FEATURE_SELFOVERLAP>
20.364

> <PUBCHEM_SHAPE_FINGERPRINT>
10616163 171 18340769329326339255
11471102 20 18410854365280746952
12107183 9 17689997834318781465
12236239 1 18410575076073144340
12403259 415 18409440393359738157
13167823 11 18412543214803615287
13288520 33 18343304751388704439
13862211 1 18411131437573445202
14528608 73 18409168835419660140
14790565 3 18122913023486473193
15196674 1 18410855460128161800
15536298 74 18341891904869874768
17834072 33 18342174487789814366
18186145 218 17967525774802584406
18681886 176 18342172293958220970
200 152 17989204850062689321
20645477 70 18342459205931447046
21029758 11 18343582953611274985
21267235 1 18411427210522638451
21279426 13 18267022760667698589
21452121 103 18200581614507769552
221357 26 18342171172518485237
221490 88 18265337385562655467
23402539 116 18342733018227162999
23402655 69 18412543197597248893
23559900 14 18342453790014726976
2871803 45 18334855008987834286
29717793 49 17917712374673098828
3004659 81 18334860481488449390
335352 9 18338797814555901453
34797466 226 17346323747150547292
34934 24 18341607166203322258
350125 39 18411421696539147441
3545911 37 18409168813591414980
4214541 1 18411419488382462813
4340502 62 16515407343957638587
474 4 17458632275932801260
4921388 177 16588316032994201835
495365 180 17632003252399772608
4990 188 18201725037458803052
5104073 3 18410573985156726882
542803 24 17095244717575467932
633830 44 17894910749791398034
69090 78 18413669119063486414
77779 3 18410575084668353693
9709674 26 18411706490776595526

> <PUBCHEM_SHAPE_MULTIPOLES>
370.43
10.7
1.78
0.66
0.11
0
0
0
-1.74
0.03
0.05
0.06
0
0

> <PUBCHEM_SHAPE_SELFOVERLAP>
839.441

> <PUBCHEM_SHAPE_VOLUME>
179.8

> <PUBCHEM_COORDINATE_TYPE>
2
5
10

$$$$
