134943546
  -OEChem-11012401183D

 40 41  0     1  0  0  0  0  0999 V2000
   -0.0312    1.3102   -0.9964 O   0  0  0  0  0  0  0  0  0  0  0  0
    1.6649   -0.8948   -0.7462 O   0  0  0  0  0  0  0  0  0  0  0  0
   -2.1683    2.0458   -0.5182 O   0  0  0  0  0  0  0  0  0  0  0  0
    3.0583   -2.1969    0.5574 O   0  0  0  0  0  0  0  0  0  0  0  0
    0.0255    0.6237    0.2647 C   0  0  1  0  0  0  0  0  0  0  0  0
    1.4320   -0.0225    0.3606 C   0  0  2  0  0  0  0  0  0  0  0  0
   -0.1389    1.6921    1.3740 C   0  0  0  0  0  0  0  0  0  0  0  0
    2.5505    1.0249    0.3538 C   0  0  0  0  0  0  0  0  0  0  0  0
    0.9872    2.7288    1.3587 C   0  0  0  0  0  0  0  0  0  0  0  0
    2.3582    2.0676    1.4478 C   0  0  0  0  0  0  0  0  0  0  0  0
   -1.0862   -0.4260    0.3569 C   0  0  0  0  0  0  0  0  0  0  0  0
   -1.6537   -0.7346    1.5931 C   0  0  0  0  0  0  0  0  0  0  0  0
   -1.5309   -1.0735   -0.7957 C   0  0  0  0  0  0  0  0  0  0  0  0
   -1.1933    1.9815   -1.2546 C   0  0  0  0  0  0  0  0  0  0  0  0
    2.5025   -1.9447   -0.5030 C   0  0  0  0  0  0  0  0  0  0  0  0
   -2.6660   -1.6907    1.6769 C   0  0  0  0  0  0  0  0  0  0  0  0
   -2.5431   -2.0295   -0.7122 C   0  0  0  0  0  0  0  0  0  0  0  0
   -3.1106   -2.3382    0.5242 C   0  0  0  0  0  0  0  0  0  0  0  0
   -1.1097    2.6448   -2.5959 C   0  0  0  0  0  0  0  0  0  0  0  0
    2.6528   -2.7683   -1.7461 C   0  0  0  0  0  0  0  0  0  0  0  0
    1.4753   -0.5868    1.3032 H   0  0  0  0  0  0  0  0  0  0  0  0
   -0.0598    1.2233    2.3626 H   0  0  0  0  0  0  0  0  0  0  0  0
   -1.0960    2.2173    1.3847 H   0  0  0  0  0  0  0  0  0  0  0  0
    2.5997    1.5164   -0.6266 H   0  0  0  0  0  0  0  0  0  0  0  0
    3.5248    0.5385    0.4834 H   0  0  0  0  0  0  0  0  0  0  0  0
    0.8620    3.4158    2.2040 H   0  0  0  0  0  0  0  0  0  0  0  0
    0.9269    3.3369    0.4485 H   0  0  0  0  0  0  0  0  0  0  0  0
    3.1405    2.8311    1.3713 H   0  0  0  0  0  0  0  0  0  0  0  0
    2.4727    1.5918    2.4296 H   0  0  0  0  0  0  0  0  0  0  0  0
   -1.3336   -0.2869    2.5257 H   0  0  0  0  0  0  0  0  0  0  0  0
   -1.0945   -0.8659   -1.7688 H   0  0  0  0  0  0  0  0  0  0  0  0
   -3.1041   -1.9362    2.6400 H   0  0  0  0  0  0  0  0  0  0  0  0
   -2.8863   -2.5371   -1.6089 H   0  0  0  0  0  0  0  0  0  0  0  0
   -3.8970   -3.0844    0.5896 H   0  0  0  0  0  0  0  0  0  0  0  0
   -0.9697    1.8898   -3.3736 H   0  0  0  0  0  0  0  0  0  0  0  0
   -0.2858    3.3628   -2.6026 H   0  0  0  0  0  0  0  0  0  0  0  0
   -2.0418    3.1814   -2.7941 H   0  0  0  0  0  0  0  0  0  0  0  0
    1.6786   -3.1585   -2.0514 H   0  0  0  0  0  0  0  0  0  0  0  0
    3.3183   -3.6123   -1.5439 H   0  0  0  0  0  0  0  0  0  0  0  0
    3.0913   -2.1610   -2.5418 H   0  0  0  0  0  0  0  0  0  0  0  0
  1  5  1  0  0  0  0
  1 14  1  0  0  0  0
  2  6  1  0  0  0  0
  2 15  1  0  0  0  0
  3 14  2  0  0  0  0
  4 15  2  0  0  0  0
  5  6  1  0  0  0  0
  5  7  1  0  0  0  0
  5 11  1  0  0  0  0
  6  8  1  0  0  0  0
  6 21  1  0  0  0  0
  7  9  1  0  0  0  0
  7 22  1  0  0  0  0
  7 23  1  0  0  0  0
  8 10  1  0  0  0  0
  8 24  1  0  0  0  0
  8 25  1  0  0  0  0
  9 10  1  0  0  0  0
  9 26  1  0  0  0  0
  9 27  1  0  0  0  0
 10 28  1  0  0  0  0
 10 29  1  0  0  0  0
 11 12  2  0  0  0  0
 11 13  1  0  0  0  0
 12 16  1  0  0  0  0
 12 30  1  0  0  0  0
 13 17  2  0  0  0  0
 13 31  1  0  0  0  0
 14 19  1  0  0  0  0
 15 20  1  0  0  0  0
 16 18  2  0  0  0  0
 16 32  1  0  0  0  0
 17 18  1  0  0  0  0
 17 33  1  0  0  0  0
 18 34  1  0  0  0  0
 19 35  1  0  0  0  0
 19 36  1  0  0  0  0
 19 37  1  0  0  0  0
 20 38  1  0  0  0  0
 20 39  1  0  0  0  0
 20 40  1  0  0  0  0
M  END
> <PUBCHEM_COMPOUND_CID>
134943546

> <PUBCHEM_CONFORMER_RMSD>
0.8

> <PUBCHEM_CONFORMER_DIVERSEORDER>
1
5
7
8
4
9
3
6
2

> <PUBCHEM_MMFF94_PARTIAL_CHARGES>
21
1 -0.43
11 -0.14
12 -0.15
13 -0.15
14 0.66
15 0.66
16 -0.15
17 -0.15
18 -0.15
19 0.06
2 -0.43
20 0.06
3 -0.57
30 0.15
31 0.15
32 0.15
33 0.15
34 0.15
4 -0.57
5 0.42
6 0.28

> <PUBCHEM_EFFECTIVE_ROTOR_COUNT>
6.2

> <PUBCHEM_PHARMACOPHORE_FEATURES>
4
1 3 acceptor
1 4 acceptor
6 11 12 13 16 17 18 rings
6 5 6 7 8 9 10 rings

> <PUBCHEM_HEAVY_ATOM_COUNT>
20

> <PUBCHEM_ATOM_DEF_STEREO_COUNT>
2

> <PUBCHEM_ATOM_UDEF_STEREO_COUNT>
0

> <PUBCHEM_BOND_DEF_STEREO_COUNT>
0

> <PUBCHEM_BOND_UDEF_STEREO_COUNT>
0

> <PUBCHEM_ISOTOPIC_ATOM_COUNT>
0

> <PUBCHEM_COMPONENT_COUNT>
1

> <PUBCHEM_CACTVS_TAUTO_COUNT>
1

> <PUBCHEM_CONFORMER_ID>
080B133A00000001

> <PUBCHEM_MMFF94_ENERGY>
51.2685

> <PUBCHEM_FEATURE_SELFOVERLAP>
20.298

> <PUBCHEM_SHAPE_FINGERPRINT>
10064457 181 17193203751847540370
10906281 52 17897159350334703749
11578080 2 18339656589020053820
12173636 292 17189566082642214678
12553582 1 18129680624671043726
12617007 42 17896038909547449007
12714826 92 18118986714306995910
13140716 1 18270403772135397170
13149001 5 18122328100110489956
13681431 1 17680156458300546221
14178342 30 17763473107273611171
14787075 74 14379063573865704771
14817 1 17316999737345687613
14863182 85 17623025889687361191
15209289 33 17699302263001996688
15309172 13 17767113581477254696
15422964 175 18116443728706456867
15490181 7 17682369508924840797
15502708 68 17913204553324828986
16945 1 18055352693444421913
20344682 1 17975120256403455976
20645476 183 17101451267588947870
21285901 2 18190720077337807119
22802520 49 18335973220966481637
23419403 2 18341326712869866749
23526113 38 18197199370120874762
23559900 14 16663981172044067240
2748010 2 18271233946432306986
298252 57 16520478106764385676
3250762 1 18339063939383195640
576247 118 17750820889412207875
5845 1 18055383295076245954
81228 2 18113611296732831749
9981440 41 17266885127028764800
9999458 23 17626682835285647201

> <PUBCHEM_SHAPE_MULTIPOLES>
388.11
4.5
3.78
1.98
1.97
0.93
-0.67
2.61
1.57
-2.2
-1.92
0.19
-1.03
1.66

> <PUBCHEM_SHAPE_SELFOVERLAP>
813.685

> <PUBCHEM_SHAPE_VOLUME>
215.8

> <PUBCHEM_COORDINATE_TYPE>
2
5
10

$$$$
