140475
  -OEChem-11012400553D

 23 23  0     0  0  0  0  0  0999 V2000
    0.0082    3.1148    0.2392 O   0  5  0  0  0  0  0  0  0  0  0  0
   -1.8996    2.0780   -0.0834 O   0  0  0  0  0  0  0  0  0  0  0  0
   -2.3306   -0.8595    1.7333 O   0  5  0  0  0  0  0  0  0  0  0  0
   -3.9013   -1.4555    0.3224 O   0  0  0  0  0  0  0  0  0  0  0  0
    4.1552   -1.4831   -0.0037 O   0  5  0  0  0  0  0  0  0  0  0  0
    4.1437    0.6920    0.2926 O   0  0  0  0  0  0  0  0  0  0  0  0
   -2.0544   -0.3795   -0.4350 N   0  0  0  0  0  0  0  0  0  0  0  0
   -0.6518    2.0695    0.0330 N   0  3  0  0  0  0  0  0  0  0  0  0
   -2.8091   -0.9399    0.5947 N   0  3  0  0  0  0  0  0  0  0  0  0
    3.5441   -0.3911    0.0886 N   0  3  0  0  0  0  0  0  0  0  0  0
   -0.6477   -0.3620   -0.3003 C   0  0  0  0  0  0  0  0  0  0  0  0
    0.0397    0.8302   -0.0728 C   0  0  0  0  0  0  0  0  0  0  0  0
    0.0538   -1.5636   -0.3986 C   0  0  0  0  0  0  0  0  0  0  0  0
    1.4285    0.8208    0.0564 C   0  0  0  0  0  0  0  0  0  0  0  0
    2.1301   -0.3807   -0.0421 C   0  0  0  0  0  0  0  0  0  0  0  0
    1.4428   -1.5731   -0.2697 C   0  0  0  0  0  0  0  0  0  0  0  0
   -2.6515   -0.2173   -1.7547 C   0  0  0  0  0  0  0  0  0  0  0  0
   -0.4680   -2.5003   -0.5788 H   0  0  0  0  0  0  0  0  0  0  0  0
    1.9685    1.7479    0.2340 H   0  0  0  0  0  0  0  0  0  0  0  0
    1.9559   -2.5277   -0.3529 H   0  0  0  0  0  0  0  0  0  0  0  0
   -3.6637    0.1966   -1.6842 H   0  0  0  0  0  0  0  0  0  0  0  0
   -2.7025   -1.1814   -2.2725 H   0  0  0  0  0  0  0  0  0  0  0  0
   -2.0652    0.4683   -2.3772 H   0  0  0  0  0  0  0  0  0  0  0  0
  1  8  1  0  0  0  0
  2  8  2  0  0  0  0
  3  9  1  0  0  0  0
  4  9  2  0  0  0  0
  5 10  1  0  0  0  0
  6 10  2  0  0  0  0
  7  9  1  0  0  0  0
  7 11  1  0  0  0  0
  7 17  1  0  0  0  0
  8 12  1  0  0  0  0
 10 15  1  0  0  0  0
 11 12  2  0  0  0  0
 11 13  1  0  0  0  0
 12 14  1  0  0  0  0
 13 16  2  0  0  0  0
 13 18  1  0  0  0  0
 14 15  2  0  0  0  0
 14 19  1  0  0  0  0
 15 16  1  0  0  0  0
 16 20  1  0  0  0  0
 17 21  1  0  0  0  0
 17 22  1  0  0  0  0
 17 23  1  0  0  0  0
M  CHG  6   1  -1   3  -1   5  -1   8   1   9   1  10   1
M  END
> <PUBCHEM_COMPOUND_CID>
140475

> <PUBCHEM_CONFORMER_RMSD>
0.6

> <PUBCHEM_CONFORMER_DIVERSEORDER>
1
2

> <PUBCHEM_MMFF94_PARTIAL_CHARGES>
20
1 -0.52
10 0.91
11 0.1
12 0.13
13 -0.15
14 -0.15
15 0.13
16 -0.15
17 0.37
18 0.15
19 0.15
2 -0.52
20 0.15
3 -0.52
4 -0.52
5 -0.52
6 -0.52
7 -0.47
8 0.91
9 1.04

> <PUBCHEM_EFFECTIVE_ROTOR_COUNT>
4

> <PUBCHEM_PHARMACOPHORE_FEATURES>
9
1 1 acceptor
1 1 anion
1 2 acceptor
1 3 acceptor
1 4 acceptor
1 5 acceptor
1 5 anion
1 6 acceptor
6 11 12 13 14 15 16 rings

> <PUBCHEM_HEAVY_ATOM_COUNT>
17

> <PUBCHEM_ATOM_DEF_STEREO_COUNT>
0

> <PUBCHEM_ATOM_UDEF_STEREO_COUNT>
0

> <PUBCHEM_BOND_DEF_STEREO_COUNT>
0

> <PUBCHEM_BOND_UDEF_STEREO_COUNT>
0

> <PUBCHEM_ISOTOPIC_ATOM_COUNT>
0

> <PUBCHEM_COMPONENT_COUNT>
1

> <PUBCHEM_CACTVS_TAUTO_COUNT>
1

> <PUBCHEM_CONFORMER_ID>
000224BB00000001

> <PUBCHEM_MMFF94_ENERGY>
81.0809

> <PUBCHEM_FEATURE_SELFOVERLAP>
45.921

> <PUBCHEM_SHAPE_FINGERPRINT>
10219947 1 18341335581972084162
108231 29 18262241126348525026
10967382 1 18267864067857833172
11132069 177 17917700310579494814
11578080 2 16986558032526539193
12032990 46 18410295817595327894
13140716 1 17980192308158847658
13214271 11 18341895182077627719
13380535 21 17982181028113871486
13380535 76 17979911614444191548
13583140 156 13542176152588165342
14614273 12 18117833300675982420
14787075 74 17825110565258849634
16945 1 18341609343430072574
17844478 74 18411706473796757634
200 152 18201993370205275383
20510252 161 18343019965503970168
20525323 117 18341610356730923076
20871998 184 18201438021684325172
21061003 4 18337116751835387259
21296965 67 18411135870090191561
21501502 16 18123743150169133798
21524375 3 17331113897607883084
22802520 49 17841727213721807694
2306618 200 17774153492288907386
2334 1 18341047407183690190
23402539 116 18271795830975681750
23493267 7 17749940077249845785
23559900 14 18187917345084379426
25610 137 18408605881197677556
2748010 2 18198341762891824020
3286 77 18191309488716736975
3312278 4 18261670381045123055
5104073 3 18268421353271676842
568465 68 17969239982250264099
81228 2 18118985606189453505

> <PUBCHEM_SHAPE_MULTIPOLES>
294.71
5.94
2.28
0.98
3.29
1.77
-0.04
-2.41
0.47
-0.34
0.15
-1.01
-0.24
0.39

> <PUBCHEM_SHAPE_SELFOVERLAP>
621.935

> <PUBCHEM_SHAPE_VOLUME>
166

> <PUBCHEM_COORDINATE_TYPE>
2
5
10

$$$$
