140913
  -OEChem-11012401153D

 25 25  0     1  0  0  0  0  0999 V2000
   -0.7263   -0.0619   -0.7713 O   0  0  0  0  0  0  0  0  0  0  0  0
    0.6731    0.9826    0.8255 O   0  0  0  0  0  0  0  0  0  0  0  0
    2.3869   -1.1704    0.6052 O   0  0  0  0  0  0  0  0  0  0  0  0
    1.5932   -1.1250   -1.5639 O   0  0  0  0  0  0  0  0  0  0  0  0
   -4.1270   -0.2773   -0.3978 O   0  5  0  0  0  0  0  0  0  0  0  0
   -2.6638    1.2235    0.2811 O   0  0  0  0  0  0  0  0  0  0  0  0
    1.3975    1.7533   -1.2284 O   0  0  0  0  0  0  0  0  0  0  0  0
   -2.9625    0.0997   -0.1661 N   0  3  0  0  0  0  0  0  0  0  0  0
    0.2721   -0.2410    0.2433 C   0  0  1  0  0  0  0  0  0  0  0  0
   -1.8699   -0.8481   -0.4159 C   0  0  2  0  0  0  0  0  0  0  0  0
   -0.3167   -1.1803    1.2378 C   0  0  0  0  0  0  0  0  0  0  0  0
   -1.5507   -1.5143    0.8629 C   0  0  0  0  0  0  0  0  0  0  0  0
    1.4744   -0.8912   -0.3687 C   0  0  0  0  0  0  0  0  0  0  0  0
    1.2265    1.9038   -0.0262 C   0  0  0  0  0  0  0  0  0  0  0  0
    1.6011    3.1448    0.7259 C   0  0  0  0  0  0  0  0  0  0  0  0
    3.5922   -1.7982    0.1567 C   0  0  0  0  0  0  0  0  0  0  0  0
   -2.1400   -1.5236   -1.2312 H   0  0  0  0  0  0  0  0  0  0  0  0
    0.1639   -1.5263    2.1413 H   0  0  0  0  0  0  0  0  0  0  0  0
   -2.2034   -2.1808    1.4068 H   0  0  0  0  0  0  0  0  0  0  0  0
    2.3397    2.9025    1.4941 H   0  0  0  0  0  0  0  0  0  0  0  0
    0.7090    3.5882    1.1750 H   0  0  0  0  0  0  0  0  0  0  0  0
    2.0410    3.8693    0.0348 H   0  0  0  0  0  0  0  0  0  0  0  0
    4.1193   -1.1462   -0.5463 H   0  0  0  0  0  0  0  0  0  0  0  0
    3.3666   -2.7639   -0.3056 H   0  0  0  0  0  0  0  0  0  0  0  0
    4.2320   -1.9664    1.0270 H   0  0  0  0  0  0  0  0  0  0  0  0
  1  9  1  0  0  0  0
  1 10  1  0  0  0  0
  2  9  1  0  0  0  0
  2 14  1  0  0  0  0
  3 13  1  0  0  0  0
  3 16  1  0  0  0  0
  4 13  2  0  0  0  0
  5  8  1  0  0  0  0
  6  8  2  0  0  0  0
  7 14  2  0  0  0  0
  8 10  1  0  0  0  0
  9 11  1  0  0  0  0
  9 13  1  0  0  0  0
 10 12  1  0  0  0  0
 10 17  1  0  0  0  0
 11 12  2  0  0  0  0
 11 18  1  0  0  0  0
 12 19  1  0  0  0  0
 14 15  1  0  0  0  0
 15 20  1  0  0  0  0
 15 21  1  0  0  0  0
 15 22  1  0  0  0  0
 16 23  1  0  0  0  0
 16 24  1  0  0  0  0
 16 25  1  0  0  0  0
M  CHG  2   5  -1   8   1
M  END
> <PUBCHEM_COMPOUND_CID>
140913

> <PUBCHEM_CONFORMER_RMSD>
0.6

> <PUBCHEM_CONFORMER_DIVERSEORDER>
5
16
60
43
51
36
34
38
18
57
29
50
40
48
47
44
17
15
25
4
19
55
56
58
8
46
20
39
14
53
28
49
30
32
54
2
59
23
41
35
10
45
27
9
52
1
33
31
7
21
22
12
13
42
24
11
26
37
6
3

> <PUBCHEM_MMFF94_PARTIAL_CHARGES>
18
1 -0.56
10 0.66
11 -0.29
12 -0.29
13 0.66
14 0.66
15 0.06
16 0.28
18 0.15
19 0.15
2 -0.43
3 -0.43
4 -0.57
5 -0.52
6 -0.52
7 -0.57
8 0.8
9 0.76

> <PUBCHEM_EFFECTIVE_ROTOR_COUNT>
5.6

> <PUBCHEM_PHARMACOPHORE_FEATURES>
7
1 1 acceptor
1 4 acceptor
1 5 acceptor
1 5 anion
1 6 acceptor
1 7 acceptor
5 1 9 10 11 12 rings

> <PUBCHEM_HEAVY_ATOM_COUNT>
16

> <PUBCHEM_ATOM_DEF_STEREO_COUNT>
0

> <PUBCHEM_ATOM_UDEF_STEREO_COUNT>
2

> <PUBCHEM_BOND_DEF_STEREO_COUNT>
0

> <PUBCHEM_BOND_UDEF_STEREO_COUNT>
0

> <PUBCHEM_ISOTOPIC_ATOM_COUNT>
0

> <PUBCHEM_COMPONENT_COUNT>
1

> <PUBCHEM_CACTVS_TAUTO_COUNT>
2

> <PUBCHEM_CONFORMER_ID>
0002267100000005

> <PUBCHEM_MMFF94_ENERGY>
28.4094

> <PUBCHEM_FEATURE_SELFOVERLAP>
35.63

> <PUBCHEM_SHAPE_FINGERPRINT>
1 1 18052257585756234708
10130415 120 18260549970301839074
12423570 1 9472293738563669719
12716301 132 16590519350869032780
13132413 78 18190739726433409900
13134695 92 18341037554275713596
13464514 151 18338809995273654276
13839132 238 17897727797550539791
14181834 199 18343021129197449252
14344429 50 18334857207947896743
14648413 74 18337109080712527889
14817 1 11440201673129344364
15219456 202 18190463955078212531
15490181 7 17693664023077441406
16945 1 18337124366744110547
18186145 218 18041547105988887447
18410436 195 18412260597755838016
20233049 118 17897719869083297989
20511035 2 18265895937517057806
20671657 1 18339361971521953981
20711985 327 18271243824651482974
20711985 344 17764894402198664598
21041028 32 18268445563506861065
21130352 189 18409162182230618117
21501502 16 18265335186602943539
21524375 3 17480307107332843680
21947302 44 18337953510037983649
22344851 262 17774709879495578479
22802520 49 18338250374056576265
23402539 116 18196642995857569614
23419403 2 18120342455463047220
23557571 272 18197502818952255278
2748010 2 17969789764060691803
305870 269 18124027103336894408
3250762 1 18117847826313588026
3286 77 18333447638678959791
5337951 7 18334864926014631707
58734987 51 18266177232089298216
7364860 26 18341327902654857640
74978 22 18335704961646670235
81228 2 17906189360229065706

> <PUBCHEM_SHAPE_MULTIPOLES>
283.21
4.71
2.59
1.1
2.81
2.02
0.1
-1.19
0.38
-2.37
-0.49
-0.23
-0.11
0.25

> <PUBCHEM_SHAPE_SELFOVERLAP>
589.62

> <PUBCHEM_SHAPE_VOLUME>
160.6

> <PUBCHEM_COORDINATE_TYPE>
2
5
10

$$$$
