143711
  -OEChem-11012401213D

 28 27  0     0  0  0  0  0  0999 V2000
   -2.8865    1.2579   -0.3919 F   0  0  0  0  0  0  0  0  0  0  0  0
    2.9254   -1.6042    2.0313 O   0  5  0  0  0  0  0  0  0  0  0  0
    1.3467   -0.1933   -2.0099 O   0  5  0  0  0  0  0  0  0  0  0  0
    2.9445    1.9212    0.7597 O   0  5  0  0  0  0  0  0  0  0  0  0
    4.1993   -1.4819    0.2495 O   0  0  0  0  0  0  0  0  0  0  0  0
    1.5848   -2.1587   -1.0642 O   0  0  0  0  0  0  0  0  0  0  0  0
    3.4986    1.0966   -1.1948 O   0  0  0  0  0  0  0  0  0  0  0  0
   -0.0035    2.6856    0.9305 O   0  5  0  0  0  0  0  0  0  0  0  0
   -0.2941    2.0791   -1.1659 O   0  0  0  0  0  0  0  0  0  0  0  0
   -3.8340   -1.1148    1.7942 O   0  5  0  0  0  0  0  0  0  0  0  0
   -2.2037   -2.0741   -0.7678 O   0  5  0  0  0  0  0  0  0  0  0  0
   -4.9669    0.0833    0.3416 O   0  0  0  0  0  0  0  0  0  0  0  0
   -2.4413   -0.3829   -2.1516 O   0  0  0  0  0  0  0  0  0  0  0  0
   -0.2251    0.5033    0.4373 N   0  0  0  0  0  0  0  0  0  0  0  0
    3.1848   -1.1827    0.8940 N   0  3  0  0  0  0  0  0  0  0  0  0
    1.6787   -0.9224   -1.0646 N   0  3  0  0  0  0  0  0  0  0  0  0
    2.9418    1.0189   -0.0914 N   0  3  0  0  0  0  0  0  0  0  0  0
   -0.1557    1.8410    0.0398 N   0  3  0  0  0  0  0  0  0  0  0  0
   -3.9125   -0.3650    0.8119 N   0  3  0  0  0  0  0  0  0  0  0  0
   -2.4084   -0.8787   -1.0170 N   0  3  0  0  0  0  0  0  0  0  0  0
    0.9499   -0.0167    1.1401 C   0  0  0  0  0  0  0  0  0  0  0  0
    2.1646   -0.2576    0.2242 C   0  0  0  0  0  0  0  0  0  0  0  0
   -1.4608    0.1029    1.1167 C   0  0  0  0  0  0  0  0  0  0  0  0
   -2.6267    0.0430    0.1484 C   0  0  0  0  0  0  0  0  0  0  0  0
    0.6760   -0.9986    1.5507 H   0  0  0  0  0  0  0  0  0  0  0  0
    1.2007    0.5958    2.0169 H   0  0  0  0  0  0  0  0  0  0  0  0
   -1.3436   -0.8903    1.5697 H   0  0  0  0  0  0  0  0  0  0  0  0
   -1.6791    0.7932    1.9427 H   0  0  0  0  0  0  0  0  0  0  0  0
  1 24  1  0  0  0  0
  2 15  1  0  0  0  0
  3 16  1  0  0  0  0
  4 17  1  0  0  0  0
  5 15  2  0  0  0  0
  6 16  2  0  0  0  0
  7 17  2  0  0  0  0
  8 18  1  0  0  0  0
  9 18  2  0  0  0  0
 10 19  1  0  0  0  0
 11 20  1  0  0  0  0
 12 19  2  0  0  0  0
 13 20  2  0  0  0  0
 14 18  1  0  0  0  0
 14 21  1  0  0  0  0
 14 23  1  0  0  0  0
 15 22  1  0  0  0  0
 16 22  1  0  0  0  0
 17 22  1  0  0  0  0
 19 24  1  0  0  0  0
 20 24  1  0  0  0  0
 21 22  1  0  0  0  0
 21 25  1  0  0  0  0
 21 26  1  0  0  0  0
 23 24  1  0  0  0  0
 23 27  1  0  0  0  0
 23 28  1  0  0  0  0
M  CHG  8   2  -1   3  -1   4  -1   8  -1  10  -1  11  -1  15   1  16   1
M  CHG  4  17   1  18   1  19   1  20   1
M  END
> <PUBCHEM_COMPOUND_CID>
143711

> <PUBCHEM_CONFORMER_RMSD>
1

> <PUBCHEM_CONFORMER_DIVERSEORDER>
1
20
21
11
10
13
27
23
24
3
9
17
4
25
22
26
19
8
16
7
18
14
5
6
15
12
2

> <PUBCHEM_MMFF94_PARTIAL_CHARGES>
24
1 -0.34
10 -0.52
11 -0.52
12 -0.52
13 -0.52
14 -0.53
15 0.8
16 0.8
17 0.8
18 1.03
19 0.8
2 -0.52
20 0.8
21 0.27
22 0.72
23 0.27
24 0.82
3 -0.52
4 -0.52
5 -0.52
6 -0.52
7 -0.52
8 -0.52
9 -0.52

> <PUBCHEM_EFFECTIVE_ROTOR_COUNT>
10

> <PUBCHEM_PHARMACOPHORE_FEATURES>
17
1 10 acceptor
1 10 anion
1 11 acceptor
1 11 anion
1 12 acceptor
1 13 acceptor
1 2 acceptor
1 2 anion
1 3 acceptor
1 3 anion
1 4 acceptor
1 4 anion
1 5 acceptor
1 6 acceptor
1 7 acceptor
1 8 acceptor
1 9 acceptor

> <PUBCHEM_HEAVY_ATOM_COUNT>
24

> <PUBCHEM_ATOM_DEF_STEREO_COUNT>
0

> <PUBCHEM_ATOM_UDEF_STEREO_COUNT>
0

> <PUBCHEM_BOND_DEF_STEREO_COUNT>
0

> <PUBCHEM_BOND_UDEF_STEREO_COUNT>
0

> <PUBCHEM_ISOTOPIC_ATOM_COUNT>
0

> <PUBCHEM_COMPONENT_COUNT>
1

> <PUBCHEM_CACTVS_TAUTO_COUNT>
1

> <PUBCHEM_CONFORMER_ID>
0002315F00000001

> <PUBCHEM_MMFF94_ENERGY>
78.0505

> <PUBCHEM_FEATURE_SELFOVERLAP>
86.796

> <PUBCHEM_SHAPE_FINGERPRINT>
11132069 177 17561073692392783230
12553582 1 18201998841397348785
12633257 1 17561362872445916731
13224815 77 17418084455673635310
13296908 3 18040995137538783177
14178342 30 17060329743232023351
15375462 189 18410294760827436985
16945 1 17132114623873290393
18186145 218 17168136819432490440
20645477 70 18411134736303403435
21756936 100 14187565405328465738
23557571 272 16298380288390403133
23559900 14 17822000974650426624
2748010 2 17411062742564238078
81228 2 18053388703785020649

> <PUBCHEM_SHAPE_MULTIPOLES>
381.34
7.28
2.12
1.68
3.01
0.61
0.26
-1.91
-1.4
-0.99
0
0.05
-0.45
-0.28

> <PUBCHEM_SHAPE_SELFOVERLAP>
772.342

> <PUBCHEM_SHAPE_VOLUME>
221

> <PUBCHEM_COORDINATE_TYPE>
2
5
10

$$$$
