69092
  -OEChem-11012400423D

 25 25  0     0  0  0  0  0  0999 V2000
    1.4699    0.2236   -0.0338 O   0  0  0  0  0  0  0  0  0  0  0  0
   -1.8465   -2.1480   -0.4058 O   0  0  0  0  0  0  0  0  0  0  0  0
    0.6574   -1.8164    0.6567 O   0  0  0  0  0  0  0  0  0  0  0  0
    3.7716    0.8471   -0.3240 C   0  0  0  0  0  0  0  0  0  0  0  0
    2.8117   -0.2642    0.0721 C   0  0  0  0  0  0  0  0  0  0  0  0
   -0.8436   -0.0378    0.1386 C   0  0  0  0  0  0  0  0  0  0  0  0
    5.2193    0.3960   -0.2500 C   0  0  0  0  0  0  0  0  0  0  0  0
    0.4689   -0.6508    0.2875 C   0  0  0  0  0  0  0  0  0  0  0  0
   -1.9577   -0.8048   -0.2026 C   0  0  0  0  0  0  0  0  0  0  0  0
   -0.9781    1.3358    0.3407 C   0  0  0  0  0  0  0  0  0  0  0  0
   -3.2060   -0.1982   -0.3415 C   0  0  0  0  0  0  0  0  0  0  0  0
   -2.2265    1.9423    0.2017 C   0  0  0  0  0  0  0  0  0  0  0  0
   -3.3404    1.1754   -0.1395 C   0  0  0  0  0  0  0  0  0  0  0  0
    3.5396    1.1886   -1.3400 H   0  0  0  0  0  0  0  0  0  0  0  0
    3.6176    1.7154    0.3277 H   0  0  0  0  0  0  0  0  0  0  0  0
    2.9344   -1.1258   -0.5944 H   0  0  0  0  0  0  0  0  0  0  0  0
    3.0008   -0.5772    1.1055 H   0  0  0  0  0  0  0  0  0  0  0  0
    5.4027   -0.4465   -0.9245 H   0  0  0  0  0  0  0  0  0  0  0  0
    5.8868    1.2138   -0.5390 H   0  0  0  0  0  0  0  0  0  0  0  0
    5.4821    0.0861    0.7665 H   0  0  0  0  0  0  0  0  0  0  0  0
   -0.1329    1.9592    0.6207 H   0  0  0  0  0  0  0  0  0  0  0  0
   -4.0826   -0.7832   -0.6070 H   0  0  0  0  0  0  0  0  0  0  0  0
   -2.3322    3.0113    0.3620 H   0  0  0  0  0  0  0  0  0  0  0  0
   -4.3125    1.6477   -0.2469 H   0  0  0  0  0  0  0  0  0  0  0  0
   -2.7207   -2.5082   -0.6336 H   0  0  0  0  0  0  0  0  0  0  0  0
  1  5  1  0  0  0  0
  1  8  1  0  0  0  0
  2  9  1  0  0  0  0
  2 25  1  0  0  0  0
  3  8  2  0  0  0  0
  4  5  1  0  0  0  0
  4  7  1  0  0  0  0
  4 14  1  0  0  0  0
  4 15  1  0  0  0  0
  5 16  1  0  0  0  0
  5 17  1  0  0  0  0
  6  8  1  0  0  0  0
  6  9  1  0  0  0  0
  6 10  2  0  0  0  0
  7 18  1  0  0  0  0
  7 19  1  0  0  0  0
  7 20  1  0  0  0  0
  9 11  2  0  0  0  0
 10 12  1  0  0  0  0
 10 21  1  0  0  0  0
 11 13  1  0  0  0  0
 11 22  1  0  0  0  0
 12 13  2  0  0  0  0
 12 23  1  0  0  0  0
 13 24  1  0  0  0  0
M  END
> <PUBCHEM_COMPOUND_CID>
69092

> <PUBCHEM_CONFORMER_RMSD>
0.6

> <PUBCHEM_CONFORMER_DIVERSEORDER>
1
15
34
29
45
44
47
27
43
19
35
28
10
46
6
41
16
25
24
8
37
22
30
42
40
32
36
7
48
2
5
14
9
13
20
39
31
38
3
11
33
4
12
17
21
18
26
23

> <PUBCHEM_MMFF94_PARTIAL_CHARGES>
16
1 -0.43
10 -0.15
11 -0.15
12 -0.15
13 -0.15
2 -0.53
21 0.15
22 0.15
23 0.15
24 0.15
25 0.45
3 -0.57
5 0.28
6 0.09
8 0.63
9 0.08

> <PUBCHEM_EFFECTIVE_ROTOR_COUNT>
4

> <PUBCHEM_PHARMACOPHORE_FEATURES>
4
1 2 donor
1 3 acceptor
1 7 hydrophobe
6 6 9 10 11 12 13 rings

> <PUBCHEM_HEAVY_ATOM_COUNT>
13

> <PUBCHEM_ATOM_DEF_STEREO_COUNT>
0

> <PUBCHEM_ATOM_UDEF_STEREO_COUNT>
0

> <PUBCHEM_BOND_DEF_STEREO_COUNT>
0

> <PUBCHEM_BOND_UDEF_STEREO_COUNT>
0

> <PUBCHEM_ISOTOPIC_ATOM_COUNT>
0

> <PUBCHEM_COMPONENT_COUNT>
1

> <PUBCHEM_CACTVS_TAUTO_COUNT>
4

> <PUBCHEM_CONFORMER_ID>
00010DE400000001

> <PUBCHEM_MMFF94_ENERGY>
28.4211

> <PUBCHEM_FEATURE_SELFOVERLAP>
20.297

> <PUBCHEM_SHAPE_FINGERPRINT>
12251169 10 8574714598430112070
12346645 44 18334857182267588482
13024252 1 17821730554924732347
13214271 11 17530970172289407997
14325111 11 18409449163661227480
14897335 6 18336825299512523802
15669948 3 18341601633657983358
15775835 57 18335704901369291960
16945 1 18340472427121798865
20300324 65 18272650172932357516
20645477 56 18413393120207059788
20645477 70 16701750350240885046
20871999 31 18270949229013796759
22485316 2 10663824057541404100
23402539 116 18341887519644858446
23552423 10 18049717421991452267
23557571 272 18131079276232626830
23559900 14 18273494573031604600
2748010 2 17908123718983432291
4175511 318 17917992788929985500
573450 72 18335971022449680674
6333449 129 18342455945813580425
7364860 26 18124312710088071922

> <PUBCHEM_SHAPE_MULTIPOLES>
249.93
7.66
1.8
0.68
10.42
0.29
-0.01
-2.37
1.25
-1.3
-0.08
0
0.03
-0.38

> <PUBCHEM_SHAPE_SELFOVERLAP>
512.096

> <PUBCHEM_SHAPE_VOLUME>
144.7

> <PUBCHEM_COORDINATE_TYPE>
2
5
10

$$$$
