84340
  -OEChem-11012400343D

 37 39  0     0  0  0  0  0  0999 V2000
   -0.1190    0.0487   -1.9143 N   0  0  0  0  0  0  0  0  0  0  0  0
   -1.2736    0.2196   -2.2744 N   0  3  0  0  0  0  0  0  0  0  0  0
   -2.3347    0.3788   -2.6615 N   0  5  0  0  0  0  0  0  0  0  0  0
    0.0407   -0.0243   -0.4061 C   0  0  0  0  0  0  0  0  0  0  0  0
   -1.2089   -0.5852    0.1848 C   0  0  0  0  0  0  0  0  0  0  0  0
    1.3136   -0.9280   -0.1690 C   0  0  0  0  0  0  0  0  0  0  0  0
    0.3519    1.4531    0.0558 C   0  0  0  0  0  0  0  0  0  0  0  0
   -1.6772   -1.8324   -0.2289 C   0  0  0  0  0  0  0  0  0  0  0  0
    1.3300   -1.6749    0.9594 C   0  0  0  0  0  0  0  0  0  0  0  0
    1.1060    1.5979    1.1701 C   0  0  0  0  0  0  0  0  0  0  0  0
   -1.9092    0.1375    1.1507 C   0  0  0  0  0  0  0  0  0  0  0  0
    2.2810   -0.8792   -1.1140 C   0  0  0  0  0  0  0  0  0  0  0  0
   -0.1620    2.4501   -0.7015 C   0  0  0  0  0  0  0  0  0  0  0  0
   -2.8458   -2.3567    0.3236 C   0  0  0  0  0  0  0  0  0  0  0  0
    2.4547   -2.4729    1.1690 C   0  0  0  0  0  0  0  0  0  0  0  0
    1.3808    2.9033    1.5782 C   0  0  0  0  0  0  0  0  0  0  0  0
   -3.0776   -0.3870    1.7033 C   0  0  0  0  0  0  0  0  0  0  0  0
    3.4057   -1.6774   -0.9046 C   0  0  0  0  0  0  0  0  0  0  0  0
    0.1130    3.7554   -0.2935 C   0  0  0  0  0  0  0  0  0  0  0  0
   -3.5460   -1.6341    1.2898 C   0  0  0  0  0  0  0  0  0  0  0  0
    3.4924   -2.4743    0.2369 C   0  0  0  0  0  0  0  0  0  0  0  0
    0.8844    3.9820    0.8462 C   0  0  0  0  0  0  0  0  0  0  0  0
   -1.1466   -2.4165   -0.9767 H   0  0  0  0  0  0  0  0  0  0  0  0
    0.5527   -1.6756    1.7136 H   0  0  0  0  0  0  0  0  0  0  0  0
    1.4840    0.7920    1.7829 H   0  0  0  0  0  0  0  0  0  0  0  0
   -1.6021    1.1094    1.5185 H   0  0  0  0  0  0  0  0  0  0  0  0
    2.2533   -0.2502   -1.9955 H   0  0  0  0  0  0  0  0  0  0  0  0
   -0.7766    2.3626   -1.5814 H   0  0  0  0  0  0  0  0  0  0  0  0
   -3.2100   -3.3283    0.0025 H   0  0  0  0  0  0  0  0  0  0  0  0
    2.5256   -3.0886    2.0610 H   0  0  0  0  0  0  0  0  0  0  0  0
    1.9751    3.0804    2.4699 H   0  0  0  0  0  0  0  0  0  0  0  0
   -3.6233    0.1748    2.4559 H   0  0  0  0  0  0  0  0  0  0  0  0
    4.2170   -1.6736   -1.6267 H   0  0  0  0  0  0  0  0  0  0  0  0
   -0.2764    4.5965   -0.8601 H   0  0  0  0  0  0  0  0  0  0  0  0
   -4.4556   -2.0426    1.7202 H   0  0  0  0  0  0  0  0  0  0  0  0
    4.3694   -3.0936    0.4015 H   0  0  0  0  0  0  0  0  0  0  0  0
    1.0962    4.9982    1.1654 H   0  0  0  0  0  0  0  0  0  0  0  0
  1  2  2  0  0  0  0
  1  4  1  0  0  0  0
  2  3  2  0  0  0  0
  4  5  1  0  0  0  0
  4  6  1  0  0  0  0
  4  7  1  0  0  0  0
  5  8  2  0  0  0  0
  5 11  1  0  0  0  0
  6  9  2  0  0  0  0
  6 12  1  0  0  0  0
  7 10  2  0  0  0  0
  7 13  1  0  0  0  0
  8 14  1  0  0  0  0
  8 23  1  0  0  0  0
  9 15  1  0  0  0  0
  9 24  1  0  0  0  0
 10 16  1  0  0  0  0
 10 25  1  0  0  0  0
 11 17  2  0  0  0  0
 11 26  1  0  0  0  0
 12 18  2  0  0  0  0
 12 27  1  0  0  0  0
 13 19  2  0  0  0  0
 13 28  1  0  0  0  0
 14 20  2  0  0  0  0
 14 29  1  0  0  0  0
 15 21  2  0  0  0  0
 15 30  1  0  0  0  0
 16 22  2  0  0  0  0
 16 31  1  0  0  0  0
 17 20  1  0  0  0  0
 17 32  1  0  0  0  0
 18 21  1  0  0  0  0
 18 33  1  0  0  0  0
 19 22  1  0  0  0  0
 19 34  1  0  0  0  0
 20 35  1  0  0  0  0
 21 36  1  0  0  0  0
 22 37  1  0  0  0  0
M  CHG  2   2   1   3  -1
M  END
> <PUBCHEM_COMPOUND_CID>
84340

> <PUBCHEM_CONFORMER_RMSD>
0.6

> <PUBCHEM_CONFORMER_DIVERSEORDER>
1
2
4
3

> <PUBCHEM_MMFF94_PARTIAL_CHARGES>
37
1 -0.56
10 -0.15
11 -0.15
12 -0.15
13 -0.15
14 -0.15
15 -0.15
16 -0.15
17 -0.15
18 -0.15
19 -0.15
2 0.69
20 -0.15
21 -0.15
22 -0.15
23 0.15
24 0.15
25 0.15
26 0.15
27 0.15
28 0.15
29 0.15
3 -0.37
30 0.15
31 0.15
32 0.15
33 0.15
34 0.15
35 0.15
36 0.15
37 0.15
4 0.68
5 -0.14
6 -0.14
7 -0.14
8 -0.15
9 -0.15

> <PUBCHEM_EFFECTIVE_ROTOR_COUNT>
4

> <PUBCHEM_PHARMACOPHORE_FEATURES>
3
6 5 8 11 14 17 20 rings
6 6 9 12 15 18 21 rings
6 7 10 13 16 19 22 rings

> <PUBCHEM_HEAVY_ATOM_COUNT>
22

> <PUBCHEM_ATOM_DEF_STEREO_COUNT>
0

> <PUBCHEM_ATOM_UDEF_STEREO_COUNT>
0

> <PUBCHEM_BOND_DEF_STEREO_COUNT>
0

> <PUBCHEM_BOND_UDEF_STEREO_COUNT>
0

> <PUBCHEM_ISOTOPIC_ATOM_COUNT>
0

> <PUBCHEM_COMPONENT_COUNT>
1

> <PUBCHEM_CACTVS_TAUTO_COUNT>
1

> <PUBCHEM_CONFORMER_ID>
0001497400000001

> <PUBCHEM_MMFF94_ENERGY>
97.7966

> <PUBCHEM_FEATURE_SELFOVERLAP>
15.223

> <PUBCHEM_SHAPE_FINGERPRINT>
107951 10 16829273671087606790
10906281 52 17977341093877500024
11578080 2 18186800300914980277
12082328 90 7842545068151345871
12173636 292 17687467867070155150
12553582 1 18337965505750409434
12592029 89 17546398669436450308
12643181 29 16753264411323815766
12714826 92 17968100767865805447
12788726 201 17907285559893652974
13132413 78 18196117545036600441
13140716 1 18338806593606289106
13149001 5 18044345310998618677
133893 2 18056460966768577940
14178342 30 17469333981625639411
14787075 74 18191889996459281478
14817 1 13951629695414156957
14863182 85 17110181849612562331
14955137 171 17908188435245479715
15309172 13 17472406029528782409
15906896 17 17621314637292882068
16752209 62 17832426397475423986
16945 1 18050302653744523303
17980427 23 17560813087094785089
17980427 26 17910968150958681813
18915476 22 18051388937131361047
20510252 161 17764593118621489536
20600515 1 17770534995422101753
20645476 183 17327185347309844242
20905425 154 17842870912099998169
21524375 3 17339018750746109617
21731228 192 17403460066197830369
22149856 69 17251775802583300659
23419403 2 18261660545686059973
23558518 356 17114941094061084183
25222932 49 16908070709380972311
3091708 16 8706828595350258186
427121 178 17115827811729527987
4340502 62 17616818077803582603
4409770 3 17975983068009103515
497634 4 17826820052843601630
5845 1 17274239661648466002
5895379 119 16697286319941503993
7364860 26 18055932114655601619
81228 2 17910942548769172448
90316 7 18196669401073665858
9981440 41 17192874560401836954
9999458 23 17906195175382857609

> <PUBCHEM_SHAPE_MULTIPOLES>
437.81
4.65
4.4
1.91
1.52
4.29
0.99
-4.87
-1.06
-2.93
-1.29
0.83
0.34
0.76

> <PUBCHEM_SHAPE_SELFOVERLAP>
972.259

> <PUBCHEM_SHAPE_VOLUME>
231.1

> <PUBCHEM_COORDINATE_TYPE>
2
5
10

$$$$
