77226
  -OEChem-11012401173D

 50 50  0     0  0  0  0  0  0999 V2000
    2.5402   -1.1517    1.5136 O   0  0  0  0  0  0  0  0  0  0  0  0
   -3.2944    1.9457    0.2119 C   0  0  0  0  0  0  0  0  0  0  0  0
   -3.2475    0.4410    0.4951 C   0  0  0  0  0  0  0  0  0  0  0  0
   -1.9765    2.5797   -0.2437 C   0  0  0  0  0  0  0  0  0  0  0  0
   -2.8442   -0.3897   -0.7266 C   0  0  0  0  0  0  0  0  0  0  0  0
   -0.8601    2.4790    0.7992 C   0  0  0  0  0  0  0  0  0  0  0  0
   -3.1470   -1.8861   -0.5765 C   0  0  0  0  0  0  0  0  0  0  0  0
    0.3354    3.3851    0.4820 C   0  0  0  0  0  0  0  0  0  0  0  0
   -2.4221   -2.6107    0.5627 C   0  0  0  0  0  0  0  0  0  0  0  0
    1.0685    3.0752   -0.8271 C   0  0  0  0  0  0  0  0  0  0  0  0
   -1.0824   -3.2484    0.1795 C   0  0  0  0  0  0  0  0  0  0  0  0
    1.7359    1.6978   -0.8952 C   0  0  0  0  0  0  0  0  0  0  0  0
   -0.0022   -2.2466   -0.2221 C   0  0  0  0  0  0  0  0  0  0  0  0
    2.8736    1.5350    0.1187 C   0  0  0  0  0  0  0  0  0  0  0  0
    1.3647   -2.9273   -0.3563 C   0  0  0  0  0  0  0  0  0  0  0  0
    3.6546    0.2391   -0.0816 C   0  0  0  0  0  0  0  0  0  0  0  0
    2.4594   -1.9448   -0.7681 C   0  0  0  0  0  0  0  0  0  0  0  0
    2.8442   -0.9721    0.3345 C   0  0  0  0  0  0  0  0  0  0  0  0
   -3.6418    2.4589    1.1173 H   0  0  0  0  0  0  0  0  0  0  0  0
   -4.0534    2.1366   -0.5572 H   0  0  0  0  0  0  0  0  0  0  0  0
   -4.2451    0.1313    0.8304 H   0  0  0  0  0  0  0  0  0  0  0  0
   -2.5639    0.2467    1.3282 H   0  0  0  0  0  0  0  0  0  0  0  0
   -2.1725    3.6380   -0.4579 H   0  0  0  0  0  0  0  0  0  0  0  0
   -1.6539    2.1273   -1.1876 H   0  0  0  0  0  0  0  0  0  0  0  0
   -1.7851   -0.2327   -0.9454 H   0  0  0  0  0  0  0  0  0  0  0  0
   -3.3980   -0.0275   -1.6021 H   0  0  0  0  0  0  0  0  0  0  0  0
   -0.5278    1.4405    0.9019 H   0  0  0  0  0  0  0  0  0  0  0  0
   -1.2564    2.7775    1.7778 H   0  0  0  0  0  0  0  0  0  0  0  0
   -2.9404   -2.3910   -1.5279 H   0  0  0  0  0  0  0  0  0  0  0  0
   -4.2274   -1.9890   -0.4092 H   0  0  0  0  0  0  0  0  0  0  0  0
    1.0407    3.3445    1.3198 H   0  0  0  0  0  0  0  0  0  0  0  0
   -0.0158    4.4242    0.4390 H   0  0  0  0  0  0  0  0  0  0  0  0
   -3.0738   -3.4289    0.8971 H   0  0  0  0  0  0  0  0  0  0  0  0
   -2.2895   -1.9612    1.4334 H   0  0  0  0  0  0  0  0  0  0  0  0
    1.8348    3.8453   -0.9828 H   0  0  0  0  0  0  0  0  0  0  0  0
    0.3735    3.1717   -1.6692 H   0  0  0  0  0  0  0  0  0  0  0  0
   -1.2372   -3.9669   -0.6349 H   0  0  0  0  0  0  0  0  0  0  0  0
   -0.7310   -3.8283    1.0424 H   0  0  0  0  0  0  0  0  0  0  0  0
    2.1416    1.5700   -1.9067 H   0  0  0  0  0  0  0  0  0  0  0  0
    0.9880    0.9094   -0.7601 H   0  0  0  0  0  0  0  0  0  0  0  0
    0.0471   -1.4435    0.5216 H   0  0  0  0  0  0  0  0  0  0  0  0
   -0.2609   -1.7922   -1.1843 H   0  0  0  0  0  0  0  0  0  0  0  0
    2.4742    1.5701    1.1384 H   0  0  0  0  0  0  0  0  0  0  0  0
    3.5692    2.3765    0.0151 H   0  0  0  0  0  0  0  0  0  0  0  0
    1.2967   -3.7138   -1.1180 H   0  0  0  0  0  0  0  0  0  0  0  0
    1.6322   -3.4187    0.5869 H   0  0  0  0  0  0  0  0  0  0  0  0
    4.5616    0.2471    0.5339 H   0  0  0  0  0  0  0  0  0  0  0  0
    3.9805    0.1325   -1.1218 H   0  0  0  0  0  0  0  0  0  0  0  0
    2.1355   -1.3755   -1.6461 H   0  0  0  0  0  0  0  0  0  0  0  0
    3.3652   -2.4999   -1.0364 H   0  0  0  0  0  0  0  0  0  0  0  0
  1 18  2  0  0  0  0
  2  3  1  0  0  0  0
  2  4  1  0  0  0  0
  2 19  1  0  0  0  0
  2 20  1  0  0  0  0
  3  5  1  0  0  0  0
  3 21  1  0  0  0  0
  3 22  1  0  0  0  0
  4  6  1  0  0  0  0
  4 23  1  0  0  0  0
  4 24  1  0  0  0  0
  5  7  1  0  0  0  0
  5 25  1  0  0  0  0
  5 26  1  0  0  0  0
  6  8  1  0  0  0  0
  6 27  1  0  0  0  0
  6 28  1  0  0  0  0
  7  9  1  0  0  0  0
  7 29  1  0  0  0  0
  7 30  1  0  0  0  0
  8 10  1  0  0  0  0
  8 31  1  0  0  0  0
  8 32  1  0  0  0  0
  9 11  1  0  0  0  0
  9 33  1  0  0  0  0
  9 34  1  0  0  0  0
 10 12  1  0  0  0  0
 10 35  1  0  0  0  0
 10 36  1  0  0  0  0
 11 13  1  0  0  0  0
 11 37  1  0  0  0  0
 11 38  1  0  0  0  0
 12 14  1  0  0  0  0
 12 39  1  0  0  0  0
 12 40  1  0  0  0  0
 13 15  1  0  0  0  0
 13 41  1  0  0  0  0
 13 42  1  0  0  0  0
 14 16  1  0  0  0  0
 14 43  1  0  0  0  0
 14 44  1  0  0  0  0
 15 17  1  0  0  0  0
 15 45  1  0  0  0  0
 15 46  1  0  0  0  0
 16 18  1  0  0  0  0
 16 47  1  0  0  0  0
 16 48  1  0  0  0  0
 17 18  1  0  0  0  0
 17 49  1  0  0  0  0
 17 50  1  0  0  0  0
M  END
> <PUBCHEM_COMPOUND_CID>
77226

> <PUBCHEM_CONFORMER_RMSD>
0.6

> <PUBCHEM_CONFORMER_DIVERSEORDER>
1
96
38
97
86
31
90
44
40
18
25
62
99
27
17
68
70
103
110
100
75
109
19
101
85
61
77
91
14
47
83
92
6
79
10
63
80
102
106
87
48
52
59
95
108
28
4
72
94
46
24
5
78
41
65
11
67
29
26
73
43
39
54
56
58
107
93
35
104
98
64
82
49
36
13
60
23
57
37
51
74
7
69
21
89
50
88
33
55
8
42
71
32
34
81
105
76
9
22
12
30
66
3
16
53
20
2
84
15
45

> <PUBCHEM_MMFF94_PARTIAL_CHARGES>
4
1 -0.57
16 0.06
17 0.06
18 0.45

> <PUBCHEM_EFFECTIVE_ROTOR_COUNT>
3.2

> <PUBCHEM_PHARMACOPHORE_FEATURES>
1
1 1 acceptor

> <PUBCHEM_HEAVY_ATOM_COUNT>
18

> <PUBCHEM_ATOM_DEF_STEREO_COUNT>
0

> <PUBCHEM_ATOM_UDEF_STEREO_COUNT>
0

> <PUBCHEM_BOND_DEF_STEREO_COUNT>
0

> <PUBCHEM_BOND_UDEF_STEREO_COUNT>
0

> <PUBCHEM_ISOTOPIC_ATOM_COUNT>
0

> <PUBCHEM_COMPONENT_COUNT>
1

> <PUBCHEM_CACTVS_TAUTO_COUNT>
2

> <PUBCHEM_CONFORMER_ID>
00012DAA00000001

> <PUBCHEM_MMFF94_ENERGY>
9.511

> <PUBCHEM_FEATURE_SELFOVERLAP>
5.074

> <PUBCHEM_SHAPE_FINGERPRINT>
10616163 171 18338521948875239237
10708813 3 17406560203746615785
12038231 1 18050569538764542407
12539773 59 17703789176760640877
12553582 1 18411420626480315421
13122387 1 18267021648397762623
14178342 30 17259331177688126608
1420 336 18409451353836072683
14251705 54 18410577322441344885
14251745 187 17908706120669949722
14765038 42 17116667842850334185
14931854 50 18121218941764446372
14940714 1 9051948828362261893
17093844 170 17978785714711363712
19591789 44 17186443443549437646
19930381 70 17474668828949105799
20621476 13 16897920064644117471
20621476 7 18266193901184571403
20905425 154 18123759913188905669
3014063 31 17979074113349662647
3052486 1 18119816803126949894
58250162 1 18411991268851773004

> <PUBCHEM_SHAPE_MULTIPOLES>
364.56
6.12
5.31
0.97
0.43
0.56
-0.07
-0.66
-0.06
0.8
-0.01
-0.2
0.03
-0.34

> <PUBCHEM_SHAPE_SELFOVERLAP>
684.299

> <PUBCHEM_SHAPE_VOLUME>
224.3

> <PUBCHEM_COORDINATE_TYPE>
2
5
10

$$$$
