78394
  -OEChem-11012400373D

 16 16  0     0  0  0  0  0  0999 V2000
   -0.5931   -0.0119   -0.5879 C   0  0  0  0  0  0  0  0  0  0  0  0
   -1.5564    0.7797    0.2066 C   0  0  0  0  0  0  0  0  0  0  0  0
   -1.6172   -0.7197    0.2100 C   0  0  0  0  0  0  0  0  0  0  0  0
    0.8219   -0.0681   -0.0935 C   0  0  0  0  0  0  0  0  0  0  0  0
    1.5001    1.2523    0.1219 C   0  0  0  0  0  0  0  0  0  0  0  0
    1.4447   -1.2323    0.1429 C   0  0  0  0  0  0  0  0  0  0  0  0
   -0.6981   -0.0074   -1.6663 H   0  0  0  0  0  0  0  0  0  0  0  0
   -2.3356    1.3122   -0.3262 H   0  0  0  0  0  0  0  0  0  0  0  0
   -1.2517    1.2597    1.1284 H   0  0  0  0  0  0  0  0  0  0  0  0
   -1.3440   -1.2238    1.1293 H   0  0  0  0  0  0  0  0  0  0  0  0
   -2.4372   -1.1899   -0.3202 H   0  0  0  0  0  0  0  0  0  0  0  0
    1.4107    1.8771   -0.7731 H   0  0  0  0  0  0  0  0  0  0  0  0
    1.0564    1.7882    0.9664 H   0  0  0  0  0  0  0  0  0  0  0  0
    2.5686    1.1325    0.3318 H   0  0  0  0  0  0  0  0  0  0  0  0
    2.4680   -1.2620    0.5021 H   0  0  0  0  0  0  0  0  0  0  0  0
    0.9476   -2.1826   -0.0212 H   0  0  0  0  0  0  0  0  0  0  0  0
  1  2  1  0  0  0  0
  1  3  1  0  0  0  0
  1  4  1  0  0  0  0
  1  7  1  0  0  0  0
  2  3  1  0  0  0  0
  2  8  1  0  0  0  0
  2  9  1  0  0  0  0
  3 10  1  0  0  0  0
  3 11  1  0  0  0  0
  4  5  1  0  0  0  0
  4  6  2  0  0  0  0
  5 12  1  0  0  0  0
  5 13  1  0  0  0  0
  5 14  1  0  0  0  0
  6 15  1  0  0  0  0
  6 16  1  0  0  0  0
M  END
> <PUBCHEM_COMPOUND_CID>
78394

> <PUBCHEM_CONFORMER_RMSD>
0.4

> <PUBCHEM_CONFORMER_DIVERSEORDER>
1
2
3

> <PUBCHEM_MMFF94_PARTIAL_CHARGES>
13
1 -0.06
10 0.1
11 0.1
15 0.15
16 0.15
2 -0.2
3 -0.2
4 -0.18
5 0.14
6 -0.3
7 0.1
8 0.1
9 0.1

> <PUBCHEM_EFFECTIVE_ROTOR_COUNT>
1.6

> <PUBCHEM_PHARMACOPHORE_FEATURES>
0

> <PUBCHEM_HEAVY_ATOM_COUNT>
6

> <PUBCHEM_ATOM_DEF_STEREO_COUNT>
0

> <PUBCHEM_ATOM_UDEF_STEREO_COUNT>
0

> <PUBCHEM_BOND_DEF_STEREO_COUNT>
0

> <PUBCHEM_BOND_UDEF_STEREO_COUNT>
0

> <PUBCHEM_ISOTOPIC_ATOM_COUNT>
0

> <PUBCHEM_COMPONENT_COUNT>
1

> <PUBCHEM_CACTVS_TAUTO_COUNT>
1

> <PUBCHEM_CONFORMER_ID>
0001323A00000001

> <PUBCHEM_MMFF94_ENERGY>
10.957

> <PUBCHEM_FEATURE_SELFOVERLAP>
0

> <PUBCHEM_SHAPE_FINGERPRINT>
139733 1 9943218451443281030
20096714 4 18271809050805715276
21040471 1 18266460004183062004
24536 1 18338784667719056313
29004967 10 18337392613216157970
5943 1 16671952326133031438

> <PUBCHEM_SHAPE_MULTIPOLES>
123.48
2.35
1.32
0.7
0.21
0.03
0.03
0.03
-0.23
-0.46
-0.11
0.05
0
-0.01

> <PUBCHEM_SHAPE_SELFOVERLAP>
233.434

> <PUBCHEM_SHAPE_VOLUME>
79.3

> <PUBCHEM_COORDINATE_TYPE>
2
5
10

$$$$
