136427
  -OEChem-11012400513D

 28 29  0     0  0  0  0  0  0999 V2000
    0.3375   -0.3948   -1.4616 C   0  0  0  0  0  0  0  0  0  0  0  0
   -0.9558   -0.4084   -0.6718 C   0  0  0  0  0  0  0  0  0  0  0  0
    1.5474   -0.1124   -0.6363 C   0  0  0  0  0  0  0  0  0  0  0  0
   -1.6674    0.7682   -0.5236 C   0  0  0  0  0  0  0  0  0  0  0  0
   -2.8574    0.7552    0.2042 C   0  0  0  0  0  0  0  0  0  0  0  0
   -1.3933   -1.5976   -0.1171 C   0  0  0  0  0  0  0  0  0  0  0  0
    2.2501   -1.1632   -0.0466 C   0  0  0  0  0  0  0  0  0  0  0  0
    1.9766    1.2024   -0.4546 C   0  0  0  0  0  0  0  0  0  0  0  0
   -3.3153   -0.4342    0.7711 C   0  0  0  0  0  0  0  0  0  0  0  0
   -2.5833   -1.6105    0.6105 C   0  0  0  0  0  0  0  0  0  0  0  0
   -3.6399    2.0132    0.3770 C   0  0  0  0  0  0  0  0  0  0  0  0
    3.3818   -0.8993    0.7250 C   0  0  0  0  0  0  0  0  0  0  0  0
    3.1083    1.4661    0.3170 C   0  0  0  0  0  0  0  0  0  0  0  0
    3.8109    0.4152    0.9068 C   0  0  0  0  0  0  0  0  0  0  0  0
    0.2603    0.3390   -2.2761 H   0  0  0  0  0  0  0  0  0  0  0  0
    0.4563   -1.3545   -1.9839 H   0  0  0  0  0  0  0  0  0  0  0  0
   -1.3101    1.6932   -0.9679 H   0  0  0  0  0  0  0  0  0  0  0  0
   -0.8309   -2.5188   -0.2371 H   0  0  0  0  0  0  0  0  0  0  0  0
    1.9277   -2.1924   -0.1805 H   0  0  0  0  0  0  0  0  0  0  0  0
    1.4393    2.0308   -0.9087 H   0  0  0  0  0  0  0  0  0  0  0  0
   -4.2417   -0.4578    1.3389 H   0  0  0  0  0  0  0  0  0  0  0  0
   -2.9401   -2.5367    1.0516 H   0  0  0  0  0  0  0  0  0  0  0  0
   -4.2091    2.0007    1.3128 H   0  0  0  0  0  0  0  0  0  0  0  0
   -2.9790    2.8858    0.4161 H   0  0  0  0  0  0  0  0  0  0  0  0
   -4.3386    2.1383   -0.4561 H   0  0  0  0  0  0  0  0  0  0  0  0
    3.9289   -1.7174    1.1842 H   0  0  0  0  0  0  0  0  0  0  0  0
    3.4426    2.4897    0.4585 H   0  0  0  0  0  0  0  0  0  0  0  0
    4.6920    0.6207    1.5075 H   0  0  0  0  0  0  0  0  0  0  0  0
  1  2  1  0  0  0  0
  1  3  1  0  0  0  0
  1 15  1  0  0  0  0
  1 16  1  0  0  0  0
  2  4  1  0  0  0  0
  2  6  2  0  0  0  0
  3  7  2  0  0  0  0
  3  8  1  0  0  0  0
  4  5  2  0  0  0  0
  4 17  1  0  0  0  0
  5  9  1  0  0  0  0
  5 11  1  0  0  0  0
  6 10  1  0  0  0  0
  6 18  1  0  0  0  0
  7 12  1  0  0  0  0
  7 19  1  0  0  0  0
  8 13  2  0  0  0  0
  8 20  1  0  0  0  0
  9 10  2  0  0  0  0
  9 21  1  0  0  0  0
 10 22  1  0  0  0  0
 11 23  1  0  0  0  0
 11 24  1  0  0  0  0
 11 25  1  0  0  0  0
 12 14  2  0  0  0  0
 12 26  1  0  0  0  0
 13 14  1  0  0  0  0
 13 27  1  0  0  0  0
 14 28  1  0  0  0  0
M  END
> <PUBCHEM_COMPOUND_CID>
136427

> <PUBCHEM_CONFORMER_RMSD>
0.6

> <PUBCHEM_CONFORMER_DIVERSEORDER>
1
3
6
5
2
4

> <PUBCHEM_MMFF94_PARTIAL_CHARGES>
23
1 0.29
10 -0.15
11 0.14
12 -0.15
13 -0.15
14 -0.15
17 0.15
18 0.15
19 0.15
2 -0.14
20 0.15
21 0.15
22 0.15
26 0.15
27 0.15
28 0.15
3 -0.14
4 -0.15
5 -0.14
6 -0.15
7 -0.15
8 -0.15
9 -0.15

> <PUBCHEM_EFFECTIVE_ROTOR_COUNT>
2

> <PUBCHEM_PHARMACOPHORE_FEATURES>
2
6 2 4 5 6 9 10 rings
6 3 7 8 12 13 14 rings

> <PUBCHEM_HEAVY_ATOM_COUNT>
14

> <PUBCHEM_ATOM_DEF_STEREO_COUNT>
0

> <PUBCHEM_ATOM_UDEF_STEREO_COUNT>
0

> <PUBCHEM_BOND_DEF_STEREO_COUNT>
0

> <PUBCHEM_BOND_UDEF_STEREO_COUNT>
0

> <PUBCHEM_ISOTOPIC_ATOM_COUNT>
0

> <PUBCHEM_COMPONENT_COUNT>
1

> <PUBCHEM_CACTVS_TAUTO_COUNT>
1

> <PUBCHEM_CONFORMER_ID>
000214EB00000001

> <PUBCHEM_MMFF94_ENERGY>
36.3397

> <PUBCHEM_FEATURE_SELFOVERLAP>
10.149

> <PUBCHEM_SHAPE_FINGERPRINT>
10366900 7 18265616678653794770
10498660 4 13038910984562158635
10608611 8 18342177760607881621
10799339 124 18408322181179981378
11127187 94 8358264726538137305
11543360 7 10231749007212170074
12077114 3 18342173349766093929
122479 349 18272370828517972841
12251169 10 18335701667200649062
12382932 28 18411700988938878328
12507560 40 18342740715119877942
12633257 1 18260819359314282656
12696612 119 18334577992334954748
12707595 3 13695871445426488220
13705890 14 10953455224476089890
13764800 53 17989216957565005873
13897977 13 18269276922845570385
14144814 61 18407759252685585062
14289901 80 18336265759647065362
15239191 94 13551479158866696049
15375462 189 17386277693601667842
15653759 3 18333450936902450704
15775835 57 17060333037413527134
17804303 29 18189906326673972270
18186145 218 15195294135432707252
200 152 18268131223477233791
201361 129 18335421313785629844
20361792 2 15140677007508649582
20528008 55 18408880763352200575
20645477 70 14057003870627167067
20671657 53 11674870079258259446
20871999 31 10303807662544941481
21065199 12 18409448098298419770
22169311 14 18335983082121683538
22445834 79 18040431087984401178
23402539 116 18340759417248117463
23402655 69 10951783983639212266
23559900 14 18269285577489470006
27216 239 18130781325814246129
351380 180 18342170025809715845
4028521 119 12895083889933808875
5262128 65 9150893940081523714
5374978 207 18336834190400840331
58807428 26 18042976380747217963
7097593 13 18260823778835643034
81228 2 14708301692184996142
90316 7 17749390334685350797
94968 8 11242554227118800585

> <PUBCHEM_SHAPE_MULTIPOLES>
288.11
7.17
1.82
1.05
0.96
0.23
-0.14
1.74
2.7
-0.88
0.22
0.18
-0.08
0.04

> <PUBCHEM_SHAPE_SELFOVERLAP>
616.041

> <PUBCHEM_SHAPE_VOLUME>
152

> <PUBCHEM_COORDINATE_TYPE>
2
5
10

$$$$
