136387
  -OEChem-11012401083D

 70 75  0     0  0  0  0  0  0999 V2000
    0.5475   -0.0689   -0.4845 O   0  0  0  0  0  0  0  0  0  0  0  0
   -0.5189    0.0013    0.4909 O   0  0  0  0  0  0  0  0  0  0  0  0
    1.7361    0.1094    0.2720 C   0  0  0  0  0  0  0  0  0  0  0  0
   -1.7316   -0.1844   -0.3080 C   0  0  0  0  0  0  0  0  0  0  0  0
    1.7865   -1.0140    1.3315 C   0  0  0  0  0  0  0  0  0  0  0  0
    1.6024    1.5160    0.8970 C   0  0  0  0  0  0  0  0  0  0  0  0
    2.8834    0.0365   -0.7585 C   0  0  0  0  0  0  0  0  0  0  0  0
   -1.7880    1.0405   -1.2832 C   0  0  0  0  0  0  0  0  0  0  0  0
   -2.8774   -0.0924    0.7546 C   0  0  0  0  0  0  0  0  0  0  0  0
   -1.6223   -1.5183   -0.9664 C   0  0  0  0  0  0  0  0  0  0  0  0
    1.2863   -0.7470    2.5775 C   0  0  0  0  0  0  0  0  0  0  0  0
    2.3141    1.7855    2.0350 C   0  0  0  0  0  0  0  0  0  0  0  0
    2.5716   -0.3023   -2.0483 C   0  0  0  0  0  0  0  0  0  0  0  0
   -2.4801    2.1342   -0.8694 C   0  0  0  0  0  0  0  0  0  0  0  0
   -2.5207    0.2062    2.0320 C   0  0  0  0  0  0  0  0  0  0  0  0
   -0.8026   -2.5032   -0.4151 C   0  0  0  0  0  0  0  0  0  0  0  0
    2.3292   -2.2173    0.9688 C   0  0  0  0  0  0  0  0  0  0  0  0
    0.7788    2.4190    0.2801 C   0  0  0  0  0  0  0  0  0  0  0  0
    4.1542    0.3140   -0.3298 C   0  0  0  0  0  0  0  0  0  0  0  0
   -1.1409    0.9196   -2.4720 C   0  0  0  0  0  0  0  0  0  0  0  0
   -4.1469   -0.3182    0.3238 C   0  0  0  0  0  0  0  0  0  0  0  0
   -2.3393   -1.7807   -2.1338 C   0  0  0  0  0  0  0  0  0  0  0  0
    1.3321   -1.7612    3.5340 C   0  0  0  0  0  0  0  0  0  0  0  0
    2.1928    3.0555    2.5991 C   0  0  0  0  0  0  0  0  0  0  0  0
    3.6084   -0.3685   -2.9791 C   0  0  0  0  0  0  0  0  0  0  0  0
   -2.5305    3.2245   -1.7379 C   0  0  0  0  0  0  0  0  0  0  0  0
   -3.5419    0.2877    2.9789 C   0  0  0  0  0  0  0  0  0  0  0  0
   -0.7003   -3.7505   -1.0313 C   0  0  0  0  0  0  0  0  0  0  0  0
    2.3749   -3.2314    1.9253 C   0  0  0  0  0  0  0  0  0  0  0  0
    0.6578    3.6889    0.8444 C   0  0  0  0  0  0  0  0  0  0  0  0
    5.1908    0.2479   -1.2607 C   0  0  0  0  0  0  0  0  0  0  0  0
   -1.1911    2.0100   -3.3404 C   0  0  0  0  0  0  0  0  0  0  0  0
   -5.1679   -0.2365    1.2707 C   0  0  0  0  0  0  0  0  0  0  0  0
   -2.2370   -3.0280   -2.7497 C   0  0  0  0  0  0  0  0  0  0  0  0
    1.8765   -3.0035    3.2078 C   0  0  0  0  0  0  0  0  0  0  0  0
    1.3647    4.0071    2.0038 C   0  0  0  0  0  0  0  0  0  0  0  0
    4.9180   -0.0933   -2.5852 C   0  0  0  0  0  0  0  0  0  0  0  0
   -1.8859    3.1623   -2.9734 C   0  0  0  0  0  0  0  0  0  0  0  0
   -4.8655    0.0664    2.5981 C   0  0  0  0  0  0  0  0  0  0  0  0
   -1.4175   -4.0128   -2.1985 C   0  0  0  0  0  0  0  0  0  0  0  0
    0.7663    0.1542    2.8748 H   0  0  0  0  0  0  0  0  0  0  0  0
    3.0193    1.1012    2.4941 H   0  0  0  0  0  0  0  0  0  0  0  0
    1.5803   -0.5512   -2.4024 H   0  0  0  0  0  0  0  0  0  0  0  0
   -2.9646    2.2544    0.0901 H   0  0  0  0  0  0  0  0  0  0  0  0
   -1.5193    0.4067    2.3852 H   0  0  0  0  0  0  0  0  0  0  0  0
   -0.3246   -2.3799    0.5451 H   0  0  0  0  0  0  0  0  0  0  0  0
    2.7026   -2.4372   -0.0244 H   0  0  0  0  0  0  0  0  0  0  0  0
    0.3347    2.2611   -0.6855 H   0  0  0  0  0  0  0  0  0  0  0  0
    4.3963    0.5609    0.6965 H   0  0  0  0  0  0  0  0  0  0  0  0
   -0.5761    0.0543   -2.7918 H   0  0  0  0  0  0  0  0  0  0  0  0
   -4.4039   -0.5402   -0.7043 H   0  0  0  0  0  0  0  0  0  0  0  0
   -3.0124   -1.0526   -2.5774 H   0  0  0  0  0  0  0  0  0  0  0  0
    0.9239   -1.5921    4.5263 H   0  0  0  0  0  0  0  0  0  0  0  0
    2.7561    3.3094    3.4924 H   0  0  0  0  0  0  0  0  0  0  0  0
    3.3977   -0.6404   -4.0093 H   0  0  0  0  0  0  0  0  0  0  0  0
   -3.0627    4.1262   -1.4487 H   0  0  0  0  0  0  0  0  0  0  0  0
   -3.3077    0.5281    4.0120 H   0  0  0  0  0  0  0  0  0  0  0  0
   -0.0831   -4.5264   -0.5876 H   0  0  0  0  0  0  0  0  0  0  0  0
    2.7915   -4.2013    1.6693 H   0  0  0  0  0  0  0  0  0  0  0  0
    0.0401    4.4413    0.3625 H   0  0  0  0  0  0  0  0  0  0  0  0
    6.2113    0.4569   -0.9532 H   0  0  0  0  0  0  0  0  0  0  0  0
   -0.6849    1.9640   -4.3003 H   0  0  0  0  0  0  0  0  0  0  0  0
   -6.1989   -0.4050    0.9736 H   0  0  0  0  0  0  0  0  0  0  0  0
   -2.8019   -3.2356   -3.6537 H   0  0  0  0  0  0  0  0  0  0  0  0
    1.9057   -3.7954    3.9505 H   0  0  0  0  0  0  0  0  0  0  0  0
    1.2793    4.9995    2.4367 H   0  0  0  0  0  0  0  0  0  0  0  0
    5.7255   -0.1475   -3.3094 H   0  0  0  0  0  0  0  0  0  0  0  0
   -1.9218    4.0127   -3.6480 H   0  0  0  0  0  0  0  0  0  0  0  0
   -5.6606    0.1318    3.3350 H   0  0  0  0  0  0  0  0  0  0  0  0
   -1.3439   -4.9866   -2.6736 H   0  0  0  0  0  0  0  0  0  0  0  0
  1  2  1  0  0  0  0
  1  3  1  0  0  0  0
  2  4  1  0  0  0  0
  3  5  1  0  0  0  0
  3  6  1  0  0  0  0
  3  7  1  0  0  0  0
  4  8  1  0  0  0  0
  4  9  1  0  0  0  0
  4 10  1  0  0  0  0
  5 11  2  0  0  0  0
  5 17  1  0  0  0  0
  6 12  2  0  0  0  0
  6 18  1  0  0  0  0
  7 13  2  0  0  0  0
  7 19  1  0  0  0  0
  8 14  2  0  0  0  0
  8 20  1  0  0  0  0
  9 15  2  0  0  0  0
  9 21  1  0  0  0  0
 10 16  2  0  0  0  0
 10 22  1  0  0  0  0
 11 23  1  0  0  0  0
 11 41  1  0  0  0  0
 12 24  1  0  0  0  0
 12 42  1  0  0  0  0
 13 25  1  0  0  0  0
 13 43  1  0  0  0  0
 14 26  1  0  0  0  0
 14 44  1  0  0  0  0
 15 27  1  0  0  0  0
 15 45  1  0  0  0  0
 16 28  1  0  0  0  0
 16 46  1  0  0  0  0
 17 29  2  0  0  0  0
 17 47  1  0  0  0  0
 18 30  2  0  0  0  0
 18 48  1  0  0  0  0
 19 31  2  0  0  0  0
 19 49  1  0  0  0  0
 20 32  2  0  0  0  0
 20 50  1  0  0  0  0
 21 33  2  0  0  0  0
 21 51  1  0  0  0  0
 22 34  2  0  0  0  0
 22 52  1  0  0  0  0
 23 35  2  0  0  0  0
 23 53  1  0  0  0  0
 24 36  2  0  0  0  0
 24 54  1  0  0  0  0
 25 37  2  0  0  0  0
 25 55  1  0  0  0  0
 26 38  2  0  0  0  0
 26 56  1  0  0  0  0
 27 39  2  0  0  0  0
 27 57  1  0  0  0  0
 28 40  2  0  0  0  0
 28 58  1  0  0  0  0
 29 35  1  0  0  0  0
 29 59  1  0  0  0  0
 30 36  1  0  0  0  0
 30 60  1  0  0  0  0
 31 37  1  0  0  0  0
 31 61  1  0  0  0  0
 32 38  1  0  0  0  0
 32 62  1  0  0  0  0
 33 39  1  0  0  0  0
 33 63  1  0  0  0  0
 34 40  1  0  0  0  0
 34 64  1  0  0  0  0
 35 65  1  0  0  0  0
 36 66  1  0  0  0  0
 37 67  1  0  0  0  0
 38 68  1  0  0  0  0
 39 69  1  0  0  0  0
 40 70  1  0  0  0  0
M  END
> <PUBCHEM_COMPOUND_CID>
136387

> <PUBCHEM_CONFORMER_RMSD>
1

> <PUBCHEM_CONFORMER_DIVERSEORDER>
1

> <PUBCHEM_MMFF94_PARTIAL_CHARGES>
70
1 -0.28
10 -0.14
11 -0.15
12 -0.15
13 -0.15
14 -0.15
15 -0.15
16 -0.15
17 -0.15
18 -0.15
19 -0.15
2 -0.28
20 -0.15
21 -0.15
22 -0.15
23 -0.15
24 -0.15
25 -0.15
26 -0.15
27 -0.15
28 -0.15
29 -0.15
3 0.71
30 -0.15
31 -0.15
32 -0.15
33 -0.15
34 -0.15
35 -0.15
36 -0.15
37 -0.15
38 -0.15
39 -0.15
4 0.71
40 -0.15
41 0.15
42 0.15
43 0.15
44 0.15
45 0.15
46 0.15
47 0.15
48 0.15
49 0.15
5 -0.14
50 0.15
51 0.15
52 0.15
53 0.15
54 0.15
55 0.15
56 0.15
57 0.15
58 0.15
59 0.15
6 -0.14
60 0.15
61 0.15
62 0.15
63 0.15
64 0.15
65 0.15
66 0.15
67 0.15
68 0.15
69 0.15
7 -0.14
70 0.15
8 -0.14
9 -0.14

> <PUBCHEM_EFFECTIVE_ROTOR_COUNT>
9

> <PUBCHEM_PHARMACOPHORE_FEATURES>
6
6 10 16 22 28 34 40 rings
6 5 11 17 23 29 35 rings
6 6 12 18 24 30 36 rings
6 7 13 19 25 31 37 rings
6 8 14 20 26 32 38 rings
6 9 15 21 27 33 39 rings

> <PUBCHEM_HEAVY_ATOM_COUNT>
40

> <PUBCHEM_ATOM_DEF_STEREO_COUNT>
0

> <PUBCHEM_ATOM_UDEF_STEREO_COUNT>
0

> <PUBCHEM_BOND_DEF_STEREO_COUNT>
0

> <PUBCHEM_BOND_UDEF_STEREO_COUNT>
0

> <PUBCHEM_ISOTOPIC_ATOM_COUNT>
0

> <PUBCHEM_COMPONENT_COUNT>
1

> <PUBCHEM_CACTVS_TAUTO_COUNT>
1

> <PUBCHEM_CONFORMER_ID>
000214C300000001

> <PUBCHEM_MMFF94_ENERGY>
187.4971

> <PUBCHEM_FEATURE_SELFOVERLAP>
30.452

> <PUBCHEM_SHAPE_FINGERPRINT>
10165383 225 18128840597602241687
11421498 54 17676500440140642937
12058002 1 17254840191809608460
12156800 1 14091512923522883708
15274700 242 17912945898232327638
19319366 153 18260278451344553698
20691752 17 17898841611646446724
20764821 26 17983845692770776839
23559900 14 17203042006089383863
3380486 77 17553723366861175776
35225 105 18272358776919238783
469060 322 17679285628054214931
57527306 92 17970094277220918525
57527452 28 18045535038361842118
6086070 43 18271237228193938473

> <PUBCHEM_SHAPE_MULTIPOLES>
811.44
7.53
4.72
4.35
0.1
0.06
0.26
-0.02
-0.09
-0.16
-0.25
0.13
-0.36
-0.11

> <PUBCHEM_SHAPE_SELFOVERLAP>
1834.754

> <PUBCHEM_SHAPE_VOLUME>
420.7

> <PUBCHEM_COORDINATE_TYPE>
2
5
10

$$$$
