11171411
  -OEChem-11012401223D

 27 27  0     1  0  0  0  0  0999 V2000
    0.8555    0.5413    0.4042 O   0  0  0  0  0  0  0  0  0  0  0  0
   -1.7841   -0.3408    0.5800 O   0  0  0  0  0  0  0  0  0  0  0  0
    2.5909    1.1608   -0.9892 O   0  0  0  0  0  0  0  0  0  0  0  0
   -2.1823    0.8071   -1.3850 O   0  0  0  0  0  0  0  0  0  0  0  0
    0.3625   -0.3507   -0.5903 C   0  0  2  0  0  0  0  0  0  0  0  0
   -0.8246   -1.1505   -0.0680 C   0  0  1  0  0  0  0  0  0  0  0  0
    1.4029   -1.4358   -0.8351 C   0  0  0  0  0  0  0  0  0  0  0  0
   -0.1861   -2.1396    0.8981 C   0  0  0  0  0  0  0  0  0  0  0  0
    1.1807   -2.4567    0.2888 C   0  0  0  0  0  0  0  0  0  0  0  0
    1.9828    1.2376    0.0698 C   0  0  0  0  0  0  0  0  0  0  0  0
   -2.3968    0.6090   -0.1968 C   0  0  0  0  0  0  0  0  0  0  0  0
    2.3829    2.1310    1.2045 C   0  0  0  0  0  0  0  0  0  0  0  0
   -3.3843    1.3872    0.6190 C   0  0  0  0  0  0  0  0  0  0  0  0
    0.1403    0.2110   -1.5026 H   0  0  0  0  0  0  0  0  0  0  0  0
   -1.3038   -1.7101   -0.8831 H   0  0  0  0  0  0  0  0  0  0  0  0
    2.4513   -1.1346   -0.8499 H   0  0  0  0  0  0  0  0  0  0  0  0
    1.1936   -1.9252   -1.7949 H   0  0  0  0  0  0  0  0  0  0  0  0
   -0.7995   -3.0381    1.0216 H   0  0  0  0  0  0  0  0  0  0  0  0
   -0.0705   -1.6977    1.8954 H   0  0  0  0  0  0  0  0  0  0  0  0
    1.2150   -3.4776   -0.1061 H   0  0  0  0  0  0  0  0  0  0  0  0
    1.9604   -2.3730    1.0540 H   0  0  0  0  0  0  0  0  0  0  0  0
    2.5996    1.5291    2.0905 H   0  0  0  0  0  0  0  0  0  0  0  0
    1.5840    2.8475    1.4111 H   0  0  0  0  0  0  0  0  0  0  0  0
    3.2854    2.6845    0.9297 H   0  0  0  0  0  0  0  0  0  0  0  0
   -2.8682    1.8960    1.4370 H   0  0  0  0  0  0  0  0  0  0  0  0
   -4.1541    0.7158    1.0072 H   0  0  0  0  0  0  0  0  0  0  0  0
   -3.8638    2.1402   -0.0129 H   0  0  0  0  0  0  0  0  0  0  0  0
  1  5  1  0  0  0  0
  1 10  1  0  0  0  0
  2  6  1  0  0  0  0
  2 11  1  0  0  0  0
  3 10  2  0  0  0  0
  4 11  2  0  0  0  0
  5  6  1  0  0  0  0
  5  7  1  0  0  0  0
  5 14  1  0  0  0  0
  6  8  1  0  0  0  0
  6 15  1  0  0  0  0
  7  9  1  0  0  0  0
  7 16  1  0  0  0  0
  7 17  1  0  0  0  0
  8  9  1  0  0  0  0
  8 18  1  0  0  0  0
  8 19  1  0  0  0  0
  9 20  1  0  0  0  0
  9 21  1  0  0  0  0
 10 12  1  0  0  0  0
 11 13  1  0  0  0  0
 12 22  1  0  0  0  0
 12 23  1  0  0  0  0
 12 24  1  0  0  0  0
 13 25  1  0  0  0  0
 13 26  1  0  0  0  0
 13 27  1  0  0  0  0
M  END
> <PUBCHEM_COMPOUND_CID>
11171411

> <PUBCHEM_CONFORMER_RMSD>
0.6

> <PUBCHEM_CONFORMER_DIVERSEORDER>
1
13
2
14
12
22
9
21
11
4
16
15
10
18
3
17
7
5
8
6
19
20

> <PUBCHEM_MMFF94_PARTIAL_CHARGES>
10
1 -0.43
10 0.66
11 0.66
12 0.06
13 0.06
2 -0.43
3 -0.57
4 -0.57
5 0.28
6 0.28

> <PUBCHEM_EFFECTIVE_ROTOR_COUNT>
5

> <PUBCHEM_PHARMACOPHORE_FEATURES>
3
1 3 acceptor
1 4 acceptor
5 5 6 7 8 9 rings

> <PUBCHEM_HEAVY_ATOM_COUNT>
13

> <PUBCHEM_ATOM_DEF_STEREO_COUNT>
2

> <PUBCHEM_ATOM_UDEF_STEREO_COUNT>
0

> <PUBCHEM_BOND_DEF_STEREO_COUNT>
0

> <PUBCHEM_BOND_UDEF_STEREO_COUNT>
0

> <PUBCHEM_ISOTOPIC_ATOM_COUNT>
0

> <PUBCHEM_COMPONENT_COUNT>
1

> <PUBCHEM_CACTVS_TAUTO_COUNT>
1

> <PUBCHEM_CONFORMER_ID>
00AA765300000001

> <PUBCHEM_MMFF94_ENERGY>
25.6301

> <PUBCHEM_FEATURE_SELFOVERLAP>
15.223

> <PUBCHEM_SHAPE_FINGERPRINT>
1 1 18411132528679566406
12423570 1 13236157185563344782
13132413 78 17762339111252772572
14817 1 10693102398347076046
16945 1 18044658589965783471
17357990 137 17272022956292345753
19837323 101 18124308573860018466
20653085 51 17631741580852813477
20671657 1 18341894043721344643
21028194 46 18338795735907891280
21501502 16 18408887351621399735
21524375 3 18339916125339953724
21947302 44 18413390925367754905
220403 375 18265314265658742402
23211744 41 18127980908353012590
23402539 116 17550651649201158790
25 1 18342188742939477908
2748010 2 18335994150163072359
305870 269 18337942459192561288
53812653 166 18334867069229790102
54338 74 17395849229514644991
5706482 22 18194379303184093714
7364860 26 18269835320049216391
81228 2 17688026835256603306

> <PUBCHEM_SHAPE_MULTIPOLES>
244.06
4.13
2.63
1.11
2.66
0.59
-0.08
-3.1
0.07
-1.62
0.79
-0.1
-0.16
0.34

> <PUBCHEM_SHAPE_SELFOVERLAP>
488.93

> <PUBCHEM_SHAPE_VOLUME>
143.9

> <PUBCHEM_COORDINATE_TYPE>
2
5
10

$$$$
