8385
  -OEChem-11012401163D

 20 20  0     0  0  0  0  0  0999 V2000
   -2.3978    1.2835   -0.3320 O   0  0  0  0  0  0  0  0  0  0  0  0
   -1.3848   -2.6488    0.0455 O   0  5  0  0  0  0  0  0  0  0  0  0
   -2.9437   -1.1181   -0.1680 O   0  0  0  0  0  0  0  0  0  0  0  0
    3.8358    0.7092    0.0696 O   0  5  0  0  0  0  0  0  0  0  0  0
    3.2552   -1.4033    0.2097 O   0  0  0  0  0  0  0  0  0  0  0  0
   -1.7390   -1.4520   -0.0723 N   0  3  0  0  0  0  0  0  0  0  0  0
    2.9602   -0.1893    0.0932 N   0  3  0  0  0  0  0  0  0  0  0  0
   -0.7410   -0.4392   -0.0978 C   0  0  0  0  0  0  0  0  0  0  0  0
   -1.0924    0.9046   -0.2278 C   0  0  0  0  0  0  0  0  0  0  0  0
    1.5931    0.1794   -0.0150 C   0  0  0  0  0  0  0  0  0  0  0  0
    0.6018   -0.8017    0.0085 C   0  0  0  0  0  0  0  0  0  0  0  0
   -0.1009    1.8855   -0.2513 C   0  0  0  0  0  0  0  0  0  0  0  0
    1.2418    1.5230   -0.1450 C   0  0  0  0  0  0  0  0  0  0  0  0
   -3.0882    1.5673    0.8828 C   0  0  0  0  0  0  0  0  0  0  0  0
    0.8787   -1.8485    0.1099 H   0  0  0  0  0  0  0  0  0  0  0  0
   -0.3673    2.9342   -0.3527 H   0  0  0  0  0  0  0  0  0  0  0  0
    1.9867    2.3142   -0.1672 H   0  0  0  0  0  0  0  0  0  0  0  0
   -2.8277    2.5741    1.2239 H   0  0  0  0  0  0  0  0  0  0  0  0
   -2.8519    0.8435    1.6699 H   0  0  0  0  0  0  0  0  0  0  0  0
   -4.1630    1.5345    0.6843 H   0  0  0  0  0  0  0  0  0  0  0  0
  1  9  1  0  0  0  0
  1 14  1  0  0  0  0
  2  6  1  0  0  0  0
  3  6  2  0  0  0  0
  4  7  1  0  0  0  0
  5  7  2  0  0  0  0
  6  8  1  0  0  0  0
  7 10  1  0  0  0  0
  8  9  2  0  0  0  0
  8 11  1  0  0  0  0
  9 12  1  0  0  0  0
 10 11  2  0  0  0  0
 10 13  1  0  0  0  0
 11 15  1  0  0  0  0
 12 13  2  0  0  0  0
 12 16  1  0  0  0  0
 13 17  1  0  0  0  0
 14 18  1  0  0  0  0
 14 19  1  0  0  0  0
 14 20  1  0  0  0  0
M  CHG  4   2  -1   4  -1   6   1   7   1
M  END
> <PUBCHEM_COMPOUND_CID>
8385

> <PUBCHEM_CONFORMER_RMSD>
0.6

> <PUBCHEM_CONFORMER_DIVERSEORDER>
1

> <PUBCHEM_MMFF94_PARTIAL_CHARGES>
17
1 -0.36
10 0.13
11 -0.15
12 -0.15
13 -0.15
14 0.28
15 0.15
16 0.15
17 0.15
2 -0.52
3 -0.52
4 -0.52
5 -0.52
6 0.91
7 0.91
8 0.13
9 0.08

> <PUBCHEM_EFFECTIVE_ROTOR_COUNT>
3

> <PUBCHEM_PHARMACOPHORE_FEATURES>
8
1 1 acceptor
1 2 acceptor
1 2 anion
1 3 acceptor
1 4 acceptor
1 4 anion
1 5 acceptor
6 8 9 10 11 12 13 rings

> <PUBCHEM_HEAVY_ATOM_COUNT>
14

> <PUBCHEM_ATOM_DEF_STEREO_COUNT>
0

> <PUBCHEM_ATOM_UDEF_STEREO_COUNT>
0

> <PUBCHEM_BOND_DEF_STEREO_COUNT>
0

> <PUBCHEM_BOND_UDEF_STEREO_COUNT>
0

> <PUBCHEM_ISOTOPIC_ATOM_COUNT>
0

> <PUBCHEM_COMPONENT_COUNT>
1

> <PUBCHEM_CACTVS_TAUTO_COUNT>
1

> <PUBCHEM_CONFORMER_ID>
000020C100000001

> <PUBCHEM_MMFF94_ENERGY>
58.2901

> <PUBCHEM_FEATURE_SELFOVERLAP>
40.785

> <PUBCHEM_SHAPE_FINGERPRINT>
10967382 1 18266177223383247598
11132069 177 18409722929161300272
12251169 10 18411706503729796449
12382932 28 18341051826357027632
12932764 1 17676481701556909508
13380535 21 18411708664398701766
13380535 76 18270398287340691231
14144814 61 18409165510898740474
14325111 11 18411135810061025636
15001771 113 18192434301542880737
15309172 13 18265902354303868569
16945 1 18194403526673133197
193761 8 18193839481535011757
20510252 161 18272934920769139065
20588541 1 18270120093655613140
20871998 184 18272652371960875111
21501502 16 18337957903768649364
2334 1 18337952406257749364
23402539 116 18199735973553207877
23463225 33 18335984186065415662
23552423 10 18044376256011197588
23559900 14 18342457003282825190
2748010 2 18410571803397768244
528886 8 18339355271293851057
6333449 129 18412259532203086941
7364860 26 18052255390859537608
75552 356 18411981377235998628

> <PUBCHEM_SHAPE_MULTIPOLES>
248.8
5.07
2.25
0.65
2.5
0.74
-0.04
-0.14
-0.72
-1.14
-0.01
-0.2
-0.13
-0.35

> <PUBCHEM_SHAPE_SELFOVERLAP>
524.767

> <PUBCHEM_SHAPE_VOLUME>
140.6

> <PUBCHEM_COORDINATE_TYPE>
2
5
10

$$$$
