123140
  -OEChem-11012400533D

 10 10  0     0  0  0  0  0  0999 V2000
    0.0057   -1.4636    0.1392 S   0  0  0  0  0  0  0  0  0  0  0  0
    0.0056    1.4638   -0.1396 S   0  0  0  0  0  0  0  0  0  0  0  0
    2.1863   -0.0001    0.0001 O   0  0  0  0  0  0  0  0  0  0  0  0
   -1.5809   -0.6990   -0.2919 C   0  0  0  0  0  0  0  0  0  0  0  0
   -1.5810    0.6988    0.2920 C   0  0  0  0  0  0  0  0  0  0  0  0
    0.9643    0.0001    0.0001 C   0  0  0  0  0  0  0  0  0  0  0  0
   -2.4061   -1.2947    0.1093 H   0  0  0  0  0  0  0  0  0  0  0  0
   -1.6815   -0.6733   -1.3826 H   0  0  0  0  0  0  0  0  0  0  0  0
   -2.4063    1.2944   -0.1091 H   0  0  0  0  0  0  0  0  0  0  0  0
   -1.6814    0.6733    1.3828 H   0  0  0  0  0  0  0  0  0  0  0  0
  1  4  1  0  0  0  0
  1  6  1  0  0  0  0
  2  5  1  0  0  0  0
  2  6  1  0  0  0  0
  3  6  2  0  0  0  0
  4  5  1  0  0  0  0
  4  7  1  0  0  0  0
  4  8  1  0  0  0  0
  5  9  1  0  0  0  0
  5 10  1  0  0  0  0
M  END
> <PUBCHEM_COMPOUND_CID>
123140

> <PUBCHEM_CONFORMER_RMSD>
0.4

> <PUBCHEM_CONFORMER_DIVERSEORDER>
1

> <PUBCHEM_MMFF94_PARTIAL_CHARGES>
6
1 -0.37
2 -0.37
3 -0.57
4 0.23
5 0.23
6 0.85

> <PUBCHEM_EFFECTIVE_ROTOR_COUNT>
0.8

> <PUBCHEM_PHARMACOPHORE_FEATURES>
1
5 1 2 4 5 6 rings

> <PUBCHEM_HEAVY_ATOM_COUNT>
6

> <PUBCHEM_ATOM_DEF_STEREO_COUNT>
0

> <PUBCHEM_ATOM_UDEF_STEREO_COUNT>
0

> <PUBCHEM_BOND_DEF_STEREO_COUNT>
0

> <PUBCHEM_BOND_UDEF_STEREO_COUNT>
0

> <PUBCHEM_ISOTOPIC_ATOM_COUNT>
0

> <PUBCHEM_COMPONENT_COUNT>
1

> <PUBCHEM_CACTVS_TAUTO_COUNT>
1

> <PUBCHEM_CONFORMER_ID>
0001E10400000001

> <PUBCHEM_MMFF94_ENERGY>
0.5819

> <PUBCHEM_FEATURE_SELFOVERLAP>
5.074

> <PUBCHEM_SHAPE_FINGERPRINT>
139733 1 9151184155036801197
16714656 1 18410580569520958316
18185500 45 18410006641562615031
20096714 4 18339645538115946395
21040471 1 18267586797284892081
29004967 10 17968388865739693289

> <PUBCHEM_SHAPE_MULTIPOLES>
125.31
2.16
1.63
0.67
0.45
0
0
0
0
-0.17
0
-0.07
0
-0.11

> <PUBCHEM_SHAPE_SELFOVERLAP>
218.309

> <PUBCHEM_SHAPE_VOLUME>
83.7

> <PUBCHEM_COORDINATE_TYPE>
2
5
10

$$$$
