140482
  -OEChem-11012400443D

 23 23  0     1  0  0  0  0  0999 V2000
    0.3735   -1.2421    0.0804 O   0  0  0  0  0  0  0  0  0  0  0  0
   -1.3331    0.2927   -0.5546 O   0  0  0  0  0  0  0  0  0  0  0  0
    0.9962    0.9898   -0.5892 C   0  0  0  0  0  0  0  0  0  0  0  0
    1.3189   -0.1971    0.3205 C   0  0  2  0  0  0  0  0  0  0  0  0
   -0.4653    1.4251   -0.4469 C   0  0  2  0  0  0  0  0  0  0  0  0
   -0.9620   -0.7872    0.3049 C   0  0  0  0  0  0  0  0  0  0  0  0
    2.7107   -0.7470    0.0430 C   0  0  0  0  0  0  0  0  0  0  0  0
   -0.7406    2.2141    0.8306 C   0  0  0  0  0  0  0  0  0  0  0  0
   -1.8983   -1.9483    0.0111 C   0  0  0  0  0  0  0  0  0  0  0  0
    1.6775    1.8275   -0.4037 H   0  0  0  0  0  0  0  0  0  0  0  0
    1.1407    0.6709   -1.6303 H   0  0  0  0  0  0  0  0  0  0  0  0
    1.2636    0.0949    1.3761 H   0  0  0  0  0  0  0  0  0  0  0  0
   -0.7111    2.0806   -1.2907 H   0  0  0  0  0  0  0  0  0  0  0  0
   -1.0859   -0.4992    1.3555 H   0  0  0  0  0  0  0  0  0  0  0  0
    2.9174   -1.6046    0.6925 H   0  0  0  0  0  0  0  0  0  0  0  0
    2.7935   -1.1081   -0.9881 H   0  0  0  0  0  0  0  0  0  0  0  0
    3.4795    0.0129    0.2128 H   0  0  0  0  0  0  0  0  0  0  0  0
   -0.1574    3.1402    0.8492 H   0  0  0  0  0  0  0  0  0  0  0  0
   -1.8037    2.4702    0.8948 H   0  0  0  0  0  0  0  0  0  0  0  0
   -0.4999    1.6450    1.7331 H   0  0  0  0  0  0  0  0  0  0  0  0
   -2.9424   -1.6597    0.1683 H   0  0  0  0  0  0  0  0  0  0  0  0
   -1.8000   -2.2679   -1.0327 H   0  0  0  0  0  0  0  0  0  0  0  0
   -1.6624   -2.8116    0.6412 H   0  0  0  0  0  0  0  0  0  0  0  0
  1  4  1  0  0  0  0
  1  6  1  0  0  0  0
  2  5  1  0  0  0  0
  2  6  1  0  0  0  0
  3  4  1  0  0  0  0
  3  5  1  0  0  0  0
  3 10  1  0  0  0  0
  3 11  1  0  0  0  0
  4  7  1  0  0  0  0
  4 12  1  0  0  0  0
  5  8  1  0  0  0  0
  5 13  1  0  0  0  0
  6  9  1  0  0  0  0
  6 14  1  0  0  0  0
  7 15  1  0  0  0  0
  7 16  1  0  0  0  0
  7 17  1  0  0  0  0
  8 18  1  0  0  0  0
  8 19  1  0  0  0  0
  8 20  1  0  0  0  0
  9 21  1  0  0  0  0
  9 22  1  0  0  0  0
  9 23  1  0  0  0  0
M  END
> <PUBCHEM_COMPOUND_CID>
140482

> <PUBCHEM_CONFORMER_RMSD>
0.4

> <PUBCHEM_CONFORMER_DIVERSEORDER>
1
2

> <PUBCHEM_MMFF94_PARTIAL_CHARGES>
5
1 -0.56
2 -0.56
4 0.28
5 0.28
6 0.56

> <PUBCHEM_EFFECTIVE_ROTOR_COUNT>
1.2

> <PUBCHEM_PHARMACOPHORE_FEATURES>
3
1 1 acceptor
1 2 acceptor
6 1 2 3 4 5 6 rings

> <PUBCHEM_HEAVY_ATOM_COUNT>
9

> <PUBCHEM_ATOM_DEF_STEREO_COUNT>
0

> <PUBCHEM_ATOM_UDEF_STEREO_COUNT>
2

> <PUBCHEM_BOND_DEF_STEREO_COUNT>
0

> <PUBCHEM_BOND_UDEF_STEREO_COUNT>
0

> <PUBCHEM_ISOTOPIC_ATOM_COUNT>
0

> <PUBCHEM_COMPONENT_COUNT>
1

> <PUBCHEM_CACTVS_TAUTO_COUNT>
1

> <PUBCHEM_CONFORMER_ID>
000224C200000001

> <PUBCHEM_MMFF94_ENERGY>
15.1211

> <PUBCHEM_FEATURE_SELFOVERLAP>
15.258

> <PUBCHEM_SHAPE_FINGERPRINT>
137420 1 13351057306043807377
14128692 85 18188776179086366638
16945 1 18337384933614003580
18185500 45 18193562387371942110
20711978 78 17837199746892516967
21040471 1 17977665308020245788
23552423 10 18113337539743617870
29004967 10 17974569396566526155
5084963 1 17476335228819550028

> <PUBCHEM_SHAPE_MULTIPOLES>
173.48
2.58
2.26
0.79
1.03
0.75
0.03
-1.62
0.01
-0.87
0.34
-0.03
0.25
-0.16

> <PUBCHEM_SHAPE_SELFOVERLAP>
332.769

> <PUBCHEM_SHAPE_VOLUME>
105.8

> <PUBCHEM_COORDINATE_TYPE>
2
5
10

$$$$
