74743
  -OEChem-10312420222D

 21 19  0     0  0  0  0  0  0999 V2000
    1.4030    0.0000    0.0000 O   0  5  0  0  0  0  0  0  0  0  0  0
    0.5369    1.5000    0.0000 O   0  5  0  0  0  0  0  0  0  0  0  0
    2.2690    1.5000    0.0000 O   0  0  0  0  0  0  0  0  0  0  0  0
    1.4030    4.9030    0.0000 N   0  3  0  0  0  0  0  0  0  0  0  0
    1.4030    1.0000    0.0000 N   0  3  0  0  0  0  0  0  0  0  0  0
    2.2690    5.4030    0.0000 C   0  0  0  0  0  0  0  0  0  0  0  0
    0.5369    4.4030    0.0000 C   0  0  0  0  0  0  0  0  0  0  0  0
    0.9030    5.7690    0.0000 C   0  0  0  0  0  0  0  0  0  0  0  0
    1.9030    4.0369    0.0000 C   0  0  0  0  0  0  0  0  0  0  0  0
    2.5790    4.8660    0.0000 H   0  0  0  0  0  0  0  0  0  0  0  0
    2.8059    5.7130    0.0000 H   0  0  0  0  0  0  0  0  0  0  0  0
    1.9590    5.9399    0.0000 H   0  0  0  0  0  0  0  0  0  0  0  0
    0.2269    4.9399    0.0000 H   0  0  0  0  0  0  0  0  0  0  0  0
    0.0000    4.0930    0.0000 H   0  0  0  0  0  0  0  0  0  0  0  0
    0.8469    3.8660    0.0000 H   0  0  0  0  0  0  0  0  0  0  0  0
    1.4399    6.0790    0.0000 H   0  0  0  0  0  0  0  0  0  0  0  0
    0.5930    6.3059    0.0000 H   0  0  0  0  0  0  0  0  0  0  0  0
    0.3660    5.4590    0.0000 H   0  0  0  0  0  0  0  0  0  0  0  0
    1.3660    3.7269    0.0000 H   0  0  0  0  0  0  0  0  0  0  0  0
    2.2130    3.5000    0.0000 H   0  0  0  0  0  0  0  0  0  0  0  0
    2.4399    4.3469    0.0000 H   0  0  0  0  0  0  0  0  0  0  0  0
  1  5  1  0  0  0  0
  2  5  1  0  0  0  0
  3  5  2  0  0  0  0
  4  6  1  0  0  0  0
  4  7  1  0  0  0  0
  4  8  1  0  0  0  0
  4  9  1  0  0  0  0
  6 10  1  0  0  0  0
  6 11  1  0  0  0  0
  6 12  1  0  0  0  0
  7 13  1  0  0  0  0
  7 14  1  0  0  0  0
  7 15  1  0  0  0  0
  8 16  1  0  0  0  0
  8 17  1  0  0  0  0
  8 18  1  0  0  0  0
  9 19  1  0  0  0  0
  9 20  1  0  0  0  0
  9 21  1  0  0  0  0
M  CHG  4   1  -1   2  -1   4   1   5   1
M  END
> <PUBCHEM_COMPOUND_CID>
74743

> <PUBCHEM_COMPOUND_CANONICALIZED>
1

> <PUBCHEM_CACTVS_COMPLEXITY>
37.9

> <PUBCHEM_CACTVS_HBOND_ACCEPTOR>
3

> <PUBCHEM_CACTVS_HBOND_DONOR>
0

> <PUBCHEM_CACTVS_ROTATABLE_BOND>
0

> <PUBCHEM_CACTVS_SUBSKEYS>
AAADccBjMAAAAAAAAAAAAAAAAAAAAAAAAAAAAAAAAAAAAAAAAAAAFAAEAAAAAAAAAAQCAAMAQAABAAAAAQAAAAAAAAAAAAAIAAAAAAAAAAAAAAAAAAAAAAAAAAAAAAAAAAAAAAAAAAAAAAAAAAAAAAAAAA==

> <PUBCHEM_IUPAC_OPENEYE_NAME>
tetramethylammonium;nitrate

> <PUBCHEM_IUPAC_CAS_NAME>
tetramethylammonium;nitrate

> <PUBCHEM_IUPAC_NAME_MARKUP>
tetramethylazanium;nitrate

> <PUBCHEM_IUPAC_NAME>
tetramethylazanium;nitrate

> <PUBCHEM_IUPAC_SYSTEMATIC_NAME>
tetramethylazanium;nitrate

> <PUBCHEM_IUPAC_TRADITIONAL_NAME>
tetramethylammonium;nitrate

> <PUBCHEM_IUPAC_INCHI>
InChI=1S/C4H12N.NO3/c1-5(2,3)4;2-1(3)4/h1-4H3;/q+1;-1

> <PUBCHEM_IUPAC_INCHIKEY>
QGPVYHSXZFOSRL-UHFFFAOYSA-N

> <PUBCHEM_EXACT_MASS>
136.08479225

> <PUBCHEM_MOLECULAR_FORMULA>
C4H12N2O3

> <PUBCHEM_MOLECULAR_WEIGHT>
136.15

> <PUBCHEM_OPENEYE_CAN_SMILES>
C[N+](C)(C)C.[N+](=O)([O-])[O-]

> <PUBCHEM_OPENEYE_ISO_SMILES>
C[N+](C)(C)C.[N+](=O)([O-])[O-]

> <PUBCHEM_CACTVS_TPSA>
62.9

> <PUBCHEM_MONOISOTOPIC_WEIGHT>
136.08479225

> <PUBCHEM_TOTAL_CHARGE>
0

> <PUBCHEM_HEAVY_ATOM_COUNT>
9

> <PUBCHEM_ATOM_DEF_STEREO_COUNT>
0

> <PUBCHEM_ATOM_UDEF_STEREO_COUNT>
0

> <PUBCHEM_BOND_DEF_STEREO_COUNT>
0

> <PUBCHEM_BOND_UDEF_STEREO_COUNT>
0

> <PUBCHEM_ISOTOPIC_ATOM_COUNT>
0

> <PUBCHEM_COMPONENT_COUNT>
2

> <PUBCHEM_CACTVS_TAUTO_COUNT>
-1

> <PUBCHEM_COORDINATE_TYPE>
1
5
255

$$$$
