18164
  -OEChem-11012401043D

 21 21  0     0  0  0  0  0  0999 V2000
    0.1258    0.4125    0.1583 N   0  0  0  0  0  0  0  0  0  0  0  0
    3.4126   -0.6177    0.2974 N   0  0  0  0  0  0  0  0  0  0  0  0
   -2.6141   -0.5662   -0.1186 C   0  0  0  0  0  0  0  0  0  0  0  0
   -1.4371   -1.5052    0.1192 C   0  0  0  0  0  0  0  0  0  0  0  0
   -2.2998    0.8274    0.4133 C   0  0  0  0  0  0  0  0  0  0  0  0
   -0.1348   -0.9125   -0.4214 C   0  0  0  0  0  0  0  0  0  0  0  0
   -0.9702    1.3462   -0.1365 C   0  0  0  0  0  0  0  0  0  0  0  0
    1.3969    0.9446   -0.3321 C   0  0  0  0  0  0  0  0  0  0  0  0
    2.5206    0.0711    0.0204 C   0  0  0  0  0  0  0  0  0  0  0  0
   -2.8253   -0.5088   -1.1935 H   0  0  0  0  0  0  0  0  0  0  0  0
   -3.5140   -0.9602    0.3662 H   0  0  0  0  0  0  0  0  0  0  0  0
   -1.3348   -1.6983    1.1947 H   0  0  0  0  0  0  0  0  0  0  0  0
   -1.6326   -2.4704   -0.3616 H   0  0  0  0  0  0  0  0  0  0  0  0
   -3.1070    1.5171    0.1421 H   0  0  0  0  0  0  0  0  0  0  0  0
   -2.2580    0.7992    1.5097 H   0  0  0  0  0  0  0  0  0  0  0  0
    0.6588   -1.6249   -0.1696 H   0  0  0  0  0  0  0  0  0  0  0  0
   -0.1860   -0.8562   -1.5171 H   0  0  0  0  0  0  0  0  0  0  0  0
   -1.0605    1.5145   -1.2178 H   0  0  0  0  0  0  0  0  0  0  0  0
   -0.7658    2.3184    0.3284 H   0  0  0  0  0  0  0  0  0  0  0  0
    1.5793    1.9288    0.1169 H   0  0  0  0  0  0  0  0  0  0  0  0
    1.3713    1.0897   -1.4197 H   0  0  0  0  0  0  0  0  0  0  0  0
  1  6  1  0  0  0  0
  1  7  1  0  0  0  0
  1  8  1  0  0  0  0
  2  9  3  0  0  0  0
  3  4  1  0  0  0  0
  3  5  1  0  0  0  0
  3 10  1  0  0  0  0
  3 11  1  0  0  0  0
  4  6  1  0  0  0  0
  4 12  1  0  0  0  0
  4 13  1  0  0  0  0
  5  7  1  0  0  0  0
  5 14  1  0  0  0  0
  5 15  1  0  0  0  0
  6 16  1  0  0  0  0
  6 17  1  0  0  0  0
  7 18  1  0  0  0  0
  7 19  1  0  0  0  0
  8  9  1  0  0  0  0
  8 20  1  0  0  0  0
  8 21  1  0  0  0  0
M  END
> <PUBCHEM_COMPOUND_CID>
18164

> <PUBCHEM_CONFORMER_RMSD>
0.4

> <PUBCHEM_CONFORMER_DIVERSEORDER>
1
10
3
2
9
4
5
8
7
6

> <PUBCHEM_MMFF94_PARTIAL_CHARGES>
6
1 -0.81
2 -0.56
6 0.27
7 0.27
8 0.47
9 0.36

> <PUBCHEM_EFFECTIVE_ROTOR_COUNT>
2.2

> <PUBCHEM_PHARMACOPHORE_FEATURES>
3
1 1 cation
1 2 acceptor
6 1 3 4 5 6 7 rings

> <PUBCHEM_HEAVY_ATOM_COUNT>
9

> <PUBCHEM_ATOM_DEF_STEREO_COUNT>
0

> <PUBCHEM_ATOM_UDEF_STEREO_COUNT>
0

> <PUBCHEM_BOND_DEF_STEREO_COUNT>
0

> <PUBCHEM_BOND_UDEF_STEREO_COUNT>
0

> <PUBCHEM_ISOTOPIC_ATOM_COUNT>
0

> <PUBCHEM_COMPONENT_COUNT>
1

> <PUBCHEM_CACTVS_TAUTO_COUNT>
1

> <PUBCHEM_CONFORMER_ID>
000046F400000001

> <PUBCHEM_MMFF94_ENERGY>
3.5768

> <PUBCHEM_FEATURE_SELFOVERLAP>
15.223

> <PUBCHEM_SHAPE_FINGERPRINT>
12932764 1 17489587917558037732
14325111 11 18411982451120442280
16714656 1 18410012147789835813
20645464 45 17703790314652544270
207724 885 18113339721191241877
20871998 184 18130229370935125487
21040471 1 18340780242911584589
23235685 24 18341609266104862793
23552423 10 18044096975804882204
369184 2 15841551872760805614
5084963 1 18408884053054575577

> <PUBCHEM_SHAPE_MULTIPOLES>
175.25
4.38
1.45
0.67
2.75
0.05
0.01
0.61
-0.48
-0.55
0.02
-0.03
0
-0.18

> <PUBCHEM_SHAPE_SELFOVERLAP>
336.996

> <PUBCHEM_SHAPE_VOLUME>
102.2

> <PUBCHEM_COORDINATE_TYPE>
2
5
10

$$$$
