16797
  -OEChem-11012401273D

 27 28  0     0  0  0  0  0  0999 V2000
   -1.4728    0.0000    0.0000 Si  0  0  0  0  0  0  0  0  0  0  0  0
   -0.8816   -1.4799   -0.5285 O   0  0  0  0  0  0  0  0  0  0  0  0
   -0.8816    1.1976   -1.0175 O   0  0  0  0  0  0  0  0  0  0  0  0
   -0.8816    0.2822    1.5458 O   0  0  0  0  0  0  0  0  0  0  0  0
    1.8259    0.0001   -0.0001 N   0  0  0  0  0  0  0  0  0  0  0  0
    1.5967   -1.3174   -0.5859 C   0  0  0  0  0  0  0  0  0  0  0  0
    1.5965    1.1662   -0.8481 C   0  0  0  0  0  0  0  0  0  0  0  0
    1.5966    0.1514    1.4339 C   0  0  0  0  0  0  0  0  0  0  0  0
    0.2807   -1.5305   -1.3519 C   0  0  0  0  0  0  0  0  0  0  0  0
    0.2805    1.9361   -0.6490 C   0  0  0  0  0  0  0  0  0  0  0  0
    0.2805   -0.4058    2.0013 C   0  0  0  0  0  0  0  0  0  0  0  0
   -3.3398    0.0000    0.0000 C   0  0  0  0  0  0  0  0  0  0  0  0
    1.6981   -2.0933    0.1832 H   0  0  0  0  0  0  0  0  0  0  0  0
    2.4167   -1.5047   -1.2910 H   0  0  0  0  0  0  0  0  0  0  0  0
    1.6976    0.8882   -1.9045 H   0  0  0  0  0  0  0  0  0  0  0  0
    2.4166    1.8705   -0.6578 H   0  0  0  0  0  0  0  0  0  0  0  0
    1.6978    1.2052    1.7213 H   0  0  0  0  0  0  0  0  0  0  0  0
    2.4166   -0.3657    1.9487 H   0  0  0  0  0  0  0  0  0  0  0  0
    0.1862   -0.8614   -2.2164 H   0  0  0  0  0  0  0  0  0  0  0  0
    0.3062   -2.5426   -1.7744 H   0  0  0  0  0  0  0  0  0  0  0  0
    0.1860    2.3497    0.3628 H   0  0  0  0  0  0  0  0  0  0  0  0
    0.3060    2.8084   -1.3139 H   0  0  0  0  0  0  0  0  0  0  0  0
    0.1861   -1.4889    1.8538 H   0  0  0  0  0  0  0  0  0  0  0  0
    0.3060   -0.2658    3.0891 H   0  0  0  0  0  0  0  0  0  0  0  0
   -3.7282   -0.1842   -1.0060 H   0  0  0  0  0  0  0  0  0  0  0  0
   -3.7281   -0.7791    0.6626 H   0  0  0  0  0  0  0  0  0  0  0  0
   -3.7281    0.9634    0.3434 H   0  0  0  0  0  0  0  0  0  0  0  0
  1  2  1  0  0  0  0
  1  3  1  0  0  0  0
  1  4  1  0  0  0  0
  1 12  1  0  0  0  0
  2  9  1  0  0  0  0
  3 10  1  0  0  0  0
  4 11  1  0  0  0  0
  5  6  1  0  0  0  0
  5  7  1  0  0  0  0
  5  8  1  0  0  0  0
  6  9  1  0  0  0  0
  6 13  1  0  0  0  0
  6 14  1  0  0  0  0
  7 10  1  0  0  0  0
  7 15  1  0  0  0  0
  7 16  1  0  0  0  0
  8 11  1  0  0  0  0
  8 17  1  0  0  0  0
  8 18  1  0  0  0  0
  9 19  1  0  0  0  0
  9 20  1  0  0  0  0
 10 21  1  0  0  0  0
 10 22  1  0  0  0  0
 11 23  1  0  0  0  0
 11 24  1  0  0  0  0
 12 25  1  0  0  0  0
 12 26  1  0  0  0  0
 12 27  1  0  0  0  0
M  END
> <PUBCHEM_COMPOUND_CID>
16797

> <PUBCHEM_CONFORMER_RMSD>
0.4

> <PUBCHEM_CONFORMER_DIVERSEORDER>
1
2

> <PUBCHEM_MMFF94_PARTIAL_CHARGES>
12
1 0.97
10 0.28
11 0.28
12 -0.08
2 -0.58
3 -0.58
4 -0.58
5 -0.81
6 0.27
7 0.27
8 0.27
9 0.28

> <PUBCHEM_EFFECTIVE_ROTOR_COUNT>
1.8

> <PUBCHEM_PHARMACOPHORE_FEATURES>
1
1 5 cation

> <PUBCHEM_HEAVY_ATOM_COUNT>
12

> <PUBCHEM_ATOM_DEF_STEREO_COUNT>
0

> <PUBCHEM_ATOM_UDEF_STEREO_COUNT>
0

> <PUBCHEM_BOND_DEF_STEREO_COUNT>
0

> <PUBCHEM_BOND_UDEF_STEREO_COUNT>
0

> <PUBCHEM_ISOTOPIC_ATOM_COUNT>
0

> <PUBCHEM_COMPONENT_COUNT>
1

> <PUBCHEM_CACTVS_TAUTO_COUNT>
1

> <PUBCHEM_CONFORMER_ID>
0000419D00000001

> <PUBCHEM_MMFF94_ENERGY>
39.4642

> <PUBCHEM_FEATURE_SELFOVERLAP>
5.074

> <PUBCHEM_SHAPE_FINGERPRINT>
12423570 1 8967652011944335300
13024252 1 16660362584670990080
137420 1 9187016534700931818
141345 1 10653145999638109708
144361 1 18339092599657367534
14817 1 11174349343578608344
16945 1 18261391178222150149
21922407 69 17272041724903588704
23419403 2 15896110430052727059
241688 4 17979367360420047639
5084963 1 18270964539971014711
528886 8 18340491161299691237
68250623 7 17826235378422843779

> <PUBCHEM_SHAPE_MULTIPOLES>
242.58
2.95
1.66
1.66
1.98
0.16
0.78
0
0
-0.39
-0.78
-0.39
-0.16
0

> <PUBCHEM_SHAPE_SELFOVERLAP>
473.448

> <PUBCHEM_SHAPE_VOLUME>
144.7

> <PUBCHEM_COORDINATE_TYPE>
2
5
10

$$$$
