145120
  -OEChem-11012400463D

 41 40  0     0  0  0  0  0  0999 V2000
    0.9778    0.0783   -0.1562 O   0  0  0  0  0  0  0  0  0  0  0  0
   -4.1676    0.5802    0.2453 O   0  0  0  0  0  0  0  0  0  0  0  0
    2.3462    0.4618    0.1589 O   0  0  0  0  0  0  0  0  0  0  0  0
    0.2100    1.2711    0.0175 C   0  0  0  0  0  0  0  0  0  0  0  0
   -1.2556    0.9666   -0.3617 C   0  0  0  0  0  0  0  0  0  0  0  0
   -1.8898   -0.1925    0.4286 C   0  0  0  0  0  0  0  0  0  0  0  0
   -3.3283   -0.5492   -0.0052 C   0  0  0  0  0  0  0  0  0  0  0  0
    0.3576    1.7367    1.4678 C   0  0  0  0  0  0  0  0  0  0  0  0
    0.7739    2.3355   -0.9306 C   0  0  0  0  0  0  0  0  0  0  0  0
   -3.8449   -1.7163    0.8435 C   0  0  0  0  0  0  0  0  0  0  0  0
   -3.4237   -0.9047   -1.4907 C   0  0  0  0  0  0  0  0  0  0  0  0
    3.1132   -0.7212   -0.0125 C   0  0  0  0  0  0  0  0  0  0  0  0
    2.9695   -1.1884   -1.4601 C   0  0  0  0  0  0  0  0  0  0  0  0
    4.5678   -0.3756    0.2988 C   0  0  0  0  0  0  0  0  0  0  0  0
    2.5938   -1.7823    0.9566 C   0  0  0  0  0  0  0  0  0  0  0  0
   -1.8652    1.8707   -0.2439 H   0  0  0  0  0  0  0  0  0  0  0  0
   -1.2703    0.7033   -1.4260 H   0  0  0  0  0  0  0  0  0  0  0  0
   -1.9067    0.0856    1.4897 H   0  0  0  0  0  0  0  0  0  0  0  0
   -1.2573   -1.0842    0.3375 H   0  0  0  0  0  0  0  0  0  0  0  0
    0.1707    0.9160    2.1690 H   0  0  0  0  0  0  0  0  0  0  0  0
   -0.3380    2.5524    1.6923 H   0  0  0  0  0  0  0  0  0  0  0  0
    1.3676    2.1014    1.6870 H   0  0  0  0  0  0  0  0  0  0  0  0
    0.1474    3.2343   -0.9300 H   0  0  0  0  0  0  0  0  0  0  0  0
    0.8277    1.9537   -1.9568 H   0  0  0  0  0  0  0  0  0  0  0  0
    1.7886    2.6485   -0.6606 H   0  0  0  0  0  0  0  0  0  0  0  0
   -4.8856   -1.9531    0.5940 H   0  0  0  0  0  0  0  0  0  0  0  0
   -3.2408   -2.6180    0.6993 H   0  0  0  0  0  0  0  0  0  0  0  0
   -3.8355   -1.4573    1.9084 H   0  0  0  0  0  0  0  0  0  0  0  0
   -4.4334   -1.2508   -1.7417 H   0  0  0  0  0  0  0  0  0  0  0  0
   -2.7157   -1.6943   -1.7621 H   0  0  0  0  0  0  0  0  0  0  0  0
   -3.2460   -0.0316   -2.1270 H   0  0  0  0  0  0  0  0  0  0  0  0
   -5.0727    0.3479   -0.0242 H   0  0  0  0  0  0  0  0  0  0  0  0
    3.2083   -0.3762   -2.1565 H   0  0  0  0  0  0  0  0  0  0  0  0
    3.6380   -2.0303   -1.6712 H   0  0  0  0  0  0  0  0  0  0  0  0
    1.9507   -1.5145   -1.6968 H   0  0  0  0  0  0  0  0  0  0  0  0
    4.6672    0.0055    1.3217 H   0  0  0  0  0  0  0  0  0  0  0  0
    4.9294    0.4193   -0.3635 H   0  0  0  0  0  0  0  0  0  0  0  0
    5.2241   -1.2449    0.1875 H   0  0  0  0  0  0  0  0  0  0  0  0
    1.5737   -2.1038    0.7189 H   0  0  0  0  0  0  0  0  0  0  0  0
    3.2287   -2.6748    0.9422 H   0  0  0  0  0  0  0  0  0  0  0  0
    2.5686   -1.3941    1.9814 H   0  0  0  0  0  0  0  0  0  0  0  0
  1  3  1  0  0  0  0
  1  4  1  0  0  0  0
  2  7  1  0  0  0  0
  2 32  1  0  0  0  0
  3 12  1  0  0  0  0
  4  5  1  0  0  0  0
  4  8  1  0  0  0  0
  4  9  1  0  0  0  0
  5  6  1  0  0  0  0
  5 16  1  0  0  0  0
  5 17  1  0  0  0  0
  6  7  1  0  0  0  0
  6 18  1  0  0  0  0
  6 19  1  0  0  0  0
  7 10  1  0  0  0  0
  7 11  1  0  0  0  0
  8 20  1  0  0  0  0
  8 21  1  0  0  0  0
  8 22  1  0  0  0  0
  9 23  1  0  0  0  0
  9 24  1  0  0  0  0
  9 25  1  0  0  0  0
 10 26  1  0  0  0  0
 10 27  1  0  0  0  0
 10 28  1  0  0  0  0
 11 29  1  0  0  0  0
 11 30  1  0  0  0  0
 11 31  1  0  0  0  0
 12 13  1  0  0  0  0
 12 14  1  0  0  0  0
 12 15  1  0  0  0  0
 13 33  1  0  0  0  0
 13 34  1  0  0  0  0
 13 35  1  0  0  0  0
 14 36  1  0  0  0  0
 14 37  1  0  0  0  0
 14 38  1  0  0  0  0
 15 39  1  0  0  0  0
 15 40  1  0  0  0  0
 15 41  1  0  0  0  0
M  END
> <PUBCHEM_COMPOUND_CID>
145120

> <PUBCHEM_CONFORMER_RMSD>
0.6

> <PUBCHEM_CONFORMER_DIVERSEORDER>
1
37
13
35
9
36
17
24
34
22
23
31
26
2
25
6
32
4
19
21
14
20
27
7
28
3
29
18
30
5
15
11
8
33
10
16
12

> <PUBCHEM_MMFF94_PARTIAL_CHARGES>
7
1 -0.28
12 0.28
2 -0.68
3 -0.28
32 0.4
4 0.28
7 0.28

> <PUBCHEM_EFFECTIVE_ROTOR_COUNT>
6

> <PUBCHEM_PHARMACOPHORE_FEATURES>
5
1 2 acceptor
1 2 donor
3 4 8 9 hydrophobe
3 7 10 11 hydrophobe
4 12 13 14 15 hydrophobe

> <PUBCHEM_HEAVY_ATOM_COUNT>
15

> <PUBCHEM_ATOM_DEF_STEREO_COUNT>
0

> <PUBCHEM_ATOM_UDEF_STEREO_COUNT>
0

> <PUBCHEM_BOND_DEF_STEREO_COUNT>
0

> <PUBCHEM_BOND_UDEF_STEREO_COUNT>
0

> <PUBCHEM_ISOTOPIC_ATOM_COUNT>
0

> <PUBCHEM_COMPONENT_COUNT>
1

> <PUBCHEM_CACTVS_TAUTO_COUNT>
1

> <PUBCHEM_CONFORMER_ID>
000236E000000001

> <PUBCHEM_MMFF94_ENERGY>
38.4403

> <PUBCHEM_FEATURE_SELFOVERLAP>
25.373

> <PUBCHEM_SHAPE_FINGERPRINT>
10618630 7 18202004278973547878
10922049 32 9079111176552937928
11543360 7 15936700353501651415
11806522 49 18410293653042424552
12251169 10 15554440808125866152
124424 183 18202561766150769521
12553582 1 18334295336010180859
12633257 1 14692297192146273398
12892183 10 15123505908700686726
12932764 1 17701828906611054145
13296908 3 18260828254339069971
13705890 14 17748827448971256920
14252887 29 18059863856899791918
14787075 74 18271519922825056896
15375462 189 18343579659503006722
15502722 9 17970922277895586092
15757776 16 18334010580095141938
17041 49 17203337749137336913
17041 50 17749095725830296805
18186145 218 12324243862335357414
19107657 46 18335139795369006219
19107657 9 8358255998822168087
200 152 17604149229759639698
20281407 28 18335140877663308921
20281475 54 18187367627376369379
20339313 130 18336552706512629965
20361792 2 18408885126791066605
20645477 70 18341044237603496487
20671657 53 18186805785377031908
20871998 22 18272658904848621340
20871999 31 17894907386985168349
21250096 35 18343580720349281899
21524375 3 15835343175781909929
22485316 2 18409726240216900155
2255824 54 18264211485555663980
231179 274 10015594899447416666
232386 152 17989492952195205773
23382010 3 15285649840413359712
23402539 116 18187923946280100274
23557571 272 18266458716109838748
23559900 14 18191294988949019026
298252 57 11891338651174454360
449060 23 18271249330836447310
5902787 121 18408039628092697786
7364860 26 18195810888677566016
81228 2 18124046636610818912
83771 10 18411134731876495840
94968 8 18335706065374040002

> <PUBCHEM_SHAPE_MULTIPOLES>
291.09
8.14
2.07
1.27
1.47
0.6
0.17
-4.62
0.07
-0.26
-0.11
0.04
-0.1
0.06

> <PUBCHEM_SHAPE_SELFOVERLAP>
547.392

> <PUBCHEM_SHAPE_VOLUME>
185.4

> <PUBCHEM_COORDINATE_TYPE>
2
5
10

$$$$
