137731
  -OEChem-11012400523D

 26 28  0     1  0  0  0  0  0999 V2000
   -1.3215    2.6902   -0.0906 O   0  0  0  0  0  0  0  0  0  0  0  0
   -1.3188   -2.6907   -0.0905 O   0  0  0  0  0  0  0  0  0  0  0  0
   -0.0066    0.7771   -0.7097 C   0  0  2  0  0  0  0  0  0  0  0  0
   -0.0059   -0.7765   -0.7105 C   0  0  1  0  0  0  0  0  0  0  0  0
    1.2511    1.2971    0.0505 C   0  0  2  0  0  0  0  0  0  0  0  0
    1.2525   -1.2964    0.0486 C   0  0  1  0  0  0  0  0  0  0  0  0
    2.5025    0.7743   -0.6922 C   0  0  0  0  0  0  0  0  0  0  0  0
    2.5036   -0.7711   -0.6929 C   0  0  0  0  0  0  0  0  0  0  0  0
    1.2571    0.6702    1.4303 C   0  0  0  0  0  0  0  0  0  0  0  0
    1.2579   -0.6716    1.4293 C   0  0  0  0  0  0  0  0  0  0  0  0
   -1.2554    1.4633   -0.1839 C   0  0  0  0  0  0  0  0  0  0  0  0
   -1.2540   -1.4639   -0.1843 C   0  0  0  0  0  0  0  0  0  0  0  0
   -2.4316    0.6641    0.1981 C   0  0  0  0  0  0  0  0  0  0  0  0
   -2.4310   -0.6660    0.1979 C   0  0  0  0  0  0  0  0  0  0  0  0
    0.0661    1.1028   -1.7581 H   0  0  0  0  0  0  0  0  0  0  0  0
    0.0663   -1.1012   -1.7592 H   0  0  0  0  0  0  0  0  0  0  0  0
    1.2720    2.3894    0.1203 H   0  0  0  0  0  0  0  0  0  0  0  0
    1.2746   -2.3888    0.1168 H   0  0  0  0  0  0  0  0  0  0  0  0
    3.4157    1.1420   -0.2074 H   0  0  0  0  0  0  0  0  0  0  0  0
    2.5205    1.1482   -1.7228 H   0  0  0  0  0  0  0  0  0  0  0  0
    2.5226   -1.1440   -1.7239 H   0  0  0  0  0  0  0  0  0  0  0  0
    3.4170   -1.1381   -0.2080 H   0  0  0  0  0  0  0  0  0  0  0  0
    1.2582    1.2635    2.3347 H   0  0  0  0  0  0  0  0  0  0  0  0
    1.2596   -1.2661    2.3329 H   0  0  0  0  0  0  0  0  0  0  0  0
   -3.3206    1.2078    0.5006 H   0  0  0  0  0  0  0  0  0  0  0  0
   -3.3194   -1.2107    0.5005 H   0  0  0  0  0  0  0  0  0  0  0  0
  1 11  2  0  0  0  0
  2 12  2  0  0  0  0
  3  4  1  0  0  0  0
  3  5  1  0  0  0  0
  3 11  1  0  0  0  0
  3 15  1  0  0  0  0
  4  6  1  0  0  0  0
  4 12  1  0  0  0  0
  4 16  1  0  0  0  0
  5  7  1  0  0  0  0
  5  9  1  0  0  0  0
  5 17  1  0  0  0  0
  6  8  1  0  0  0  0
  6 10  1  0  0  0  0
  6 18  1  0  0  0  0
  7  8  1  0  0  0  0
  7 19  1  0  0  0  0
  7 20  1  0  0  0  0
  8 21  1  0  0  0  0
  8 22  1  0  0  0  0
  9 10  2  0  0  0  0
  9 23  1  0  0  0  0
 10 24  1  0  0  0  0
 11 13  1  0  0  0  0
 12 14  1  0  0  0  0
 13 14  2  0  0  0  0
 13 25  1  0  0  0  0
 14 26  1  0  0  0  0
M  END
> <PUBCHEM_COMPOUND_CID>
137731

> <PUBCHEM_CONFORMER_RMSD>
0.4

> <PUBCHEM_CONFORMER_DIVERSEORDER>
1
2
3

> <PUBCHEM_MMFF94_PARTIAL_CHARGES>
16
1 -0.57
10 -0.29
11 0.49
12 0.49
13 -0.14
14 -0.14
2 -0.57
23 0.15
24 0.15
25 0.15
26 0.15
3 0.06
4 0.06
5 0.14
6 0.14
9 -0.29

> <PUBCHEM_EFFECTIVE_ROTOR_COUNT>
0.4

> <PUBCHEM_PHARMACOPHORE_FEATURES>
4
1 1 acceptor
1 2 acceptor
6 3 4 11 12 13 14 rings
8 3 4 5 6 7 8 9 10 rings

> <PUBCHEM_HEAVY_ATOM_COUNT>
14

> <PUBCHEM_ATOM_DEF_STEREO_COUNT>
0

> <PUBCHEM_ATOM_UDEF_STEREO_COUNT>
4

> <PUBCHEM_BOND_DEF_STEREO_COUNT>
0

> <PUBCHEM_BOND_UDEF_STEREO_COUNT>
0

> <PUBCHEM_ISOTOPIC_ATOM_COUNT>
0

> <PUBCHEM_COMPONENT_COUNT>
1

> <PUBCHEM_CACTVS_TAUTO_COUNT>
1

> <PUBCHEM_CONFORMER_ID>
00021A0300000001

> <PUBCHEM_MMFF94_ENERGY>
39.9434

> <PUBCHEM_FEATURE_SELFOVERLAP>
20.317

> <PUBCHEM_SHAPE_FINGERPRINT>
11680611 10 17968927583482239033
12423570 1 8108716058124745658
12491281 212 18190202142667530644
12524768 44 18270392931537448543
144361 1 18410867554803540338
14817 1 13242658971543492361
15076042 46 18336257938543267609
15557651 10 17632295730449705396
16945 1 18410862057445841942
20511035 2 17908966721788928263
21501502 16 18341614845204005422
21922407 69 17676752249762208032
22344851 341 18409168784064831298
22802520 49 18199484301386154062
2334 1 17978511167216214679
23419403 2 16186566677769764045
23559900 14 17840868470183717654
241688 4 18194688287262772281
2748010 2 18124875913159279047
4369600 1 17828478407781253328
5084963 1 18059288751961829229
528886 8 18339648965626501190
53812653 166 17766554651734463417
54276843 12 17822874042311241063

> <PUBCHEM_SHAPE_MULTIPOLES>
276.37
3.3
2.25
1.07
0.15
0
0.33
0
-0.2
1.03
-0.14
-0.53
0
0

> <PUBCHEM_SHAPE_SELFOVERLAP>
608.888

> <PUBCHEM_SHAPE_VOLUME>
145.1

> <PUBCHEM_COORDINATE_TYPE>
2
5
10

$$$$
