10322
  -OEChem-11012401233D

 19 20  0     0  0  0  0  0  0999 V2000
    1.8505   -1.5009    0.0294 O   0  0  0  0  0  0  0  0  0  0  0  0
    2.5218    0.8025   -0.1969 O   0  0  0  0  0  0  0  0  0  0  0  0
   -3.5205   -0.5098   -0.8229 O   0  0  0  0  0  0  0  0  0  0  0  0
    0.7925   -0.6465    0.0822 C   0  0  0  0  0  0  0  0  0  0  0  0
    1.1759    0.6688   -0.0469 C   0  0  0  0  0  0  0  0  0  0  0  0
   -1.4797    0.0193    0.2777 C   0  0  0  0  0  0  0  0  0  0  0  0
   -0.5300   -1.0046    0.2461 C   0  0  0  0  0  0  0  0  0  0  0  0
    0.2581    1.6986   -0.0192 C   0  0  0  0  0  0  0  0  0  0  0  0
   -1.0879    1.3632    0.1458 C   0  0  0  0  0  0  0  0  0  0  0  0
    2.9428   -0.5759   -0.1482 C   0  0  0  0  0  0  0  0  0  0  0  0
   -2.9235   -0.3147    0.4529 C   0  0  0  0  0  0  0  0  0  0  0  0
   -0.8159   -2.0463    0.3449 H   0  0  0  0  0  0  0  0  0  0  0  0
    0.5643    2.7335   -0.1215 H   0  0  0  0  0  0  0  0  0  0  0  0
   -1.8313    2.1563    0.1692 H   0  0  0  0  0  0  0  0  0  0  0  0
    3.4593   -0.8184   -1.0840 H   0  0  0  0  0  0  0  0  0  0  0  0
    3.6456   -0.6991    0.6838 H   0  0  0  0  0  0  0  0  0  0  0  0
   -3.0469   -1.2282    1.0451 H   0  0  0  0  0  0  0  0  0  0  0  0
   -3.4537    0.4908    0.9728 H   0  0  0  0  0  0  0  0  0  0  0  0
   -4.4564   -0.7247   -0.6697 H   0  0  0  0  0  0  0  0  0  0  0  0
  1  4  1  0  0  0  0
  1 10  1  0  0  0  0
  2  5  1  0  0  0  0
  2 10  1  0  0  0  0
  3 11  1  0  0  0  0
  3 19  1  0  0  0  0
  4  5  2  0  0  0  0
  4  7  1  0  0  0  0
  5  8  1  0  0  0  0
  6  7  2  0  0  0  0
  6  9  1  0  0  0  0
  6 11  1  0  0  0  0
  7 12  1  0  0  0  0
  8  9  2  0  0  0  0
  8 13  1  0  0  0  0
  9 14  1  0  0  0  0
 10 15  1  0  0  0  0
 10 16  1  0  0  0  0
 11 17  1  0  0  0  0
 11 18  1  0  0  0  0
M  END
> <PUBCHEM_COMPOUND_CID>
10322

> <PUBCHEM_CONFORMER_RMSD>
0.4

> <PUBCHEM_CONFORMER_DIVERSEORDER>
1
2
4
3

> <PUBCHEM_MMFF94_PARTIAL_CHARGES>
15
1 -0.36
10 0.56
11 0.42
12 0.15
13 0.15
14 0.15
19 0.4
2 -0.36
3 -0.68
4 0.08
5 0.08
6 -0.14
7 -0.15
8 -0.15
9 -0.15

> <PUBCHEM_EFFECTIVE_ROTOR_COUNT>
1.6

> <PUBCHEM_PHARMACOPHORE_FEATURES>
6
1 1 acceptor
1 2 acceptor
1 3 acceptor
1 3 donor
5 1 2 4 5 10 rings
6 4 5 6 7 8 9 rings

> <PUBCHEM_HEAVY_ATOM_COUNT>
11

> <PUBCHEM_ATOM_DEF_STEREO_COUNT>
0

> <PUBCHEM_ATOM_UDEF_STEREO_COUNT>
0

> <PUBCHEM_BOND_DEF_STEREO_COUNT>
0

> <PUBCHEM_BOND_UDEF_STEREO_COUNT>
0

> <PUBCHEM_ISOTOPIC_ATOM_COUNT>
0

> <PUBCHEM_COMPONENT_COUNT>
1

> <PUBCHEM_CACTVS_TAUTO_COUNT>
1

> <PUBCHEM_CONFORMER_ID>
0000285200000001

> <PUBCHEM_MMFF94_ENERGY>
24.8017

> <PUBCHEM_FEATURE_SELFOVERLAP>
30.601

> <PUBCHEM_SHAPE_FINGERPRINT>
10219947 1 18342742926843445031
11206711 2 18262243209375930756
12032990 46 18409459080366492434
12897270 3 18408044004622109279
14128692 85 18201999966894811335
14325111 11 18410578374703161633
14993402 34 18202564007659247367
16945 1 18409456915750220664
193761 8 17688874133498568779
20201158 50 18334295374712352771
23402655 69 18337939092661238901
23552423 10 18116442444436933738
241688 4 18191872227668128440
2748010 2 18266179435328458308
29004967 10 18334304183584652072
5084963 1 18271808982112456642
528886 8 18338796818197465042
53812654 25 18201988958640677478
63268167 104 18411140272579395713

> <PUBCHEM_SHAPE_MULTIPOLES>
208.77
4.42
1.51
0.68
1.38
0.35
0.02
-1.14
0.59
-0.31
-0.02
0.25
-0.03
-0.11

> <PUBCHEM_SHAPE_SELFOVERLAP>
452.974

> <PUBCHEM_SHAPE_VOLUME>
115.2

> <PUBCHEM_COORDINATE_TYPE>
2
5
10

$$$$
