78970
  -OEChem-11012400333D

 90 90  0     0  0  0  0  0  0999 V2000
   -5.0706    1.4661   -0.8122 C   0  0  0  0  0  0  0  0  0  0  0  0
   -5.9035    1.8316    0.4197 C   0  0  0  0  0  0  0  0  0  0  0  0
   -4.2470    2.6575   -1.3036 C   0  0  0  0  0  0  0  0  0  0  0  0
   -6.8715    0.7277    0.8636 C   0  0  0  0  0  0  0  0  0  0  0  0
   -3.3024    2.2975   -2.4550 C   0  0  0  0  0  0  0  0  0  0  0  0
   -6.2697   -0.6749    0.9905 C   0  0  0  0  0  0  0  0  0  0  0  0
   -2.1680    1.3242   -2.1038 C   0  0  0  0  0  0  0  0  0  0  0  0
   -5.1294   -0.7679    2.0089 C   0  0  0  0  0  0  0  0  0  0  0  0
   -1.2825    1.7244   -0.9166 C   0  0  0  0  0  0  0  0  0  0  0  0
   -4.4276   -2.1303    1.9842 C   0  0  0  0  0  0  0  0  0  0  0  0
   -0.6070    3.0844   -1.1027 C   0  0  0  0  0  0  0  0  0  0  0  0
   -3.5419   -2.3098    0.7458 C   0  0  0  0  0  0  0  0  0  0  0  0
    0.2420    3.5152    0.0957 C   0  0  0  0  0  0  0  0  0  0  0  0
   -2.8536   -3.6753    0.7405 C   0  0  0  0  0  0  0  0  0  0  0  0
    1.5154    2.6851    0.2811 C   0  0  0  0  0  0  0  0  0  0  0  0
   -2.0720   -3.9448   -0.5495 C   0  0  0  0  0  0  0  0  0  0  0  0
    2.4108    3.3144    1.3529 C   0  0  0  0  0  0  0  0  0  0  0  0
   -0.9048   -2.9925   -0.8366 C   0  0  0  0  0  0  0  0  0  0  0  0
    3.7140    2.5535    1.6134 C   0  0  0  0  0  0  0  0  0  0  0  0
    0.1947   -3.0613    0.2246 C   0  0  0  0  0  0  0  0  0  0  0  0
    4.5922    2.4135    0.3678 C   0  0  0  0  0  0  0  0  0  0  0  0
    1.4178   -2.1918   -0.0869 C   0  0  0  0  0  0  0  0  0  0  0  0
    6.0582    2.1024    0.6819 C   0  0  0  0  0  0  0  0  0  0  0  0
    2.1246   -2.5796   -1.3901 C   0  0  0  0  0  0  0  0  0  0  0  0
    6.3142    0.8643    1.5438 C   0  0  0  0  0  0  0  0  0  0  0  0
    3.5346   -1.9891   -1.5044 C   0  0  0  0  0  0  0  0  0  0  0  0
    5.7574   -0.4552    1.0041 C   0  0  0  0  0  0  0  0  0  0  0  0
    4.5488   -2.7473   -0.6426 C   0  0  0  0  0  0  0  0  0  0  0  0
    6.2394   -0.7920   -0.4087 C   0  0  0  0  0  0  0  0  0  0  0  0
    5.9875   -2.2502   -0.8058 C   0  0  0  0  0  0  0  0  0  0  0  0
   -5.7291    1.1214   -1.6184 H   0  0  0  0  0  0  0  0  0  0  0  0
   -4.4003    0.6387   -0.5617 H   0  0  0  0  0  0  0  0  0  0  0  0
   -6.4889    2.7361    0.2123 H   0  0  0  0  0  0  0  0  0  0  0  0
   -5.2324    2.0858    1.2490 H   0  0  0  0  0  0  0  0  0  0  0  0
   -3.6827    3.0958   -0.4733 H   0  0  0  0  0  0  0  0  0  0  0  0
   -4.9337    3.4388   -1.6529 H   0  0  0  0  0  0  0  0  0  0  0  0
   -7.6952    0.6779    0.1402 H   0  0  0  0  0  0  0  0  0  0  0  0
   -7.3207    1.0186    1.8211 H   0  0  0  0  0  0  0  0  0  0  0  0
   -2.8702    3.2234   -2.8529 H   0  0  0  0  0  0  0  0  0  0  0  0
   -3.8875    1.8654   -3.2767 H   0  0  0  0  0  0  0  0  0  0  0  0
   -5.9434   -1.0109    0.0017 H   0  0  0  0  0  0  0  0  0  0  0  0
   -7.0664   -1.3668    1.2921 H   0  0  0  0  0  0  0  0  0  0  0  0
   -1.5335    1.2062   -2.9915 H   0  0  0  0  0  0  0  0  0  0  0  0
   -2.5885    0.3314   -1.9044 H   0  0  0  0  0  0  0  0  0  0  0  0
   -4.3837    0.0165    1.8428 H   0  0  0  0  0  0  0  0  0  0  0  0
   -5.5429   -0.6015    3.0113 H   0  0  0  0  0  0  0  0  0  0  0  0
   -1.8738    1.7230    0.0062 H   0  0  0  0  0  0  0  0  0  0  0  0
   -0.5174    0.9491   -0.7927 H   0  0  0  0  0  0  0  0  0  0  0  0
   -5.1721   -2.9334    2.0381 H   0  0  0  0  0  0  0  0  0  0  0  0
   -3.8013   -2.2149    2.8808 H   0  0  0  0  0  0  0  0  0  0  0  0
    0.0096    3.0726   -2.0095 H   0  0  0  0  0  0  0  0  0  0  0  0
   -1.3708    3.8558   -1.2511 H   0  0  0  0  0  0  0  0  0  0  0  0
   -2.7910   -1.5116    0.7271 H   0  0  0  0  0  0  0  0  0  0  0  0
   -4.1393   -2.2129   -0.1665 H   0  0  0  0  0  0  0  0  0  0  0  0
    0.5225    4.5655   -0.0557 H   0  0  0  0  0  0  0  0  0  0  0  0
   -0.3614    3.4808    1.0109 H   0  0  0  0  0  0  0  0  0  0  0  0
   -3.6154   -4.4585    0.8424 H   0  0  0  0  0  0  0  0  0  0  0  0
   -2.1978   -3.7695    1.6129 H   0  0  0  0  0  0  0  0  0  0  0  0
    1.2617    1.6595    0.5712 H   0  0  0  0  0  0  0  0  0  0  0  0
    2.0514    2.6343   -0.6730 H   0  0  0  0  0  0  0  0  0  0  0  0
   -2.7664   -3.9063   -1.3983 H   0  0  0  0  0  0  0  0  0  0  0  0
   -1.6892   -4.9725   -0.5141 H   0  0  0  0  0  0  0  0  0  0  0  0
    2.6554    4.3444    1.0639 H   0  0  0  0  0  0  0  0  0  0  0  0
    1.8538    3.3790    2.2959 H   0  0  0  0  0  0  0  0  0  0  0  0
   -1.2648   -1.9626   -0.9364 H   0  0  0  0  0  0  0  0  0  0  0  0
   -0.4918   -3.2716   -1.8127 H   0  0  0  0  0  0  0  0  0  0  0  0
    4.2660    3.0920    2.3936 H   0  0  0  0  0  0  0  0  0  0  0  0
    3.4808    1.5613    2.0166 H   0  0  0  0  0  0  0  0  0  0  0  0
    0.5186   -4.1018    0.3503 H   0  0  0  0  0  0  0  0  0  0  0  0
   -0.2068   -2.7364    1.1912 H   0  0  0  0  0  0  0  0  0  0  0  0
    4.1813    1.6371   -0.2872 H   0  0  0  0  0  0  0  0  0  0  0  0
    4.5673    3.3491   -0.2049 H   0  0  0  0  0  0  0  0  0  0  0  0
    2.1072   -2.2795    0.7598 H   0  0  0  0  0  0  0  0  0  0  0  0
    1.1191   -1.1375   -0.1361 H   0  0  0  0  0  0  0  0  0  0  0  0
    6.6057    2.0093   -0.2638 H   0  0  0  0  0  0  0  0  0  0  0  0
    6.4960    2.9684    1.1951 H   0  0  0  0  0  0  0  0  0  0  0  0
    2.1743   -3.6705   -1.4888 H   0  0  0  0  0  0  0  0  0  0  0  0
    1.5308   -2.2106   -2.2350 H   0  0  0  0  0  0  0  0  0  0  0  0
    7.3991    0.7590    1.6729 H   0  0  0  0  0  0  0  0  0  0  0  0
    5.9083    1.0287    2.5493 H   0  0  0  0  0  0  0  0  0  0  0  0
    3.8519   -2.0498   -2.5528 H   0  0  0  0  0  0  0  0  0  0  0  0
    3.5105   -0.9267   -1.2381 H   0  0  0  0  0  0  0  0  0  0  0  0
    6.0619   -1.2538    1.6921 H   0  0  0  0  0  0  0  0  0  0  0  0
    4.6625   -0.4256    1.0267 H   0  0  0  0  0  0  0  0  0  0  0  0
    4.2647   -2.7062    0.4137 H   0  0  0  0  0  0  0  0  0  0  0  0
    4.5267   -3.8086   -0.9214 H   0  0  0  0  0  0  0  0  0  0  0  0
    5.7587   -0.1283   -1.1359 H   0  0  0  0  0  0  0  0  0  0  0  0
    7.3179   -0.6042   -0.4823 H   0  0  0  0  0  0  0  0  0  0  0  0
    6.6400   -2.8932   -0.2015 H   0  0  0  0  0  0  0  0  0  0  0  0
    6.3019   -2.3886   -1.8476 H   0  0  0  0  0  0  0  0  0  0  0  0
  1  2  1  0  0  0  0
  1  3  1  0  0  0  0
  1 31  1  0  0  0  0
  1 32  1  0  0  0  0
  2  4  1  0  0  0  0
  2 33  1  0  0  0  0
  2 34  1  0  0  0  0
  3  5  1  0  0  0  0
  3 35  1  0  0  0  0
  3 36  1  0  0  0  0
  4  6  1  0  0  0  0
  4 37  1  0  0  0  0
  4 38  1  0  0  0  0
  5  7  1  0  0  0  0
  5 39  1  0  0  0  0
  5 40  1  0  0  0  0
  6  8  1  0  0  0  0
  6 41  1  0  0  0  0
  6 42  1  0  0  0  0
  7  9  1  0  0  0  0
  7 43  1  0  0  0  0
  7 44  1  0  0  0  0
  8 10  1  0  0  0  0
  8 45  1  0  0  0  0
  8 46  1  0  0  0  0
  9 11  1  0  0  0  0
  9 47  1  0  0  0  0
  9 48  1  0  0  0  0
 10 12  1  0  0  0  0
 10 49  1  0  0  0  0
 10 50  1  0  0  0  0
 11 13  1  0  0  0  0
 11 51  1  0  0  0  0
 11 52  1  0  0  0  0
 12 14  1  0  0  0  0
 12 53  1  0  0  0  0
 12 54  1  0  0  0  0
 13 15  1  0  0  0  0
 13 55  1  0  0  0  0
 13 56  1  0  0  0  0
 14 16  1  0  0  0  0
 14 57  1  0  0  0  0
 14 58  1  0  0  0  0
 15 17  1  0  0  0  0
 15 59  1  0  0  0  0
 15 60  1  0  0  0  0
 16 18  1  0  0  0  0
 16 61  1  0  0  0  0
 16 62  1  0  0  0  0
 17 19  1  0  0  0  0
 17 63  1  0  0  0  0
 17 64  1  0  0  0  0
 18 20  1  0  0  0  0
 18 65  1  0  0  0  0
 18 66  1  0  0  0  0
 19 21  1  0  0  0  0
 19 67  1  0  0  0  0
 19 68  1  0  0  0  0
 20 22  1  0  0  0  0
 20 69  1  0  0  0  0
 20 70  1  0  0  0  0
 21 23  1  0  0  0  0
 21 71  1  0  0  0  0
 21 72  1  0  0  0  0
 22 24  1  0  0  0  0
 22 73  1  0  0  0  0
 22 74  1  0  0  0  0
 23 25  1  0  0  0  0
 23 75  1  0  0  0  0
 23 76  1  0  0  0  0
 24 26  1  0  0  0  0
 24 77  1  0  0  0  0
 24 78  1  0  0  0  0
 25 27  1  0  0  0  0
 25 79  1  0  0  0  0
 25 80  1  0  0  0  0
 26 28  1  0  0  0  0
 26 81  1  0  0  0  0
 26 82  1  0  0  0  0
 27 29  1  0  0  0  0
 27 83  1  0  0  0  0
 27 84  1  0  0  0  0
 28 30  1  0  0  0  0
 28 85  1  0  0  0  0
 28 86  1  0  0  0  0
 29 30  1  0  0  0  0
 29 87  1  0  0  0  0
 29 88  1  0  0  0  0
 30 89  1  0  0  0  0
 30 90  1  0  0  0  0
M  END
> <PUBCHEM_COMPOUND_CID>
78970

> <PUBCHEM_CONFORMER_RMSD>
0.8

> <PUBCHEM_CONFORMER_DIVERSEORDER>
1
96
2
93
26
71
52
15
51
6
24
38
37
94
22
55
82
14
4
109
42
36
90
77
99
111
58
103
34
32
59
35
23
69
64
73
12
85
81
41
91
16
88
39
17
70
54
79
20
74
102
10
28
78
68
72
98
65
107
31
18
45
5
50
110
100
56
104
21
44
75
30
89
80
108
43
95
87
9
46
60
19
48
47
92
62
106
84
97
8
66
33
67
40
7
76
61
53
25
83
63
3
13
105
49
57
101
29
11
86
27

> <PUBCHEM_MMFF94_PARTIAL_CHARGES>
0

> <PUBCHEM_EFFECTIVE_ROTOR_COUNT>
6

> <PUBCHEM_PHARMACOPHORE_FEATURES>
0

> <PUBCHEM_HEAVY_ATOM_COUNT>
30

> <PUBCHEM_ATOM_DEF_STEREO_COUNT>
0

> <PUBCHEM_ATOM_UDEF_STEREO_COUNT>
0

> <PUBCHEM_BOND_DEF_STEREO_COUNT>
0

> <PUBCHEM_BOND_UDEF_STEREO_COUNT>
0

> <PUBCHEM_ISOTOPIC_ATOM_COUNT>
0

> <PUBCHEM_COMPONENT_COUNT>
1

> <PUBCHEM_CACTVS_TAUTO_COUNT>
1

> <PUBCHEM_CONFORMER_ID>
0001347A00000001

> <PUBCHEM_MMFF94_ENERGY>
7.1698

> <PUBCHEM_FEATURE_SELFOVERLAP>
0

> <PUBCHEM_SHAPE_FINGERPRINT>
10049733 57 18411985749681679931
10653451 467 18339081492919640607
10864689 126 18122628253672961974
11170278 141 18043260230556487459
12422481 6 18266180706570206338
13561361 72 18335699455851621758
13751561 76 18202292368600867038
13947930 73 18262786381759061222
14017581 57 18131633392224759137
14040221 97 18338803446218732660
14040222 275 17844823490612245366
15968369 26 17469290687774559421
161222 619 18343581807092176207
373842 8 18342745108739468952
437795 51 18340484474083428548
437795 96 18410292527507947875
4435113 14 18260839240586007848
44426701 206 16917079823910708340
484989 97 18337959970439040742

> <PUBCHEM_SHAPE_MULTIPOLES>
617.39
18.01
6.21
1.98
3.59
1.34
0.22
-1.71
-6.35
0.35
0.6
-1.32
-0.53
5.46

> <PUBCHEM_SHAPE_SELFOVERLAP>
1140.997

> <PUBCHEM_SHAPE_VOLUME>
385.8

> <PUBCHEM_COORDINATE_TYPE>
2
5
10

$$$$
