73986
  -OEChem-11012401113D

 25 25  0     0  0  0  0  0  0999 V2000
    0.8582   -2.1297   -0.0011 O   0  0  0  0  0  0  0  0  0  0  0  0
    1.6407    0.5989    0.0005 C   0  0  0  0  0  0  0  0  0  0  0  0
    0.2056    0.1778   -0.0005 C   0  0  0  0  0  0  0  0  0  0  0  0
   -0.8077    1.1365   -0.0003 C   0  0  0  0  0  0  0  0  0  0  0  0
    2.3885    0.1295   -1.2600 C   0  0  0  0  0  0  0  0  0  0  0  0
    2.3875    0.1282    1.2610 C   0  0  0  0  0  0  0  0  0  0  0  0
   -0.1179   -1.1789   -0.0002 C   0  0  0  0  0  0  0  0  0  0  0  0
   -2.1445    0.7381    0.0001 C   0  0  0  0  0  0  0  0  0  0  0  0
   -0.4878    2.5954   -0.0001 C   0  0  0  0  0  0  0  0  0  0  0  0
   -1.4546   -1.5772    0.0003 C   0  0  0  0  0  0  0  0  0  0  0  0
   -2.4680   -0.6186    0.0003 C   0  0  0  0  0  0  0  0  0  0  0  0
    1.7370    1.6881    0.0011 H   0  0  0  0  0  0  0  0  0  0  0  0
    2.5281   -0.9541   -1.3026 H   0  0  0  0  0  0  0  0  0  0  0  0
    3.3867    0.5810   -1.2944 H   0  0  0  0  0  0  0  0  0  0  0  0
    1.8550    0.4370   -2.1665 H   0  0  0  0  0  0  0  0  0  0  0  0
    1.8531    0.4344    2.1673 H   0  0  0  0  0  0  0  0  0  0  0  0
    3.3855    0.5799    1.2969 H   0  0  0  0  0  0  0  0  0  0  0  0
    2.5274   -0.9554    1.3024 H   0  0  0  0  0  0  0  0  0  0  0  0
   -2.9467    1.4712    0.0002 H   0  0  0  0  0  0  0  0  0  0  0  0
    0.0740    2.8729   -0.8982 H   0  0  0  0  0  0  0  0  0  0  0  0
   -1.3993    3.2042   -0.0006 H   0  0  0  0  0  0  0  0  0  0  0  0
    0.0731    2.8728    0.8985 H   0  0  0  0  0  0  0  0  0  0  0  0
   -1.7213   -2.6307    0.0003 H   0  0  0  0  0  0  0  0  0  0  0  0
   -3.5089   -0.9288    0.0005 H   0  0  0  0  0  0  0  0  0  0  0  0
    0.4447   -3.0099   -0.0008 H   0  0  0  0  0  0  0  0  0  0  0  0
  1  7  1  0  0  0  0
  1 25  1  0  0  0  0
  2  3  1  0  0  0  0
  2  5  1  0  0  0  0
  2  6  1  0  0  0  0
  2 12  1  0  0  0  0
  3  4  2  0  0  0  0
  3  7  1  0  0  0  0
  4  8  1  0  0  0  0
  4  9  1  0  0  0  0
  5 13  1  0  0  0  0
  5 14  1  0  0  0  0
  5 15  1  0  0  0  0
  6 16  1  0  0  0  0
  6 17  1  0  0  0  0
  6 18  1  0  0  0  0
  7 10  2  0  0  0  0
  8 11  2  0  0  0  0
  8 19  1  0  0  0  0
  9 20  1  0  0  0  0
  9 21  1  0  0  0  0
  9 22  1  0  0  0  0
 10 11  1  0  0  0  0
 10 23  1  0  0  0  0
 11 24  1  0  0  0  0
M  END
> <PUBCHEM_COMPOUND_CID>
73986

> <PUBCHEM_CONFORMER_RMSD>
0.4

> <PUBCHEM_CONFORMER_DIVERSEORDER>
1
2

> <PUBCHEM_MMFF94_PARTIAL_CHARGES>
13
1 -0.53
10 -0.15
11 -0.15
19 0.15
2 0.14
23 0.15
24 0.15
25 0.45
3 -0.14
4 -0.14
7 0.08
8 -0.15
9 0.14

> <PUBCHEM_EFFECTIVE_ROTOR_COUNT>
1

> <PUBCHEM_PHARMACOPHORE_FEATURES>
3
1 1 donor
3 2 5 6 hydrophobe
6 3 4 7 8 10 11 rings

> <PUBCHEM_HEAVY_ATOM_COUNT>
11

> <PUBCHEM_ATOM_DEF_STEREO_COUNT>
0

> <PUBCHEM_ATOM_UDEF_STEREO_COUNT>
0

> <PUBCHEM_BOND_DEF_STEREO_COUNT>
0

> <PUBCHEM_BOND_UDEF_STEREO_COUNT>
0

> <PUBCHEM_ISOTOPIC_ATOM_COUNT>
0

> <PUBCHEM_COMPONENT_COUNT>
1

> <PUBCHEM_CACTVS_TAUTO_COUNT>
9

> <PUBCHEM_CONFORMER_ID>
0001210200000001

> <PUBCHEM_MMFF94_ENERGY>
31.0658

> <PUBCHEM_FEATURE_SELFOVERLAP>
15.223

> <PUBCHEM_SHAPE_FINGERPRINT>
10857977 72 18269548489311383505
12423570 1 9104011635824279858
12524768 44 18127131007281497436
16945 1 18410573985410043909
193761 8 17906171754904879111
20511035 2 17834950871861707343
21040471 1 18266458698291529345
22802520 49 18128000583766961990
23552423 10 18188495648781129143
23559900 14 18271535213346188524
241688 4 17975981955544034641
2748010 2 18122060072792381997
29004967 10 16343710953732580194
369184 2 18339346561089430480
4369600 1 18266186199959861436
5084963 1 18130237007444635900

> <PUBCHEM_SHAPE_MULTIPOLES>
220.51
3.26
2.14
0.9
0.46
0.51
0
-0.24
0
-0.57
0
0.71
0.01
0

> <PUBCHEM_SHAPE_SELFOVERLAP>
453.25

> <PUBCHEM_SHAPE_VOLUME>
128.6

> <PUBCHEM_COORDINATE_TYPE>
2
5
10

$$$$
