70910
  -OEChem-11012400423D

 36 35  0     1  0  0  0  0  0999 V2000
    0.7850   -0.9006   -1.0184 O   0  0  0  0  0  0  0  0  0  0  0  0
   -1.7031    0.6228    1.1794 O   0  0  0  0  0  0  0  0  0  0  0  0
   -3.8976   -1.5293   -0.6671 O   0  0  0  0  0  0  0  0  0  0  0  0
   -5.7270   -1.3946    0.6680 O   0  0  0  0  0  0  0  0  0  0  0  0
    2.2045    0.0005    1.6412 N   0  0  0  0  0  0  0  0  0  0  0  0
    0.3557    1.3000   -0.4154 N   0  0  0  0  0  0  0  0  0  0  0  0
   -3.2802    1.0027   -0.4851 N   0  0  0  0  0  0  0  0  0  0  0  0
    4.9301   -0.4972    0.3282 C   0  0  0  0  0  0  0  0  0  0  0  0
    3.5382   -0.6487   -0.3225 C   0  0  0  0  0  0  0  0  0  0  0  0
    2.4679    0.3050    0.2324 C   0  0  1  0  0  0  0  0  0  0  0  0
    5.9584   -1.4678   -0.2548 C   0  0  0  0  0  0  0  0  0  0  0  0
    5.4251    0.9419    0.1576 C   0  0  0  0  0  0  0  0  0  0  0  0
    1.1283    0.1498   -0.4789 C   0  0  0  0  0  0  0  0  0  0  0  0
   -0.9672    1.3922   -0.9894 C   0  0  0  0  0  0  0  0  0  0  0  0
   -1.9964    0.9771    0.0402 C   0  0  0  0  0  0  0  0  0  0  0  0
   -4.4514    0.6062    0.2635 C   0  0  0  0  0  0  0  0  0  0  0  0
   -4.7703   -0.8598    0.1212 C   0  0  0  0  0  0  0  0  0  0  0  0
    4.8601   -0.7144    1.4004 H   0  0  0  0  0  0  0  0  0  0  0  0
    3.6253   -0.4889   -1.4060 H   0  0  0  0  0  0  0  0  0  0  0  0
    3.2068   -1.6898   -0.2042 H   0  0  0  0  0  0  0  0  0  0  0  0
    2.7883    1.3464    0.1289 H   0  0  0  0  0  0  0  0  0  0  0  0
    5.6267   -2.5033   -0.1255 H   0  0  0  0  0  0  0  0  0  0  0  0
    6.9266   -1.3608    0.2454 H   0  0  0  0  0  0  0  0  0  0  0  0
    6.1068   -1.2913   -1.3256 H   0  0  0  0  0  0  0  0  0  0  0  0
    6.4640    1.0342    0.4940 H   0  0  0  0  0  0  0  0  0  0  0  0
    4.8416    1.6464    0.7573 H   0  0  0  0  0  0  0  0  0  0  0  0
    5.3852    1.2587   -0.8901 H   0  0  0  0  0  0  0  0  0  0  0  0
    3.0445    0.1639    2.1939 H   0  0  0  0  0  0  0  0  0  0  0  0
    1.5070    0.6499    2.0049 H   0  0  0  0  0  0  0  0  0  0  0  0
    0.7112    2.1117    0.0812 H   0  0  0  0  0  0  0  0  0  0  0  0
   -1.1384    2.4326   -1.2808 H   0  0  0  0  0  0  0  0  0  0  0  0
   -1.0393    0.7429   -1.8675 H   0  0  0  0  0  0  0  0  0  0  0  0
   -3.4131    1.2884   -1.4510 H   0  0  0  0  0  0  0  0  0  0  0  0
   -4.2920    0.8266    1.3231 H   0  0  0  0  0  0  0  0  0  0  0  0
   -5.2939    1.1868   -0.1220 H   0  0  0  0  0  0  0  0  0  0  0  0
   -4.1259   -2.4804   -0.7428 H   0  0  0  0  0  0  0  0  0  0  0  0
  1 13  2  0  0  0  0
  2 15  2  0  0  0  0
  3 17  1  0  0  0  0
  3 36  1  0  0  0  0
  4 17  2  0  0  0  0
  5 10  1  0  0  0  0
  5 28  1  0  0  0  0
  5 29  1  0  0  0  0
  6 13  1  0  0  0  0
  6 14  1  0  0  0  0
  6 30  1  0  0  0  0
  7 15  1  0  0  0  0
  7 16  1  0  0  0  0
  7 33  1  0  0  0  0
  8  9  1  0  0  0  0
  8 11  1  0  0  0  0
  8 12  1  0  0  0  0
  8 18  1  0  0  0  0
  9 10  1  0  0  0  0
  9 19  1  0  0  0  0
  9 20  1  0  0  0  0
 10 13  1  0  0  0  0
 10 21  1  0  0  0  0
 11 22  1  0  0  0  0
 11 23  1  0  0  0  0
 11 24  1  0  0  0  0
 12 25  1  0  0  0  0
 12 26  1  0  0  0  0
 12 27  1  0  0  0  0
 14 15  1  0  0  0  0
 14 31  1  0  0  0  0
 14 32  1  0  0  0  0
 16 17  1  0  0  0  0
 16 34  1  0  0  0  0
 16 35  1  0  0  0  0
M  END
> <PUBCHEM_COMPOUND_CID>
70910

> <PUBCHEM_CONFORMER_RMSD>
0.8

> <PUBCHEM_CONFORMER_DIVERSEORDER>
2
74
36
99
28
54
105
106
41
49
111
89
7
17
62
55
40
93
45
108
76
8
47
69
21
71
104
31
101
64
43
75
77
82
37
92
87
60
98
15
96
58
109
112
20
12
85
53
10
117
13
116
103
94
39
95
65
30
63
32
81
38
16
66
51
57
97
18
3
78
48
24
35
72
5
42
91
44
122
52
29
1
114
73
46
6
67
26
120
59
86
25
121
50
80
88
100
9
70
27
83
33
34
110
19
11
4
61
23
14
115
90
118
68
79
56
84
22
107
119
102
113

> <PUBCHEM_MMFF94_PARTIAL_CHARGES>
18
1 -0.57
10 0.33
13 0.57
14 0.36
15 0.57
16 0.36
17 0.66
2 -0.57
28 0.36
29 0.36
3 -0.65
30 0.37
33 0.37
36 0.5
4 -0.57
5 -0.99
6 -0.73
7 -0.73

> <PUBCHEM_EFFECTIVE_ROTOR_COUNT>
9

> <PUBCHEM_PHARMACOPHORE_FEATURES>
10
1 1 acceptor
1 2 acceptor
1 3 acceptor
1 4 acceptor
1 5 cation
1 5 donor
1 6 donor
1 7 donor
3 3 4 17 anion
3 8 11 12 hydrophobe

> <PUBCHEM_HEAVY_ATOM_COUNT>
17

> <PUBCHEM_ATOM_DEF_STEREO_COUNT>
1

> <PUBCHEM_ATOM_UDEF_STEREO_COUNT>
0

> <PUBCHEM_BOND_DEF_STEREO_COUNT>
0

> <PUBCHEM_BOND_UDEF_STEREO_COUNT>
0

> <PUBCHEM_ISOTOPIC_ATOM_COUNT>
0

> <PUBCHEM_COMPONENT_COUNT>
1

> <PUBCHEM_CACTVS_TAUTO_COUNT>
4

> <PUBCHEM_CONFORMER_ID>
000114FE00000002

> <PUBCHEM_MMFF94_ENERGY>
21.3991

> <PUBCHEM_FEATURE_SELFOVERLAP>
50.806

> <PUBCHEM_SHAPE_FINGERPRINT>
100836 57 11240001165603579839
10354089 29 14692573225430554966
11045977 3 17775278391705649419
11046707 91 18333448733890293461
11287383 113 18412543211120512664
12815109 37 17967249797663522485
13288520 33 18260831497234583269
13911882 115 18271818903561406678
1420 363 18413110554435120206
14251718 22 18259984885844383232
14251732 16 18411136978809068832
14341114 176 17917713508776560376
15183329 4 7925641011543665468
15295992 7 15554150580206584762
15880784 105 18410296899984901208
17834072 33 18408887360553959420
17959699 21 9367049074454366902
18222031 100 16950285092396721964
18785283 64 17915724578664032264
200 152 16660644033545802204
20281389 69 11312059837615326851
20621476 21 18410586092823326123
20621476 66 11455891377350296154
20645477 56 13398623936056267312
21054139 6 17313101973236713586
21150785 3 17386016083022943366
23035841 295 18408887312866162091
23402539 116 17458624488940796365
23559900 14 18338227263027993289
26918003 58 17989205928384518625
270888 7 10015046231221032395
2916195 48 9655282727233257982
351380 3 18187082871324479427
4072396 5 12107779740533321276
4325135 7 18260270785022622020
465052 167 18343586218535330774
474229 33 18412261735727324158
49783359 22 18343299266900259231
5104073 3 18059288748125753170
542803 24 11743832569422633880
57005193 9 15357696383743100144
57483677 66 18334856083025174402
7495541 125 18201995543432145432

> <PUBCHEM_SHAPE_MULTIPOLES>
311.43
14.11
1.49
1
1.71
0.17
-0.18
5.86
-1.32
-0.63
0.22
0.03
-0.02
0.39

> <PUBCHEM_SHAPE_SELFOVERLAP>
597.757

> <PUBCHEM_SHAPE_VOLUME>
189.2

> <PUBCHEM_COORDINATE_TYPE>
2
5
10

$$$$
