66078
  -OEChem-11012400583D

 27 28  0     1  0  0  0  0  0999 V2000
    1.2241    1.4216   -0.1987 N   0  0  0  0  0  0  0  0  0  0  0  0
    0.0111   -0.7346   -0.2704 C   0  0  2  0  0  0  0  0  0  0  0  0
    0.0252    0.7113    0.2637 C   0  0  2  0  0  0  0  0  0  0  0  0
   -1.2545   -1.4694    0.1878 C   0  0  0  0  0  0  0  0  0  0  0  0
    1.2774   -1.4773    0.1703 C   0  0  0  0  0  0  0  0  0  0  0  0
   -1.2328    1.4635   -0.1904 C   0  0  0  0  0  0  0  0  0  0  0  0
   -2.5155   -0.7174   -0.2345 C   0  0  0  0  0  0  0  0  0  0  0  0
   -2.5015    0.7313    0.2458 C   0  0  0  0  0  0  0  0  0  0  0  0
    2.5203   -0.6870   -0.2314 C   0  0  0  0  0  0  0  0  0  0  0  0
    2.4463    0.7580    0.2579 C   0  0  0  0  0  0  0  0  0  0  0  0
    0.0032   -0.7052   -1.3702 H   0  0  0  0  0  0  0  0  0  0  0  0
    0.0285    0.6943    1.3630 H   0  0  0  0  0  0  0  0  0  0  0  0
   -1.2484   -1.5824    1.2794 H   0  0  0  0  0  0  0  0  0  0  0  0
   -1.2760   -2.4799   -0.2370 H   0  0  0  0  0  0  0  0  0  0  0  0
    1.3114   -2.4748   -0.2827 H   0  0  0  0  0  0  0  0  0  0  0  0
    1.2722   -1.6182    1.2586 H   0  0  0  0  0  0  0  0  0  0  0  0
   -1.2363    1.5714   -1.2831 H   0  0  0  0  0  0  0  0  0  0  0  0
   -1.2412    2.4769    0.2295 H   0  0  0  0  0  0  0  0  0  0  0  0
   -3.3996   -1.2288    0.1628 H   0  0  0  0  0  0  0  0  0  0  0  0
   -2.6008   -0.7366   -1.3281 H   0  0  0  0  0  0  0  0  0  0  0  0
   -3.3814    1.2564   -0.1428 H   0  0  0  0  0  0  0  0  0  0  0  0
   -2.5751    0.7522    1.3402 H   0  0  0  0  0  0  0  0  0  0  0  0
    3.4143   -1.1714    0.1773 H   0  0  0  0  0  0  0  0  0  0  0  0
    2.6216   -0.6994   -1.3241 H   0  0  0  0  0  0  0  0  0  0  0  0
    1.2102    2.3791    0.1519 H   0  0  0  0  0  0  0  0  0  0  0  0
    2.5047    0.7900    1.3527 H   0  0  0  0  0  0  0  0  0  0  0  0
    3.3119    1.3100   -0.1241 H   0  0  0  0  0  0  0  0  0  0  0  0
  1  3  1  0  0  0  0
  1 10  1  0  0  0  0
  1 25  1  0  0  0  0
  2  3  1  0  0  0  0
  2  4  1  0  0  0  0
  2  5  1  0  0  0  0
  2 11  1  0  0  0  0
  3  6  1  0  0  0  0
  3 12  1  0  0  0  0
  4  7  1  0  0  0  0
  4 13  1  0  0  0  0
  4 14  1  0  0  0  0
  5  9  1  0  0  0  0
  5 15  1  0  0  0  0
  5 16  1  0  0  0  0
  6  8  1  0  0  0  0
  6 17  1  0  0  0  0
  6 18  1  0  0  0  0
  7  8  1  0  0  0  0
  7 19  1  0  0  0  0
  7 20  1  0  0  0  0
  8 21  1  0  0  0  0
  8 22  1  0  0  0  0
  9 10  1  0  0  0  0
  9 23  1  0  0  0  0
  9 24  1  0  0  0  0
 10 26  1  0  0  0  0
 10 27  1  0  0  0  0
M  END
> <PUBCHEM_COMPOUND_CID>
66078

> <PUBCHEM_CONFORMER_RMSD>
0.4

> <PUBCHEM_CONFORMER_DIVERSEORDER>
1

> <PUBCHEM_MMFF94_PARTIAL_CHARGES>
4
1 -0.9
10 0.27
25 0.36
3 0.27

> <PUBCHEM_EFFECTIVE_ROTOR_COUNT>
1.6

> <PUBCHEM_PHARMACOPHORE_FEATURES>
4
1 1 cation
1 1 donor
6 1 2 3 5 9 10 rings
6 2 3 4 6 7 8 rings

> <PUBCHEM_HEAVY_ATOM_COUNT>
10

> <PUBCHEM_ATOM_DEF_STEREO_COUNT>
2

> <PUBCHEM_ATOM_UDEF_STEREO_COUNT>
0

> <PUBCHEM_BOND_DEF_STEREO_COUNT>
0

> <PUBCHEM_BOND_UDEF_STEREO_COUNT>
0

> <PUBCHEM_ISOTOPIC_ATOM_COUNT>
0

> <PUBCHEM_COMPONENT_COUNT>
1

> <PUBCHEM_CACTVS_TAUTO_COUNT>
1

> <PUBCHEM_CONFORMER_ID>
0001021E00000001

> <PUBCHEM_MMFF94_ENERGY>
-0.4488

> <PUBCHEM_FEATURE_SELFOVERLAP>
20.317

> <PUBCHEM_SHAPE_FINGERPRINT>
10857977 72 18338507633696344931
12524768 44 18341053995320903767
12897270 3 18410009952887422335
14128692 85 18342178860098183142
14325111 11 18411699889358802169
15775835 57 18410301276208441773
16945 1 18408603656030078243
17844478 74 18113913649540001329
18185500 45 18267582592543564367
193761 8 15456776279640078311
19973954 147 18410858775842914309
20201158 50 18411697673160932735
21040471 1 18410293571163622344
23235685 24 18411132532763595457
23402655 69 18269259189600949429
23552423 10 18334015024900866686
241688 4 18336546027627345320
2748010 2 18122907787334997471
29004967 10 18334298698916644266
369184 2 18412261722768198739
5084963 1 18343582936409942849
528886 8 18411132549964414387
66348 1 18410292475825616599

> <PUBCHEM_SHAPE_MULTIPOLES>
200.81
3.76
1.75
0.66
0.12
0.02
0
-0.03
0
-0.05
-0.01
-0.01
0.01
0.01

> <PUBCHEM_SHAPE_SELFOVERLAP>
401.958

> <PUBCHEM_SHAPE_VOLUME>
114.8

> <PUBCHEM_COORDINATE_TYPE>
2
5
10

$$$$
