144897
  -OEChem-11012401123D

 24 23  0     0  0  0  0  0  0999 V2000
    1.7693    0.2940   -0.7353 O   0  0  0  0  0  0  0  0  0  0  0  0
    1.5315   -0.4137    1.4507 O   0  0  0  0  0  0  0  0  0  0  0  0
   -1.4201    0.3042    0.0087 C   0  0  0  0  0  0  0  0  0  0  0  0
   -1.1987    1.6040   -0.7991 C   0  0  0  0  0  0  0  0  0  0  0  0
   -2.7198   -0.3407   -0.5180 C   0  0  0  0  0  0  0  0  0  0  0  0
   -1.6148    0.7023    1.4847 C   0  0  0  0  0  0  0  0  0  0  0  0
   -0.2543   -0.6789   -0.1228 C   0  0  0  0  0  0  0  0  0  0  0  0
    1.0997   -0.2468    0.3200 C   0  0  0  0  0  0  0  0  0  0  0  0
   -0.3078   -1.9248   -0.6227 C   0  0  0  0  0  0  0  0  0  0  0  0
    3.1150    0.7004   -0.4663 C   0  0  0  0  0  0  0  0  0  0  0  0
   -0.3289    2.1613   -0.4336 H   0  0  0  0  0  0  0  0  0  0  0  0
   -1.0297    1.3836   -1.8595 H   0  0  0  0  0  0  0  0  0  0  0  0
   -2.0667    2.2699   -0.7299 H   0  0  0  0  0  0  0  0  0  0  0  0
   -3.5644    0.3523   -0.4180 H   0  0  0  0  0  0  0  0  0  0  0  0
   -2.9869   -1.2414    0.0474 H   0  0  0  0  0  0  0  0  0  0  0  0
   -2.6479   -0.6009   -1.5806 H   0  0  0  0  0  0  0  0  0  0  0  0
   -1.7698   -0.1810    2.1151 H   0  0  0  0  0  0  0  0  0  0  0  0
   -2.4894    1.3519    1.6071 H   0  0  0  0  0  0  0  0  0  0  0  0
   -0.7481    1.2455    1.8783 H   0  0  0  0  0  0  0  0  0  0  0  0
   -1.2200   -2.3771   -0.9915 H   0  0  0  0  0  0  0  0  0  0  0  0
    0.5824   -2.5455   -0.6786 H   0  0  0  0  0  0  0  0  0  0  0  0
    3.7165   -0.1605   -0.1597 H   0  0  0  0  0  0  0  0  0  0  0  0
    3.1287    1.4766    0.3049 H   0  0  0  0  0  0  0  0  0  0  0  0
    3.5360    1.1130   -1.3871 H   0  0  0  0  0  0  0  0  0  0  0  0
  1  8  1  0  0  0  0
  1 10  1  0  0  0  0
  2  8  2  0  0  0  0
  3  4  1  0  0  0  0
  3  5  1  0  0  0  0
  3  6  1  0  0  0  0
  3  7  1  0  0  0  0
  4 11  1  0  0  0  0
  4 12  1  0  0  0  0
  4 13  1  0  0  0  0
  5 14  1  0  0  0  0
  5 15  1  0  0  0  0
  5 16  1  0  0  0  0
  6 17  1  0  0  0  0
  6 18  1  0  0  0  0
  6 19  1  0  0  0  0
  7  8  1  0  0  0  0
  7  9  2  0  0  0  0
  9 20  1  0  0  0  0
  9 21  1  0  0  0  0
 10 22  1  0  0  0  0
 10 23  1  0  0  0  0
 10 24  1  0  0  0  0
M  END
> <PUBCHEM_COMPOUND_CID>
144897

> <PUBCHEM_CONFORMER_RMSD>
0.6

> <PUBCHEM_CONFORMER_DIVERSEORDER>
1
6
7
2
4
5
3

> <PUBCHEM_MMFF94_PARTIAL_CHARGES>
9
1 -0.43
10 0.28
2 -0.57
20 0.15
21 0.15
3 0.14
7 -0.12
8 0.71
9 -0.3

> <PUBCHEM_EFFECTIVE_ROTOR_COUNT>
3

> <PUBCHEM_PHARMACOPHORE_FEATURES>
3
1 2 acceptor
1 9 hydrophobe
4 3 4 5 6 hydrophobe

> <PUBCHEM_HEAVY_ATOM_COUNT>
10

> <PUBCHEM_ATOM_DEF_STEREO_COUNT>
0

> <PUBCHEM_ATOM_UDEF_STEREO_COUNT>
0

> <PUBCHEM_BOND_DEF_STEREO_COUNT>
0

> <PUBCHEM_BOND_UDEF_STEREO_COUNT>
0

> <PUBCHEM_ISOTOPIC_ATOM_COUNT>
0

> <PUBCHEM_COMPONENT_COUNT>
1

> <PUBCHEM_CACTVS_TAUTO_COUNT>
1

> <PUBCHEM_CONFORMER_ID>
0002360100000001

> <PUBCHEM_MMFF94_ENERGY>
26.4358

> <PUBCHEM_FEATURE_SELFOVERLAP>
15.224

> <PUBCHEM_SHAPE_FINGERPRINT>
12423570 1 14475803412824379467
13024252 1 16153706586829941551
14128692 85 18052817245864940911
15775835 57 18335140890590655580
16945 1 18201143443131613807
21040471 1 18272360949734502403
21922407 69 17676200260549547475
23235685 24 18202568371219419145
23552423 10 18197498415867082135
29004967 10 15213300820027814756
369184 2 12035724357543421996
5084963 1 18270111310305204311

> <PUBCHEM_SHAPE_MULTIPOLES>
194.06
3.6
1.47
1.2
1.79
0.39
-0.41
-0.85
0.48
-0.39
0.33
-0.08
-0.24
-0.29

> <PUBCHEM_SHAPE_SELFOVERLAP>
369.442

> <PUBCHEM_SHAPE_VOLUME>
121.9

> <PUBCHEM_COORDINATE_TYPE>
2
5
10

$$$$
