140905
  -OEChem-11012401213D

 20 21  0     1  0  0  0  0  0999 V2000
   -0.4933    0.0004   -1.2911 O   0  0  0  0  0  0  0  0  0  0  0  0
   -0.3832   -1.1337   -0.4130 C   0  0  2  0  0  0  0  0  0  0  0  0
   -0.3824    1.1342   -0.4126 C   0  0  1  0  0  0  0  0  0  0  0  0
   -1.2818   -0.7616    0.7608 C   0  0  0  0  0  0  0  0  0  0  0  0
   -1.2809    0.7623    0.7613 C   0  0  0  0  0  0  0  0  0  0  0  0
    1.0950   -1.2692   -0.0259 C   0  0  0  0  0  0  0  0  0  0  0  0
    1.0963    1.2683   -0.0261 C   0  0  0  0  0  0  0  0  0  0  0  0
    1.6303   -0.0006    0.6468 C   0  0  0  0  0  0  0  0  0  0  0  0
   -0.7290   -2.0338   -0.9302 H   0  0  0  0  0  0  0  0  0  0  0  0
   -0.7276    2.0347   -0.9295 H   0  0  0  0  0  0  0  0  0  0  0  0
   -0.9506   -1.1933    1.7102 H   0  0  0  0  0  0  0  0  0  0  0  0
   -2.3024   -1.1182    0.5781 H   0  0  0  0  0  0  0  0  0  0  0  0
   -2.3012    1.1203    0.5793 H   0  0  0  0  0  0  0  0  0  0  0  0
   -0.9489    1.1930    1.7109 H   0  0  0  0  0  0  0  0  0  0  0  0
    1.6796   -1.4422   -0.9383 H   0  0  0  0  0  0  0  0  0  0  0  0
    1.2463   -2.1328    0.6310 H   0  0  0  0  0  0  0  0  0  0  0  0
    1.2486    2.1318    0.6305 H   0  0  0  0  0  0  0  0  0  0  0  0
    1.6807    1.4404   -0.9388 H   0  0  0  0  0  0  0  0  0  0  0  0
    1.3293   -0.0004    1.7018 H   0  0  0  0  0  0  0  0  0  0  0  0
    2.7261   -0.0012    0.6412 H   0  0  0  0  0  0  0  0  0  0  0  0
  1  2  1  0  0  0  0
  1  3  1  0  0  0  0
  2  4  1  0  0  0  0
  2  6  1  0  0  0  0
  2  9  1  0  0  0  0
  3  5  1  0  0  0  0
  3  7  1  0  0  0  0
  3 10  1  0  0  0  0
  4  5  1  0  0  0  0
  4 11  1  0  0  0  0
  4 12  1  0  0  0  0
  5 13  1  0  0  0  0
  5 14  1  0  0  0  0
  6  8  1  0  0  0  0
  6 15  1  0  0  0  0
  6 16  1  0  0  0  0
  7  8  1  0  0  0  0
  7 17  1  0  0  0  0
  7 18  1  0  0  0  0
  8 19  1  0  0  0  0
  8 20  1  0  0  0  0
M  END
> <PUBCHEM_COMPOUND_CID>
140905

> <PUBCHEM_CONFORMER_RMSD>
0.4

> <PUBCHEM_CONFORMER_DIVERSEORDER>
1

> <PUBCHEM_MMFF94_PARTIAL_CHARGES>
3
1 -0.56
2 0.28
3 0.28

> <PUBCHEM_EFFECTIVE_ROTOR_COUNT>
1.2

> <PUBCHEM_PHARMACOPHORE_FEATURES>
2
1 1 acceptor
8 1 2 3 4 5 6 7 8 rings

> <PUBCHEM_HEAVY_ATOM_COUNT>
8

> <PUBCHEM_ATOM_DEF_STEREO_COUNT>
0

> <PUBCHEM_ATOM_UDEF_STEREO_COUNT>
2

> <PUBCHEM_BOND_DEF_STEREO_COUNT>
0

> <PUBCHEM_BOND_UDEF_STEREO_COUNT>
0

> <PUBCHEM_ISOTOPIC_ATOM_COUNT>
0

> <PUBCHEM_COMPONENT_COUNT>
1

> <PUBCHEM_CACTVS_TAUTO_COUNT>
1

> <PUBCHEM_CONFORMER_ID>
0002266900000001

> <PUBCHEM_MMFF94_ENERGY>
16.7541

> <PUBCHEM_FEATURE_SELFOVERLAP>
10.148

> <PUBCHEM_SHAPE_FINGERPRINT>
12423570 1 14462383083185962997
13024252 1 15286461155756877832
137420 1 15674908408796827143
16945 1 18410582781318320067
18185500 45 17547005690133737266
21040471 1 18343027665863451441
29004967 10 16663446877673996753
5084963 1 17632034016580555075
5943 1 15876468290451034941

> <PUBCHEM_SHAPE_MULTIPOLES>
158.77
1.75
1.51
1.01
0.24
0
0.1
0
-0.48
0.13
0.06
-0.16
0
0

> <PUBCHEM_SHAPE_SELFOVERLAP>
328.18

> <PUBCHEM_SHAPE_VOLUME>
92.9

> <PUBCHEM_COORDINATE_TYPE>
2
5
10

$$$$
