2747763
  -OEChem-11012400563D

 28 28  0     0  0  0  0  0  0999 V2000
   -1.1327   -1.7725   -0.2405 O   0  0  0  0  0  0  0  0  0  0  0  0
   -3.1563    0.0301    0.2935 O   0  0  0  0  0  0  0  0  0  0  0  0
    2.0661   -1.4828    0.7136 O   0  0  0  0  0  0  0  0  0  0  0  0
    1.9362   -1.2515   -1.5730 O   0  0  0  0  0  0  0  0  0  0  0  0
    2.4277    3.0361    0.0989 O   0  0  0  0  0  0  0  0  0  0  0  0
    0.4808   -0.0049   -0.1544 C   0  0  0  0  0  0  0  0  0  0  0  0
   -0.8374   -0.4520   -0.0658 C   0  0  0  0  0  0  0  0  0  0  0  0
    0.7724    1.3471    0.0272 C   0  0  0  0  0  0  0  0  0  0  0  0
   -1.8641    0.4527    0.2043 C   0  0  0  0  0  0  0  0  0  0  0  0
   -0.2544    2.2518    0.2973 C   0  0  0  0  0  0  0  0  0  0  0  0
   -1.5726    1.8047    0.3857 C   0  0  0  0  0  0  0  0  0  0  0  0
    1.5492   -0.9583   -0.4373 C   0  0  0  0  0  0  0  0  0  0  0  0
    2.1383    1.8484   -0.0571 C   0  0  0  0  0  0  0  0  0  0  0  0
   -1.7572   -2.4446    0.8503 C   0  0  0  0  0  0  0  0  0  0  0  0
   -3.9222    0.0291   -0.9096 C   0  0  0  0  0  0  0  0  0  0  0  0
    3.1262   -2.4336    0.5668 C   0  0  0  0  0  0  0  0  0  0  0  0
   -0.0547    3.3102    0.4433 H   0  0  0  0  0  0  0  0  0  0  0  0
   -2.3675    2.5149    0.5972 H   0  0  0  0  0  0  0  0  0  0  0  0
    2.9410    1.1254   -0.2716 H   0  0  0  0  0  0  0  0  0  0  0  0
   -2.8394   -2.4823    0.6978 H   0  0  0  0  0  0  0  0  0  0  0  0
   -1.5233   -1.9796    1.8145 H   0  0  0  0  0  0  0  0  0  0  0  0
   -1.3835   -3.4727    0.8698 H   0  0  0  0  0  0  0  0  0  0  0  0
   -3.4650   -0.6260   -1.6579 H   0  0  0  0  0  0  0  0  0  0  0  0
   -4.0144    1.0454   -1.3057 H   0  0  0  0  0  0  0  0  0  0  0  0
   -4.9220   -0.3486   -0.6787 H   0  0  0  0  0  0  0  0  0  0  0  0
    3.9827   -1.9694    0.0689 H   0  0  0  0  0  0  0  0  0  0  0  0
    2.7764   -3.3040    0.0038 H   0  0  0  0  0  0  0  0  0  0  0  0
    3.4324   -2.7590    1.5645 H   0  0  0  0  0  0  0  0  0  0  0  0
  1  7  1  0  0  0  0
  1 14  1  0  0  0  0
  2  9  1  0  0  0  0
  2 15  1  0  0  0  0
  3 12  1  0  0  0  0
  3 16  1  0  0  0  0
  4 12  2  0  0  0  0
  5 13  2  0  0  0  0
  6  7  1  0  0  0  0
  6  8  2  0  0  0  0
  6 12  1  0  0  0  0
  7  9  2  0  0  0  0
  8 10  1  0  0  0  0
  8 13  1  0  0  0  0
  9 11  1  0  0  0  0
 10 11  2  0  0  0  0
 10 17  1  0  0  0  0
 11 18  1  0  0  0  0
 13 19  1  0  0  0  0
 14 20  1  0  0  0  0
 14 21  1  0  0  0  0
 14 22  1  0  0  0  0
 15 23  1  0  0  0  0
 15 24  1  0  0  0  0
 15 25  1  0  0  0  0
 16 26  1  0  0  0  0
 16 27  1  0  0  0  0
 16 28  1  0  0  0  0
M  END
> <PUBCHEM_COMPOUND_CID>
2747763

> <PUBCHEM_CONFORMER_RMSD>
0.6

> <PUBCHEM_CONFORMER_DIVERSEORDER>
2
17
21
8
14
10
18
7
20
6
4
19
9
15
16
5
13
12
11
3
1

> <PUBCHEM_MMFF94_PARTIAL_CHARGES>
19
1 -0.36
10 -0.15
11 -0.15
12 0.63
13 0.42
14 0.28
15 0.28
16 0.28
17 0.15
18 0.15
19 0.06
2 -0.36
3 -0.43
4 -0.57
5 -0.57
6 0.09
7 0.08
8 0.09
9 0.08

> <PUBCHEM_EFFECTIVE_ROTOR_COUNT>
5

> <PUBCHEM_PHARMACOPHORE_FEATURES>
5
1 1 acceptor
1 2 acceptor
1 4 acceptor
1 5 acceptor
6 6 7 8 9 10 11 rings

> <PUBCHEM_HEAVY_ATOM_COUNT>
16

> <PUBCHEM_ATOM_DEF_STEREO_COUNT>
0

> <PUBCHEM_ATOM_UDEF_STEREO_COUNT>
0

> <PUBCHEM_BOND_DEF_STEREO_COUNT>
0

> <PUBCHEM_BOND_UDEF_STEREO_COUNT>
0

> <PUBCHEM_ISOTOPIC_ATOM_COUNT>
0

> <PUBCHEM_COMPONENT_COUNT>
1

> <PUBCHEM_CACTVS_TAUTO_COUNT>
1

> <PUBCHEM_CONFORMER_ID>
0029ED7300000002

> <PUBCHEM_MMFF94_ENERGY>
69.914

> <PUBCHEM_FEATURE_SELFOVERLAP>
25.378

> <PUBCHEM_SHAPE_FINGERPRINT>
10967382 1 18411138086203840449
11578080 2 17314492765609980044
11680986 33 18408887377295952803
12138202 97 18044363058061831205
12423570 1 10015300152979530999
12524768 44 18342468057637075615
13140716 1 18338524147914299890
13380535 21 18265347281314920345
13380535 76 18267860764801220133
14181834 199 18410289220235287933
14617773 55 17774731874598270241
15490181 7 17480009130917533016
16945 1 18410302384304580025
18186145 218 18335137566850230789
193761 8 18410578430453178096
20588541 1 18266740371301219157
20645477 70 18342453755934063439
21029758 11 18267576918918094592
21501502 16 18269269226490957855
21650355 55 17975682893151169634
22344851 341 18195258921171168488
2334 1 18123476247794762942
23402539 116 18053929667837601254
23419403 2 17624085548287133208
23559900 14 18411411792043713650
2748010 2 18196103358738301959
43471831 8 18120651598586968760
7364860 26 18342175583402288960
81228 2 17910967837283286856

> <PUBCHEM_SHAPE_MULTIPOLES>
299.93
4.76
3.21
0.9
1.68
0.66
0.18
-1.39
0.41
-2.02
-0.66
-0.05
-0.32
-0.03

> <PUBCHEM_SHAPE_SELFOVERLAP>
625.575

> <PUBCHEM_SHAPE_VOLUME>
171.7

> <PUBCHEM_COORDINATE_TYPE>
2
5
10

$$$$
