5375013
  -OEChem-11012401093D

 24 25  0     0  0  0  0  0  0999 V2000
    1.7992    0.6393    0.4099 O   0  0  0  0  0  0  0  0  0  0  0  0
   -0.0946   -0.4427   -0.5296 N   0  0  0  0  0  0  0  0  0  0  0  0
    0.3660   -1.6779   -0.2690 N   0  0  0  0  0  0  0  0  0  0  0  0
   -1.4383   -0.1092   -0.2600 C   0  0  0  0  0  0  0  0  0  0  0  0
   -1.9059    1.1762   -0.5333 C   0  0  0  0  0  0  0  0  0  0  0  0
   -2.2996   -1.0648    0.2790 C   0  0  0  0  0  0  0  0  0  0  0  0
    2.4314   -0.4999    0.0766 C   0  0  0  0  0  0  0  0  0  0  0  0
   -3.2350    1.5061   -0.2676 C   0  0  0  0  0  0  0  0  0  0  0  0
   -3.6286   -0.7350    0.5447 C   0  0  0  0  0  0  0  0  0  0  0  0
   -4.0963    0.5505    0.2715 C   0  0  0  0  0  0  0  0  0  0  0  0
    3.7518   -0.3124   -0.1668 C   0  0  0  0  0  0  0  0  0  0  0  0
    1.6241   -1.7075    0.0330 C   0  0  0  0  0  0  0  0  0  0  0  0
    3.9721    1.0715    0.0311 C   0  0  0  0  0  0  0  0  0  0  0  0
    2.7538    1.6060    0.3805 C   0  0  0  0  0  0  0  0  0  0  0  0
   -1.2444    1.9299   -0.9527 H   0  0  0  0  0  0  0  0  0  0  0  0
   -1.9700   -2.0754    0.5045 H   0  0  0  0  0  0  0  0  0  0  0  0
    0.4741    0.2571   -0.9921 H   0  0  0  0  0  0  0  0  0  0  0  0
   -3.5991    2.5070   -0.4801 H   0  0  0  0  0  0  0  0  0  0  0  0
   -4.2998   -1.4786    0.9645 H   0  0  0  0  0  0  0  0  0  0  0  0
   -5.1310    0.8073    0.4785 H   0  0  0  0  0  0  0  0  0  0  0  0
    4.4789   -1.0595   -0.4509 H   0  0  0  0  0  0  0  0  0  0  0  0
    2.1190   -2.6770    0.2045 H   0  0  0  0  0  0  0  0  0  0  0  0
    4.9022    1.6120   -0.0686 H   0  0  0  0  0  0  0  0  0  0  0  0
    2.4171    2.6025    0.6263 H   0  0  0  0  0  0  0  0  0  0  0  0
  1  7  1  0  0  0  0
  1 14  1  0  0  0  0
  2  3  1  0  0  0  0
  2  4  1  0  0  0  0
  2 17  1  0  0  0  0
  3 12  2  0  0  0  0
  4  5  2  0  0  0  0
  4  6  1  0  0  0  0
  5  8  1  0  0  0  0
  5 15  1  0  0  0  0
  6  9  2  0  0  0  0
  6 16  1  0  0  0  0
  7 11  2  0  0  0  0
  7 12  1  0  0  0  0
  8 10  2  0  0  0  0
  8 18  1  0  0  0  0
  9 10  1  0  0  0  0
  9 19  1  0  0  0  0
 10 20  1  0  0  0  0
 11 13  1  0  0  0  0
 11 21  1  0  0  0  0
 12 22  1  0  0  0  0
 13 14  2  0  0  0  0
 13 23  1  0  0  0  0
 14 24  1  0  0  0  0
M  END
> <PUBCHEM_COMPOUND_CID>
5375013

> <PUBCHEM_CONFORMER_RMSD>
0.6

> <PUBCHEM_CONFORMER_DIVERSEORDER>
1
8
6
7
2
5
3
4

> <PUBCHEM_MMFF94_PARTIAL_CHARGES>
24
1 -0.28
10 -0.15
11 -0.15
12 0.47
13 -0.15
14 -0.01
15 0.15
16 0.15
17 0.4
18 0.15
19 0.15
2 -0.46
20 0.15
21 0.15
22 0.06
23 0.15
24 0.15
3 -0.49
4 0.1
5 -0.15
6 -0.15
7 0.05
8 -0.15
9 -0.15

> <PUBCHEM_EFFECTIVE_ROTOR_COUNT>
3

> <PUBCHEM_PHARMACOPHORE_FEATURES>
5
1 1 acceptor
1 2 donor
1 3 acceptor
5 1 7 11 13 14 rings
6 4 5 6 8 9 10 rings

> <PUBCHEM_HEAVY_ATOM_COUNT>
14

> <PUBCHEM_ATOM_DEF_STEREO_COUNT>
0

> <PUBCHEM_ATOM_UDEF_STEREO_COUNT>
0

> <PUBCHEM_BOND_DEF_STEREO_COUNT>
1

> <PUBCHEM_BOND_UDEF_STEREO_COUNT>
0

> <PUBCHEM_ISOTOPIC_ATOM_COUNT>
0

> <PUBCHEM_COMPONENT_COUNT>
1

> <PUBCHEM_CACTVS_TAUTO_COUNT>
1

> <PUBCHEM_CONFORMER_ID>
0052042500000001

> <PUBCHEM_MMFF94_ENERGY>
44.9364

> <PUBCHEM_FEATURE_SELFOVERLAP>
25.375

> <PUBCHEM_SHAPE_FINGERPRINT>
10608611 8 18337106765904711133
10980938 120 18341891874863216802
11132069 177 18260264174535157605
11471102 20 18343018870107850886
11615757 297 17917996074732830587
12251169 10 18040999565697557573
13081056 2 18412829096453623316
13214271 11 18335420192714587871
13705890 14 9583516516830274086
14026960 21 18263931101521888213
14325111 11 18411135848631133892
14415576 193 18410578379193229916
15196674 1 18410855464486614520
15219456 202 18410013195830466759
15775835 57 18272370901300081020
17802600 8 18411412916866072712
18186145 218 17846502564651565256
200 152 18130777980662229695
20528008 55 18334855000788192471
20645477 70 18129943373257664518
21524375 3 18341610451489664126
21652331 79 18410012147837529381
22485316 2 8718826479033029396
22854114 111 18411697682003808554
22854114 59 18411138051875549281
23402539 116 18261105323033211071
23402655 69 18131634491256006820
23559900 14 18194396697659776027
25 1 18342174462505352558
449060 50 18409452475160140493
4990 188 17989216944928063054
5104073 3 18408324354612775443
7364860 26 18267585693579095550
77779 3 18409451379521454360
81228 2 17550927622451597374
9882013 296 17894350007561917325

> <PUBCHEM_SHAPE_MULTIPOLES>
272.28
8.14
1.75
0.71
0.07
0.03
0
-2.24
0.78
-0.25
-0.01
0.12
-0.03
0.48

> <PUBCHEM_SHAPE_SELFOVERLAP>
586.324

> <PUBCHEM_SHAPE_VOLUME>
150.2

> <PUBCHEM_COORDINATE_TYPE>
2
5
10

$$$$
