223569
  -OEChem-11012401063D

 34 35  0     0  0  0  0  0  0999 V2000
    0.0017   -0.9711   -0.3398 C   0  0  0  0  0  0  0  0  0  0  0  0
   -0.1214   -2.2014    0.6309 C   0  0  0  0  0  0  0  0  0  0  0  0
   -1.1930   -0.0238   -0.0767 C   0  0  0  0  0  0  0  0  0  0  0  0
    1.3324   -0.1877   -0.1511 C   0  0  0  0  0  0  0  0  0  0  0  0
    0.0494   -1.5354   -1.7883 C   0  0  0  0  0  0  0  0  0  0  0  0
   -1.4030   -3.0269    0.5133 C   0  0  0  0  0  0  0  0  0  0  0  0
   -1.2923    0.5564    1.1581 C   0  0  0  0  0  0  0  0  0  0  0  0
    1.5488    0.8952   -0.9516 C   0  0  0  0  0  0  0  0  0  0  0  0
   -2.0851    0.1815   -1.0931 C   0  0  0  0  0  0  0  0  0  0  0  0
    2.1997   -0.6329    0.8027 C   0  0  0  0  0  0  0  0  0  0  0  0
   -2.3696    1.4101    1.3954 C   0  0  0  0  0  0  0  0  0  0  0  0
    2.7421    1.5974   -0.7829 C   0  0  0  0  0  0  0  0  0  0  0  0
   -3.1624    1.0354   -0.8558 C   0  0  0  0  0  0  0  0  0  0  0  0
    3.3931    0.0692    0.9716 C   0  0  0  0  0  0  0  0  0  0  0  0
   -3.3046    1.6495    0.3885 C   0  0  0  0  0  0  0  0  0  0  0  0
    3.6642    1.1845    0.1787 C   0  0  0  0  0  0  0  0  0  0  0  0
    0.7126   -2.8955    0.4579 H   0  0  0  0  0  0  0  0  0  0  0  0
   -0.0556   -1.8835    1.6796 H   0  0  0  0  0  0  0  0  0  0  0  0
   -0.8328   -2.1335   -2.0391 H   0  0  0  0  0  0  0  0  0  0  0  0
    0.1338   -0.7585   -2.5571 H   0  0  0  0  0  0  0  0  0  0  0  0
    0.9199   -2.1922   -1.9159 H   0  0  0  0  0  0  0  0  0  0  0  0
   -1.3899   -3.8307    1.2576 H   0  0  0  0  0  0  0  0  0  0  0  0
   -1.4965   -3.4995   -0.4678 H   0  0  0  0  0  0  0  0  0  0  0  0
   -2.2973   -2.4259    0.6993 H   0  0  0  0  0  0  0  0  0  0  0  0
   -0.5737    0.3845    1.9521 H   0  0  0  0  0  0  0  0  0  0  0  0
    0.8410    1.2373   -1.6984 H   0  0  0  0  0  0  0  0  0  0  0  0
   -2.0228   -0.2692   -2.0747 H   0  0  0  0  0  0  0  0  0  0  0  0
    2.0486   -1.4878    1.4470 H   0  0  0  0  0  0  0  0  0  0  0  0
   -2.4801    1.8890    2.3639 H   0  0  0  0  0  0  0  0  0  0  0  0
    2.9525    2.4670   -1.3986 H   0  0  0  0  0  0  0  0  0  0  0  0
   -3.8911    1.2223   -1.6393 H   0  0  0  0  0  0  0  0  0  0  0  0
    4.1118   -0.2514    1.7203 H   0  0  0  0  0  0  0  0  0  0  0  0
   -4.1433    2.3143    0.5732 H   0  0  0  0  0  0  0  0  0  0  0  0
    4.5931    1.7315    0.3107 H   0  0  0  0  0  0  0  0  0  0  0  0
  1  2  1  0  0  0  0
  1  3  1  0  0  0  0
  1  4  1  0  0  0  0
  1  5  1  0  0  0  0
  2  6  1  0  0  0  0
  2 17  1  0  0  0  0
  2 18  1  0  0  0  0
  3  7  2  0  0  0  0
  3  9  1  0  0  0  0
  4  8  2  0  0  0  0
  4 10  1  0  0  0  0
  5 19  1  0  0  0  0
  5 20  1  0  0  0  0
  5 21  1  0  0  0  0
  6 22  1  0  0  0  0
  6 23  1  0  0  0  0
  6 24  1  0  0  0  0
  7 11  1  0  0  0  0
  7 25  1  0  0  0  0
  8 12  1  0  0  0  0
  8 26  1  0  0  0  0
  9 13  2  0  0  0  0
  9 27  1  0  0  0  0
 10 14  2  0  0  0  0
 10 28  1  0  0  0  0
 11 15  2  0  0  0  0
 11 29  1  0  0  0  0
 12 16  2  0  0  0  0
 12 30  1  0  0  0  0
 13 15  1  0  0  0  0
 13 31  1  0  0  0  0
 14 16  1  0  0  0  0
 14 32  1  0  0  0  0
 15 33  1  0  0  0  0
 16 34  1  0  0  0  0
M  END
> <PUBCHEM_COMPOUND_CID>
223569

> <PUBCHEM_CONFORMER_RMSD>
0.6

> <PUBCHEM_CONFORMER_DIVERSEORDER>
1
4
5
3
2

> <PUBCHEM_MMFF94_PARTIAL_CHARGES>
23
1 0.29
10 -0.15
11 -0.15
12 -0.15
13 -0.15
14 -0.15
15 -0.15
16 -0.15
25 0.15
26 0.15
27 0.15
28 0.15
29 0.15
3 -0.14
30 0.15
31 0.15
32 0.15
33 0.15
34 0.15
4 -0.14
7 -0.15
8 -0.15
9 -0.15

> <PUBCHEM_EFFECTIVE_ROTOR_COUNT>
3

> <PUBCHEM_PHARMACOPHORE_FEATURES>
4
1 5 hydrophobe
1 6 hydrophobe
6 3 7 9 11 13 15 rings
6 4 8 10 12 14 16 rings

> <PUBCHEM_HEAVY_ATOM_COUNT>
16

> <PUBCHEM_ATOM_DEF_STEREO_COUNT>
0

> <PUBCHEM_ATOM_UDEF_STEREO_COUNT>
0

> <PUBCHEM_BOND_DEF_STEREO_COUNT>
0

> <PUBCHEM_BOND_UDEF_STEREO_COUNT>
0

> <PUBCHEM_ISOTOPIC_ATOM_COUNT>
0

> <PUBCHEM_COMPONENT_COUNT>
1

> <PUBCHEM_CACTVS_TAUTO_COUNT>
1

> <PUBCHEM_CONFORMER_ID>
0003695100000001

> <PUBCHEM_MMFF94_ENERGY>
62.9053

> <PUBCHEM_FEATURE_SELFOVERLAP>
20.298

> <PUBCHEM_SHAPE_FINGERPRINT>
11471102 22 17604427384310029040
11640471 11 18129937854477857329
12119455 92 17749373837694386861
12326174 3 17908990902703055999
12491281 212 17989485216895639592
13538477 17 18335418032171873680
13571099 52 18337953372757305317
13764800 53 18129675208384207635
14178342 30 18116132545883668890
14617773 55 17825669125550037366
14787075 74 18272652398468994625
14817 1 11779614487163115439
15309172 13 18187926144712603056
15490181 8 18342184331849893815
15775835 57 18343578516931202464
15852999 172 18342739593832889422
15906896 17 18341327915461021687
16945 1 18188769431624062246
18186145 218 18340489950082074829
18981168 100 18127159482983196310
19765921 60 18200871760748929625
19837323 101 17775014512925243402
20361792 2 8790593789185037497
20510252 161 18122347049516736418
20645476 183 18411133658187257028
21524375 3 18271522018093707949
21731228 192 18334860497866296555
23184049 59 18115579340862719754
23402539 116 17060038351239051692
23419403 2 17127602430433365291
23557571 272 16271346626010116165
23559900 14 17060334129226627568
2748010 2 18192174653627222915
298252 57 17560508539026291247
305870 269 18193274100693021225
3071541 236 18410569630144543843
3250762 1 18127160560867793143
4340502 62 18337117761822660489
474 4 18339364041880969561
5706482 22 18410285921800566011
6333272 397 18408608041550422777
6992083 37 17967808383914379620
7364860 26 17272010852663003367
74978 22 18335704983374428420
81228 2 17974588075506202419
9981440 41 17702645783473231098

> <PUBCHEM_SHAPE_MULTIPOLES>
329.27
5.46
2.41
1.4
1.81
1.76
0.18
-3.71
-0.66
-1.04
-0.27
-0.25
0.03
-0.42

> <PUBCHEM_SHAPE_SELFOVERLAP>
704.531

> <PUBCHEM_SHAPE_VOLUME>
175.7

> <PUBCHEM_COORDINATE_TYPE>
2
5
10

$$$$
