12386532
  -OEChem-11012400433D

 26 27  0     1  0  0  0  0  0999 V2000
   -0.0176   -0.7753    0.3845 C   0  0  1  0  0  0  0  0  0  0  0  0
    1.1816   -1.4496   -0.3065 C   0  0  0  0  0  0  0  0  0  0  0  0
   -0.0069    0.7262    0.1653 C   0  0  0  0  0  0  0  0  0  0  0  0
   -1.3226   -1.4468   -0.0862 C   0  0  0  0  0  0  0  0  0  0  0  0
    2.5064   -0.7676    0.0295 C   0  0  0  0  0  0  0  0  0  0  0  0
    1.3095    1.4196    0.4095 C   0  0  0  0  0  0  0  0  0  0  0  0
    2.4592    0.7198   -0.3110 C   0  0  0  0  0  0  0  0  0  0  0  0
   -2.5445   -0.6103    0.2739 C   0  0  0  0  0  0  0  0  0  0  0  0
   -2.4576    0.7765   -0.3616 C   0  0  0  0  0  0  0  0  0  0  0  0
   -1.1076    1.4076   -0.1974 C   0  0  0  0  0  0  0  0  0  0  0  0
    0.0746   -0.9383    1.4676 H   0  0  0  0  0  0  0  0  0  0  0  0
    1.0448   -1.4334   -1.3960 H   0  0  0  0  0  0  0  0  0  0  0  0
    1.2331   -2.5046   -0.0111 H   0  0  0  0  0  0  0  0  0  0  0  0
   -1.4078   -2.4419    0.3665 H   0  0  0  0  0  0  0  0  0  0  0  0
   -1.3053   -1.5968   -1.1739 H   0  0  0  0  0  0  0  0  0  0  0  0
    3.3190   -1.2475   -0.5276 H   0  0  0  0  0  0  0  0  0  0  0  0
    2.7275   -0.8965    1.0960 H   0  0  0  0  0  0  0  0  0  0  0  0
    1.2738    2.4687    0.0927 H   0  0  0  0  0  0  0  0  0  0  0  0
    1.5061    1.4220    1.4891 H   0  0  0  0  0  0  0  0  0  0  0  0
    2.3474    0.8444   -1.3954 H   0  0  0  0  0  0  0  0  0  0  0  0
    3.4085    1.1908   -0.0314 H   0  0  0  0  0  0  0  0  0  0  0  0
   -2.6144   -0.5154    1.3650 H   0  0  0  0  0  0  0  0  0  0  0  0
   -3.4583   -1.1136   -0.0616 H   0  0  0  0  0  0  0  0  0  0  0  0
   -3.2176    1.4227    0.0924 H   0  0  0  0  0  0  0  0  0  0  0  0
   -2.6859    0.7141   -1.4321 H   0  0  0  0  0  0  0  0  0  0  0  0
   -1.0510    2.4808   -0.3591 H   0  0  0  0  0  0  0  0  0  0  0  0
  1  2  1  0  0  0  0
  1  3  1  0  0  0  0
  1  4  1  0  0  0  0
  1 11  1  0  0  0  0
  2  5  1  0  0  0  0
  2 12  1  0  0  0  0
  2 13  1  0  0  0  0
  3  6  1  0  0  0  0
  3 10  2  0  0  0  0
  4  8  1  0  0  0  0
  4 14  1  0  0  0  0
  4 15  1  0  0  0  0
  5  7  1  0  0  0  0
  5 16  1  0  0  0  0
  5 17  1  0  0  0  0
  6  7  1  0  0  0  0
  6 18  1  0  0  0  0
  6 19  1  0  0  0  0
  7 20  1  0  0  0  0
  7 21  1  0  0  0  0
  8  9  1  0  0  0  0
  8 22  1  0  0  0  0
  8 23  1  0  0  0  0
  9 10  1  0  0  0  0
  9 24  1  0  0  0  0
  9 25  1  0  0  0  0
 10 26  1  0  0  0  0
M  END
> <PUBCHEM_COMPOUND_CID>
12386532

> <PUBCHEM_CONFORMER_RMSD>
0.4

> <PUBCHEM_CONFORMER_DIVERSEORDER>
1

> <PUBCHEM_MMFF94_PARTIAL_CHARGES>
6
1 0.14
10 -0.29
26 0.15
3 -0.28
6 0.14
9 0.14

> <PUBCHEM_EFFECTIVE_ROTOR_COUNT>
1.4

> <PUBCHEM_PHARMACOPHORE_FEATURES>
2
6 1 2 3 5 6 7 rings
6 1 3 4 8 9 10 rings

> <PUBCHEM_HEAVY_ATOM_COUNT>
10

> <PUBCHEM_ATOM_DEF_STEREO_COUNT>
0

> <PUBCHEM_ATOM_UDEF_STEREO_COUNT>
1

> <PUBCHEM_BOND_DEF_STEREO_COUNT>
0

> <PUBCHEM_BOND_UDEF_STEREO_COUNT>
0

> <PUBCHEM_ISOTOPIC_ATOM_COUNT>
0

> <PUBCHEM_COMPONENT_COUNT>
1

> <PUBCHEM_CACTVS_TAUTO_COUNT>
1

> <PUBCHEM_CONFORMER_ID>
00BD00E400000001

> <PUBCHEM_MMFF94_ENERGY>
2.1639

> <PUBCHEM_FEATURE_SELFOVERLAP>
10.17

> <PUBCHEM_SHAPE_FINGERPRINT>
12423570 1 12647654805266389105
12524768 44 18411140229476819783
12897270 3 18410293609718081908
14325111 11 18409448089545136405
15775835 57 18410864282022772780
161256 15 18339361984396150489
16945 1 18412544305698733192
17844478 74 18114476629547553345
18185500 45 16969420712886792059
19973954 147 18409732841623916556
20201158 50 18340767048508326734
21040471 1 18410006650115665368
21501502 16 18410011043803795171
23402655 69 18269259198169778493
23552423 10 18259985998003555466
241688 4 18408040727704643393
2748010 2 18195244653015510909
29004967 10 17988642965160976090
369184 2 15647050486305342709
5084963 1 17894632530436769124
528886 8 18412259557978094115
66348 1 18411136900750428357

> <PUBCHEM_SHAPE_MULTIPOLES>
205.8
3.71
1.76
0.7
0.05
0.03
0
0.01
-0.22
-0.05
-0.03
0
-0.02
0.19

> <PUBCHEM_SHAPE_SELFOVERLAP>
418.149

> <PUBCHEM_SHAPE_VOLUME>
116.3

> <PUBCHEM_COORDINATE_TYPE>
2
5
10

$$$$
