140248
  -OEChem-11012401033D

 10 10  0     0  0  0  0  0  0999 V2000
   -0.9528    1.8518    0.0001 O   0  0  0  0  0  0  0  0  0  0  0  0
   -2.6826    0.3739   -0.0002 O   0  5  0  0  0  0  0  0  0  0  0  0
   -1.4386    0.5094   -0.0002 N   0  3  0  0  0  0  0  0  0  0  0  0
    0.4357    1.7877    0.0002 N   0  0  0  0  0  0  0  0  0  0  0  0
   -0.5796   -2.9035    0.0001 N   0  0  0  0  0  0  0  0  0  0  0  0
    3.2474   -0.1783   -0.0002 N   0  0  0  0  0  0  0  0  0  0  0  0
   -0.3952   -0.3191    0.0001 C   0  0  0  0  0  0  0  0  0  0  0  0
    0.7446    0.4915    0.0001 C   0  0  0  0  0  0  0  0  0  0  0  0
   -0.4964   -1.7375    0.0001 C   0  0  0  0  0  0  0  0  0  0  0  0
    2.1175    0.1241   -0.0001 C   0  0  0  0  0  0  0  0  0  0  0  0
  1  3  1  0  0  0  0
  1  4  1  0  0  0  0
  2  3  1  0  0  0  0
  3  7  2  0  0  0  0
  4  8  2  0  0  0  0
  5  9  3  0  0  0  0
  6 10  3  0  0  0  0
  7  8  1  0  0  0  0
  7  9  1  0  0  0  0
  8 10  1  0  0  0  0
M  CHG  2   2  -1   3   1
M  END
> <PUBCHEM_COMPOUND_CID>
140248

> <PUBCHEM_CONFORMER_RMSD>
0.4

> <PUBCHEM_CONFORMER_DIVERSEORDER>
1

> <PUBCHEM_MMFF94_PARTIAL_CHARGES>
10
1 -0.12
10 0.54
2 -0.63
3 0.95
4 -0.41
5 -0.56
6 -0.56
7 -0.06
8 0.31
9 0.54

> <PUBCHEM_EFFECTIVE_ROTOR_COUNT>
0

> <PUBCHEM_PHARMACOPHORE_FEATURES>
5
1 2 anion
1 4 acceptor
1 5 acceptor
1 6 acceptor
5 1 3 4 7 8 rings

> <PUBCHEM_HEAVY_ATOM_COUNT>
10

> <PUBCHEM_ATOM_DEF_STEREO_COUNT>
0

> <PUBCHEM_ATOM_UDEF_STEREO_COUNT>
0

> <PUBCHEM_BOND_DEF_STEREO_COUNT>
0

> <PUBCHEM_BOND_UDEF_STEREO_COUNT>
0

> <PUBCHEM_ISOTOPIC_ATOM_COUNT>
0

> <PUBCHEM_COMPONENT_COUNT>
1

> <PUBCHEM_CACTVS_TAUTO_COUNT>
1

> <PUBCHEM_CONFORMER_ID>
000223D800000001

> <PUBCHEM_MMFF94_ENERGY>
3.3498

> <PUBCHEM_FEATURE_SELFOVERLAP>
25.373

> <PUBCHEM_SHAPE_FINGERPRINT>
193761 8 17906171011685840709
20871998 184 18200599223435878382
21040471 1 18410573959592715396
23552423 10 17828485004909126820
2748010 2 18193558852692797046

> <PUBCHEM_SHAPE_MULTIPOLES>
174.13
3.06
2.32
0.56
1.81
1.26
0
-0.06
0
-1.06
0
0.03
0.02
0

> <PUBCHEM_SHAPE_SELFOVERLAP>
359.95

> <PUBCHEM_SHAPE_VOLUME>
97

> <PUBCHEM_COORDINATE_TYPE>
2
5
10

$$$$
