137273
  -OEChem-11012401063D

 22 22  0     1  0  0  0  0  0999 V2000
   -2.1826    1.4585   -0.3523 O   0  0  0  0  0  0  0  0  0  0  0  0
    0.0725    1.1582   -0.1432 N   0  0  0  0  0  0  0  0  0  0  0  0
    1.2646    0.4432    0.3106 C   0  0  1  0  0  0  0  0  0  0  0  0
    1.4621   -0.8660   -0.4645 C   0  0  0  0  0  0  0  0  0  0  0  0
    0.5435   -1.9975   -0.0019 C   0  0  0  0  0  0  0  0  0  0  0  0
   -0.9477   -1.7271   -0.1837 C   0  0  0  0  0  0  0  0  0  0  0  0
   -1.4654   -0.5784    0.6731 C   0  0  0  0  0  0  0  0  0  0  0  0
    2.4876    1.3461    0.1453 C   0  0  0  0  0  0  0  0  0  0  0  0
   -1.2347    0.7630    0.0165 C   0  0  0  0  0  0  0  0  0  0  0  0
    1.1395    0.2308    1.3788 H   0  0  0  0  0  0  0  0  0  0  0  0
    2.4942   -1.2146   -0.3314 H   0  0  0  0  0  0  0  0  0  0  0  0
    1.3231   -0.6961   -1.5398 H   0  0  0  0  0  0  0  0  0  0  0  0
    0.7488   -2.2271    1.0513 H   0  0  0  0  0  0  0  0  0  0  0  0
    0.8010   -2.9008   -0.5689 H   0  0  0  0  0  0  0  0  0  0  0  0
   -1.4882   -2.6385    0.1002 H   0  0  0  0  0  0  0  0  0  0  0  0
   -1.1653   -1.5471   -1.2436 H   0  0  0  0  0  0  0  0  0  0  0  0
   -1.0319   -0.5848    1.6786 H   0  0  0  0  0  0  0  0  0  0  0  0
   -2.5495   -0.6922    0.7975 H   0  0  0  0  0  0  0  0  0  0  0  0
    0.2155    2.0541   -0.6001 H   0  0  0  0  0  0  0  0  0  0  0  0
    3.3905    0.8578    0.5265 H   0  0  0  0  0  0  0  0  0  0  0  0
    2.6537    1.6011   -0.9074 H   0  0  0  0  0  0  0  0  0  0  0  0
    2.3544    2.2841    0.6955 H   0  0  0  0  0  0  0  0  0  0  0  0
  1  9  2  0  0  0  0
  2  3  1  0  0  0  0
  2  9  1  0  0  0  0
  2 19  1  0  0  0  0
  3  4  1  0  0  0  0
  3  8  1  0  0  0  0
  3 10  1  0  0  0  0
  4  5  1  0  0  0  0
  4 11  1  0  0  0  0
  4 12  1  0  0  0  0
  5  6  1  0  0  0  0
  5 13  1  0  0  0  0
  5 14  1  0  0  0  0
  6  7  1  0  0  0  0
  6 15  1  0  0  0  0
  6 16  1  0  0  0  0
  7  9  1  0  0  0  0
  7 17  1  0  0  0  0
  7 18  1  0  0  0  0
  8 20  1  0  0  0  0
  8 21  1  0  0  0  0
  8 22  1  0  0  0  0
M  END
> <PUBCHEM_COMPOUND_CID>
137273

> <PUBCHEM_CONFORMER_RMSD>
0.4

> <PUBCHEM_CONFORMER_DIVERSEORDER>
2
3
1
4

> <PUBCHEM_MMFF94_PARTIAL_CHARGES>
6
1 -0.57
19 0.37
2 -0.73
3 0.3
7 0.06
9 0.57

> <PUBCHEM_EFFECTIVE_ROTOR_COUNT>
1.2

> <PUBCHEM_PHARMACOPHORE_FEATURES>
3
1 1 acceptor
1 2 donor
7 2 3 4 5 6 7 9 rings

> <PUBCHEM_HEAVY_ATOM_COUNT>
9

> <PUBCHEM_ATOM_DEF_STEREO_COUNT>
0

> <PUBCHEM_ATOM_UDEF_STEREO_COUNT>
1

> <PUBCHEM_BOND_DEF_STEREO_COUNT>
0

> <PUBCHEM_BOND_UDEF_STEREO_COUNT>
0

> <PUBCHEM_ISOTOPIC_ATOM_COUNT>
0

> <PUBCHEM_COMPONENT_COUNT>
1

> <PUBCHEM_CACTVS_TAUTO_COUNT>
2

> <PUBCHEM_CONFORMER_ID>
0002183900000002

> <PUBCHEM_MMFF94_ENERGY>
12.7441

> <PUBCHEM_FEATURE_SELFOVERLAP>
15.223

> <PUBCHEM_SHAPE_FINGERPRINT>
16714656 1 17979078506889936994
16945 1 18121780796706876130
18185500 45 16969704971039396170
21040471 1 18410575084800339412
21922407 69 15575013800168198730
23552423 10 18189336930354122814
241688 4 16754657483194587346
2748010 2 18410299098686305654
5084963 1 18058172915226684266
54338 74 17616515689986769250
66348 1 18122631556550206890

> <PUBCHEM_SHAPE_MULTIPOLES>
174.37
2.76
2.13
0.7
1.13
0.47
-0.04
-1.07
-0.11
-0.5
0.22
-0.05
0.03
0.24

> <PUBCHEM_SHAPE_SELFOVERLAP>
336.652

> <PUBCHEM_SHAPE_VOLUME>
105.3

> <PUBCHEM_COORDINATE_TYPE>
2
5
10

$$$$
