17113
  -OEChem-11012400563D

 28 30  0     0  0  0  0  0  0999 V2000
   -1.1617    2.4984    0.0025 O   0  0  0  0  0  0  0  0  0  0  0  0
    0.1281    0.0054    0.0017 N   0  0  0  0  0  0  0  0  0  0  0  0
    0.7235   -1.1898    0.0028 N   0  0  0  0  0  0  0  0  0  0  0  0
    0.8776    1.1106   -0.0006 N   0  0  0  0  0  0  0  0  0  0  0  0
   -1.2619    0.0990    0.0000 C   0  0  0  0  0  0  0  0  0  0  0  0
    2.0252   -0.8582    0.0012 C   0  0  0  0  0  0  0  0  0  0  0  0
    2.1234    0.6085   -0.0008 C   0  0  0  0  0  0  0  0  0  0  0  0
   -2.0152   -1.0701   -0.0006 C   0  0  0  0  0  0  0  0  0  0  0  0
   -3.4081   -0.9947   -0.0007 C   0  0  0  0  0  0  0  0  0  0  0  0
   -1.8847    1.3423    0.0002 C   0  0  0  0  0  0  0  0  0  0  0  0
   -4.0393    0.2491   -0.0005 C   0  0  0  0  0  0  0  0  0  0  0  0
   -3.2775    1.4176   -0.0001 C   0  0  0  0  0  0  0  0  0  0  0  0
    3.1632   -1.6861    0.0016 C   0  0  0  0  0  0  0  0  0  0  0  0
    3.3618    1.2772   -0.0025 C   0  0  0  0  0  0  0  0  0  0  0  0
   -4.2231   -2.2436   -0.0020 C   0  0  0  0  0  0  0  0  0  0  0  0
    4.3868   -0.9914   -0.0001 C   0  0  0  0  0  0  0  0  0  0  0  0
    4.4818    0.4258   -0.0022 C   0  0  0  0  0  0  0  0  0  0  0  0
   -1.5562   -2.0557    0.0011 H   0  0  0  0  0  0  0  0  0  0  0  0
   -5.1237    0.3221    0.0012 H   0  0  0  0  0  0  0  0  0  0  0  0
   -3.7828    2.3797    0.0009 H   0  0  0  0  0  0  0  0  0  0  0  0
    3.1129   -2.7675    0.0032 H   0  0  0  0  0  0  0  0  0  0  0  0
    3.4559    2.3557   -0.0040 H   0  0  0  0  0  0  0  0  0  0  0  0
   -4.3025   -2.6415    1.0146 H   0  0  0  0  0  0  0  0  0  0  0  0
   -5.2339   -2.0625   -0.3831 H   0  0  0  0  0  0  0  0  0  0  0  0
   -3.7694   -3.0047   -0.6458 H   0  0  0  0  0  0  0  0  0  0  0  0
    5.3105   -1.5689    0.0000 H   0  0  0  0  0  0  0  0  0  0  0  0
    5.4742    0.8749   -0.0034 H   0  0  0  0  0  0  0  0  0  0  0  0
   -1.7722    3.2556    0.0028 H   0  0  0  0  0  0  0  0  0  0  0  0
  1 10  1  0  0  0  0
  1 28  1  0  0  0  0
  2  3  1  0  0  0  0
  2  4  1  0  0  0  0
  2  5  1  0  0  0  0
  3  6  2  0  0  0  0
  4  7  2  0  0  0  0
  5  8  1  0  0  0  0
  5 10  2  0  0  0  0
  6  7  1  0  0  0  0
  6 13  1  0  0  0  0
  7 14  1  0  0  0  0
  8  9  2  0  0  0  0
  8 18  1  0  0  0  0
  9 11  1  0  0  0  0
  9 15  1  0  0  0  0
 10 12  1  0  0  0  0
 11 12  2  0  0  0  0
 11 19  1  0  0  0  0
 12 20  1  0  0  0  0
 13 16  2  0  0  0  0
 13 21  1  0  0  0  0
 14 17  2  0  0  0  0
 14 22  1  0  0  0  0
 15 23  1  0  0  0  0
 15 24  1  0  0  0  0
 15 25  1  0  0  0  0
 16 17  1  0  0  0  0
 16 26  1  0  0  0  0
 17 27  1  0  0  0  0
M  END
> <PUBCHEM_COMPOUND_CID>
17113

> <PUBCHEM_CONFORMER_RMSD>
0.6

> <PUBCHEM_CONFORMER_DIVERSEORDER>
1
2

> <PUBCHEM_MMFF94_PARTIAL_CHARGES>
25
1 -0.53
10 0.08
11 -0.15
12 -0.15
13 -0.15
14 -0.15
15 0.14
16 -0.15
17 -0.15
18 0.15
19 0.15
2 0.86
20 0.15
21 0.15
22 0.15
26 0.15
27 0.15
28 0.45
3 -0.71
4 -0.71
5 -0.02
6 0.29
7 0.29
8 -0.15
9 -0.14

> <PUBCHEM_EFFECTIVE_ROTOR_COUNT>
1

> <PUBCHEM_PHARMACOPHORE_FEATURES>
6
1 1 donor
1 3 acceptor
1 4 acceptor
5 2 3 4 6 7 rings
6 5 8 9 10 11 12 rings
6 6 7 13 14 16 17 rings

> <PUBCHEM_HEAVY_ATOM_COUNT>
17

> <PUBCHEM_ATOM_DEF_STEREO_COUNT>
0

> <PUBCHEM_ATOM_UDEF_STEREO_COUNT>
0

> <PUBCHEM_BOND_DEF_STEREO_COUNT>
0

> <PUBCHEM_BOND_UDEF_STEREO_COUNT>
0

> <PUBCHEM_ISOTOPIC_ATOM_COUNT>
0

> <PUBCHEM_COMPONENT_COUNT>
1

> <PUBCHEM_CACTVS_TAUTO_COUNT>
3

> <PUBCHEM_CONFORMER_ID>
000042D900000001

> <PUBCHEM_MMFF94_ENERGY>
54.7948

> <PUBCHEM_FEATURE_SELFOVERLAP>
30.626

> <PUBCHEM_SHAPE_FINGERPRINT>
10608611 8 18411133606663863364
10616163 171 18412546496275102735
10967382 1 18266458895944265094
11132069 177 18409726248807049176
11615757 297 17704076209029257586
11806522 49 18335701680196489574
12032990 46 18411421730107172651
12107183 9 17761773962096663842
12403259 226 18411412904387690576
12916754 54 18341898484670101490
13167823 11 18410291410869269770
13214271 11 18342736325847840085
13296908 3 18411136930846971343
13675066 3 17988635277538891786
14144814 61 18411136900956150266
15196674 1 18410573993757216486
15309172 13 16702302351658088599
15442244 35 18121780526356162122
15536298 74 18413388726808638532
17492 89 18410575054741733066
17834074 16 18412263913206989350
18186145 218 17894627032963130110
19050596 39 18410292493168970714
19141452 34 18342179977596937923
19422 9 18410296912537363414
200 152 18131344216017712423
20261772 1 17917148419792691583
20281475 54 18411139134138684043
20510252 161 18342740702008129609
20645477 70 18341329998683658102
21267235 1 18410302418743783919
21501502 16 18410295783024313592
221490 88 18409736183456723506
23402539 116 18335695057188042758
23402655 69 18409446947226202196
23463225 33 18410293596991429020
23557571 272 18272380771040020853
23559900 14 18269269063440527570
2871803 45 18334288786201027999
3312278 4 18411419497098699265
335352 9 18194401087089407517
3545911 37 18410575058898712356
4214541 1 18410575054635309057
474 4 17313956358591669772
4990 188 18202293481060530990
5104073 3 18412262830785353002
633830 44 16588315942604741572
69090 78 18341327825261063231
77779 3 18411139125738685974
8809292 202 18334298664731239131
9709674 26 18410018731970010418

> <PUBCHEM_SHAPE_MULTIPOLES>
329.04
9.16
2.11
0.6
1.88
0.1
0
-2.35
-0.01
-1.14
0
0
-0.01
0

> <PUBCHEM_SHAPE_SELFOVERLAP>
730.05

> <PUBCHEM_SHAPE_VOLUME>
176.8

> <PUBCHEM_COORDINATE_TYPE>
2
5
10

$$$$
