137755
  -OEChem-11012400383D

 42 42  0     0  0  0  0  0  0999 V2000
    3.6880   -0.2583    0.3249 C   0  0  0  0  0  0  0  0  0  0  0  0
    4.9240   -1.0307   -0.1255 C   0  0  0  0  0  0  0  0  0  0  0  0
    3.9101    1.1102   -0.3111 C   0  0  0  0  0  0  0  0  0  0  0  0
    6.0567   -0.0144   -0.0178 C   0  0  0  0  0  0  0  0  0  0  0  0
    5.4025    1.3642   -0.1253 C   0  0  0  0  0  0  0  0  0  0  0  0
    2.3852   -0.9122   -0.1009 C   0  0  0  0  0  0  0  0  0  0  0  0
    1.1767   -0.0822    0.3345 C   0  0  0  0  0  0  0  0  0  0  0  0
   -0.1646   -0.7080   -0.0613 C   0  0  0  0  0  0  0  0  0  0  0  0
   -1.3697    0.1604    0.3092 C   0  0  0  0  0  0  0  0  0  0  0  0
   -2.7072   -0.4371   -0.1398 C   0  0  0  0  0  0  0  0  0  0  0  0
   -3.9153    0.4166    0.2518 C   0  0  0  0  0  0  0  0  0  0  0  0
   -5.2235   -0.2306   -0.2085 C   0  0  0  0  0  0  0  0  0  0  0  0
   -6.4293    0.6386    0.1478 C   0  0  0  0  0  0  0  0  0  0  0  0
   -7.7336   -0.0167   -0.2780 C   0  0  0  0  0  0  0  0  0  0  0  0
    3.7097   -0.1567    1.4186 H   0  0  0  0  0  0  0  0  0  0  0  0
    5.1090   -1.9171    0.4893 H   0  0  0  0  0  0  0  0  0  0  0  0
    4.8217   -1.3600   -1.1669 H   0  0  0  0  0  0  0  0  0  0  0  0
    3.6683    1.0911   -1.3810 H   0  0  0  0  0  0  0  0  0  0  0  0
    3.3150    1.9000    0.1573 H   0  0  0  0  0  0  0  0  0  0  0  0
    2.3182   -1.9137    0.3412 H   0  0  0  0  0  0  0  0  0  0  0  0
    2.3621   -1.0454   -1.1897 H   0  0  0  0  0  0  0  0  0  0  0  0
    6.5651   -0.1094    0.9486 H   0  0  0  0  0  0  0  0  0  0  0  0
    6.8067   -0.1711   -0.7996 H   0  0  0  0  0  0  0  0  0  0  0  0
    5.8143    1.9476   -0.9549 H   0  0  0  0  0  0  0  0  0  0  0  0
    5.5812    1.9313    0.7956 H   0  0  0  0  0  0  0  0  0  0  0  0
    1.2294    0.9162   -0.1145 H   0  0  0  0  0  0  0  0  0  0  0  0
    1.1997    0.0561    1.4225 H   0  0  0  0  0  0  0  0  0  0  0  0
   -0.1710   -0.8841   -1.1441 H   0  0  0  0  0  0  0  0  0  0  0  0
   -0.2622   -1.6888    0.4199 H   0  0  0  0  0  0  0  0  0  0  0  0
   -1.3856    0.3074    1.3961 H   0  0  0  0  0  0  0  0  0  0  0  0
   -1.2531    1.1530   -0.1432 H   0  0  0  0  0  0  0  0  0  0  0  0
   -2.8154   -1.4374    0.2977 H   0  0  0  0  0  0  0  0  0  0  0  0
   -2.6931   -0.5676   -1.2290 H   0  0  0  0  0  0  0  0  0  0  0  0
   -3.8178    1.4129   -0.1961 H   0  0  0  0  0  0  0  0  0  0  0  0
   -3.9330    0.5508    1.3400 H   0  0  0  0  0  0  0  0  0  0  0  0
   -5.3285   -1.2169    0.2597 H   0  0  0  0  0  0  0  0  0  0  0  0
   -5.1949   -0.3893   -1.2933 H   0  0  0  0  0  0  0  0  0  0  0  0
   -6.3407    1.6164   -0.3399 H   0  0  0  0  0  0  0  0  0  0  0  0
   -6.4539    0.8163    1.2292 H   0  0  0  0  0  0  0  0  0  0  0  0
   -8.5824    0.6221   -0.0146 H   0  0  0  0  0  0  0  0  0  0  0  0
   -7.8682   -0.9825    0.2194 H   0  0  0  0  0  0  0  0  0  0  0  0
   -7.7550   -0.1811   -1.3600 H   0  0  0  0  0  0  0  0  0  0  0  0
  1  2  1  0  0  0  0
  1  3  1  0  0  0  0
  1  6  1  0  0  0  0
  1 15  1  0  0  0  0
  2  4  1  0  0  0  0
  2 16  1  0  0  0  0
  2 17  1  0  0  0  0
  3  5  1  0  0  0  0
  3 18  1  0  0  0  0
  3 19  1  0  0  0  0
  4  5  1  0  0  0  0
  4 22  1  0  0  0  0
  4 23  1  0  0  0  0
  5 24  1  0  0  0  0
  5 25  1  0  0  0  0
  6  7  1  0  0  0  0
  6 20  1  0  0  0  0
  6 21  1  0  0  0  0
  7  8  1  0  0  0  0
  7 26  1  0  0  0  0
  7 27  1  0  0  0  0
  8  9  1  0  0  0  0
  8 28  1  0  0  0  0
  8 29  1  0  0  0  0
  9 10  1  0  0  0  0
  9 30  1  0  0  0  0
  9 31  1  0  0  0  0
 10 11  1  0  0  0  0
 10 32  1  0  0  0  0
 10 33  1  0  0  0  0
 11 12  1  0  0  0  0
 11 34  1  0  0  0  0
 11 35  1  0  0  0  0
 12 13  1  0  0  0  0
 12 36  1  0  0  0  0
 12 37  1  0  0  0  0
 13 14  1  0  0  0  0
 13 38  1  0  0  0  0
 13 39  1  0  0  0  0
 14 40  1  0  0  0  0
 14 41  1  0  0  0  0
 14 42  1  0  0  0  0
M  END
> <PUBCHEM_COMPOUND_CID>
137755

> <PUBCHEM_CONFORMER_RMSD>
0.8

> <PUBCHEM_CONFORMER_DIVERSEORDER>
1
3
29
49
106
11
125
76
5
115
114
42
7
24
43
94
6
152
71
69
190
20
95
139
25
60
78
26
163
67
17
38
39
74
31
168
44
85
9
61
105
98
111
65
8
30
127
181
13
149
33
2
138
100
27
15
101
143
141
102
58
159
110
166
107
82
36
188
73
50
4
83
116
172
120
32
170
55
12
34
169
186
128
126
21
144
187
53
18
176
14
91
134
28
70
84
113
177
10
145
81
68
40
22
57
86
157
64
178
171
155
87
119
129
92
150
112
75
130
118
161
51
164
16
45
179
66
62
19
59
96
184
72
80
124
140
142
154
97
160
165
41
148
135
52
79
56
167
137
122
103
88
37
162
153
90
132
156
35
173
182
109
63
175
48
158
123
46
121
23
47
136
174
104
151
54
77
93
146
99
189
89
131
147
180
183
133
185
117
108

> <PUBCHEM_MMFF94_PARTIAL_CHARGES>
0

> <PUBCHEM_EFFECTIVE_ROTOR_COUNT>
9

> <PUBCHEM_PHARMACOPHORE_FEATURES>
2
1 14 hydrophobe
5 1 2 3 4 5 rings

> <PUBCHEM_HEAVY_ATOM_COUNT>
14

> <PUBCHEM_ATOM_DEF_STEREO_COUNT>
0

> <PUBCHEM_ATOM_UDEF_STEREO_COUNT>
0

> <PUBCHEM_BOND_DEF_STEREO_COUNT>
0

> <PUBCHEM_BOND_UDEF_STEREO_COUNT>
0

> <PUBCHEM_ISOTOPIC_ATOM_COUNT>
0

> <PUBCHEM_COMPONENT_COUNT>
1

> <PUBCHEM_CACTVS_TAUTO_COUNT>
1

> <PUBCHEM_CONFORMER_ID>
00021A1B00000001

> <PUBCHEM_MMFF94_ENERGY>
5.0036

> <PUBCHEM_FEATURE_SELFOVERLAP>
10.148

> <PUBCHEM_SHAPE_FINGERPRINT>
10354089 29 17675924305011954748
10968037 39 18342738521093034271
11287383 113 18333734640835423258
12091667 2 18272089392986985835
125118 31 17458064850639568141
12714333 28 18411136939695225955
13167372 99 18339362963533097841
13533116 47 17968366845780412626
14123256 10 17704071794029756297
1420 363 17458348528691329587
14251718 22 18343019995668902747
14251732 16 18334859463327934275
14251764 46 18411981360056220451
14729087 3 16732975407012859205
14933364 13 18408042905611745373
15048467 5 18410292523276050125
17834072 33 18201998854218752343
17834072 8 15123789591564504367
17834076 25 18060137635310679011
20157964 124 18411139126023769462
20281389 69 18260264136059988357
20645477 70 18270684165176267246
20767249 213 18409730664550160171
21130983 4 18334017198513157437
21150785 3 16271926038546887241
21315763 28 18410292493427478929
220451 1 16988560196056169207
22224240 67 16153426173037272587
22896161 15 18409730695031890019
23035841 295 15769773559720393063
23402539 116 18342172288830057327
23521765 1 18342175562053903611
23536379 177 18411982442720249547
29717793 49 17775291547570304636
33684 2 18412824673143697651
3545911 37 18187365423847286315
42788 4 18410575080373392875
4325135 7 18272369771966444437
4463277 17 18410573977131462617
54446538 1 18412826871602899168
59755656 520 17821442482831568691
8209 1 18410855455833200999

> <PUBCHEM_SHAPE_MULTIPOLES>
288.11
20.55
1.07
0.67
23.49
0.14
0
3.22
1.47
-1.29
0.05
0.02
0.01
-0.24

> <PUBCHEM_SHAPE_SELFOVERLAP>
537.526

> <PUBCHEM_SHAPE_VOLUME>
178.8

> <PUBCHEM_COORDINATE_TYPE>
2
5
10

$$$$
