15607818
  -OEChem-11012401253D

 45 44  0     0  0  0  0  0  0999 V2000
    0.0177    1.5363   -0.0027 Si  0  0  0  0  0  0  0  0  0  0  0  0
    2.3053   -0.6371    0.0088 Si  0  0  0  0  0  0  0  0  0  0  0  0
   -2.3274   -0.5952   -0.0083 Si  0  0  0  0  0  0  0  0  0  0  0  0
    1.2696    0.5597   -0.5277 O   0  0  0  0  0  0  0  0  0  0  0  0
   -1.2469    0.5696    0.4959 O   0  0  0  0  0  0  0  0  0  0  0  0
   -0.4759    2.5070   -1.2728 O   0  0  0  0  0  0  0  0  0  0  0  0
    0.5512    2.4837    1.2689 O   0  0  0  0  0  0  0  0  0  0  0  0
    3.2204   -0.0535    1.2838 O   0  0  0  0  0  0  0  0  0  0  0  0
    3.3100   -1.0968   -1.2481 O   0  0  0  0  0  0  0  0  0  0  0  0
    1.4175   -1.9535    0.5391 O   0  0  0  0  0  0  0  0  0  0  0  0
   -3.2689    0.0005   -1.2563 O   0  0  0  0  0  0  0  0  0  0  0  0
   -1.4796   -1.9235   -0.5743 O   0  0  0  0  0  0  0  0  0  0  0  0
   -3.3012   -1.0543    1.2730 O   0  0  0  0  0  0  0  0  0  0  0  0
    0.4439    3.3994   -1.8838 C   0  0  0  0  0  0  0  0  0  0  0  0
   -0.3390    3.4097    1.8746 C   0  0  0  0  0  0  0  0  0  0  0  0
    4.0601    1.0753    1.0858 C   0  0  0  0  0  0  0  0  0  0  0  0
    2.7446   -1.6247   -2.4397 C   0  0  0  0  0  0  0  0  0  0  0  0
    2.0909   -3.0959    1.0483 C   0  0  0  0  0  0  0  0  0  0  0  0
   -4.0949    1.1355   -1.0442 C   0  0  0  0  0  0  0  0  0  0  0  0
   -2.1903   -3.0506   -1.0660 C   0  0  0  0  0  0  0  0  0  0  0  0
   -2.7071   -1.5913    2.4458 C   0  0  0  0  0  0  0  0  0  0  0  0
    1.2790    2.8549   -2.3382 H   0  0  0  0  0  0  0  0  0  0  0  0
    0.8196    4.1355   -1.1648 H   0  0  0  0  0  0  0  0  0  0  0  0
   -0.0811    3.9387   -2.6780 H   0  0  0  0  0  0  0  0  0  0  0  0
   -0.6778    4.1633    1.1552 H   0  0  0  0  0  0  0  0  0  0  0  0
    0.1996    3.9247    2.6759 H   0  0  0  0  0  0  0  0  0  0  0  0
   -1.1994    2.8974    2.3193 H   0  0  0  0  0  0  0  0  0  0  0  0
    4.5642    1.2934    2.0324 H   0  0  0  0  0  0  0  0  0  0  0  0
    3.4810    1.9598    0.8001 H   0  0  0  0  0  0  0  0  0  0  0  0
    4.8288    0.8678    0.3331 H   0  0  0  0  0  0  0  0  0  0  0  0
    2.0995   -0.8876   -2.9306 H   0  0  0  0  0  0  0  0  0  0  0  0
    2.1837   -2.5444   -2.2396 H   0  0  0  0  0  0  0  0  0  0  0  0
    3.5621   -1.8689   -3.1248 H   0  0  0  0  0  0  0  0  0  0  0  0
    2.7395   -3.5457    0.2886 H   0  0  0  0  0  0  0  0  0  0  0  0
    1.3363   -3.8365    1.3305 H   0  0  0  0  0  0  0  0  0  0  0  0
    2.6719   -2.8459    1.9428 H   0  0  0  0  0  0  0  0  0  0  0  0
   -4.8460    0.9378   -0.2716 H   0  0  0  0  0  0  0  0  0  0  0  0
   -4.6200    1.3538   -1.9790 H   0  0  0  0  0  0  0  0  0  0  0  0
   -3.5009    2.0158   -0.7762 H   0  0  0  0  0  0  0  0  0  0  0  0
   -1.4592   -3.8032   -1.3768 H   0  0  0  0  0  0  0  0  0  0  0  0
   -2.7961   -2.7858   -1.9396 H   0  0  0  0  0  0  0  0  0  0  0  0
   -2.8212   -3.4930   -0.2873 H   0  0  0  0  0  0  0  0  0  0  0  0
   -3.5071   -1.8348    3.1516 H   0  0  0  0  0  0  0  0  0  0  0  0
   -2.0450   -0.8604    2.9232 H   0  0  0  0  0  0  0  0  0  0  0  0
   -2.1567   -2.5129    2.2263 H   0  0  0  0  0  0  0  0  0  0  0  0
  1  4  1  0  0  0  0
  1  5  1  0  0  0  0
  1  6  1  0  0  0  0
  1  7  1  0  0  0  0
  2  4  1  0  0  0  0
  2  8  1  0  0  0  0
  2  9  1  0  0  0  0
  2 10  1  0  0  0  0
  3  5  1  0  0  0  0
  3 11  1  0  0  0  0
  3 12  1  0  0  0  0
  3 13  1  0  0  0  0
  6 14  1  0  0  0  0
  7 15  1  0  0  0  0
  8 16  1  0  0  0  0
  9 17  1  0  0  0  0
 10 18  1  0  0  0  0
 11 19  1  0  0  0  0
 12 20  1  0  0  0  0
 13 21  1  0  0  0  0
 14 22  1  0  0  0  0
 14 23  1  0  0  0  0
 14 24  1  0  0  0  0
 15 25  1  0  0  0  0
 15 26  1  0  0  0  0
 15 27  1  0  0  0  0
 16 28  1  0  0  0  0
 16 29  1  0  0  0  0
 16 30  1  0  0  0  0
 17 31  1  0  0  0  0
 17 32  1  0  0  0  0
 17 33  1  0  0  0  0
 18 34  1  0  0  0  0
 18 35  1  0  0  0  0
 18 36  1  0  0  0  0
 19 37  1  0  0  0  0
 19 38  1  0  0  0  0
 19 39  1  0  0  0  0
 20 40  1  0  0  0  0
 20 41  1  0  0  0  0
 20 42  1  0  0  0  0
 21 43  1  0  0  0  0
 21 44  1  0  0  0  0
 21 45  1  0  0  0  0
M  END
> <PUBCHEM_COMPOUND_CID>
15607818

> <PUBCHEM_CONFORMER_RMSD>
1

> <PUBCHEM_CONFORMER_DIVERSEORDER>
1
12
24
16
2
9
25
13
19
20
8
26
3
11
15
23
18
17
14
5
22
7
4
6
10
21

> <PUBCHEM_MMFF94_PARTIAL_CHARGES>
21
1 1.19
10 -0.58
11 -0.58
12 -0.58
13 -0.58
14 0.28
15 0.28
16 0.28
17 0.28
18 0.28
19 0.28
2 1.19
20 0.28
21 0.28
3 1.19
4 -0.59
5 -0.59
6 -0.58
7 -0.58
8 -0.58
9 -0.58

> <PUBCHEM_EFFECTIVE_ROTOR_COUNT>
12

> <PUBCHEM_PHARMACOPHORE_FEATURES>
0

> <PUBCHEM_HEAVY_ATOM_COUNT>
21

> <PUBCHEM_ATOM_DEF_STEREO_COUNT>
0

> <PUBCHEM_ATOM_UDEF_STEREO_COUNT>
0

> <PUBCHEM_BOND_DEF_STEREO_COUNT>
0

> <PUBCHEM_BOND_UDEF_STEREO_COUNT>
0

> <PUBCHEM_ISOTOPIC_ATOM_COUNT>
0

> <PUBCHEM_COMPONENT_COUNT>
1

> <PUBCHEM_CACTVS_TAUTO_COUNT>
1

> <PUBCHEM_CONFORMER_ID>
00EE280A00000001

> <PUBCHEM_MMFF94_ENERGY>
26.4749

> <PUBCHEM_FEATURE_SELFOVERLAP>
0

> <PUBCHEM_SHAPE_FINGERPRINT>
104564 63 18053961549400548595
11132069 177 18199454627810378088
12553582 1 18114476556116618005
12596599 1 18060423542430544734
12788726 201 17984421841201221265
13140716 1 18051971721365035467
16752209 62 18122623842794439343
16945 1 18059582450273273400
20600515 1 18336253587878871636
21285901 2 18266444443648723637
23419403 2 17265478718517809001
23557571 272 18336257926133678188
23559900 14 18115017516480802394
238 59 17683800286990244511
2748010 2 18410862022933337199
3380486 145 18342170111207648810
35225 105 17339015035388408761
394222 165 16371588019362866590
568465 68 18189343526907042362
81228 2 18192436268448478968

> <PUBCHEM_SHAPE_MULTIPOLES>
428.12
6.15
4.12
2.16
0.18
1.41
-0.01
-2.35
0.04
-0.06
0.02
-0.03
0.15
0.85

> <PUBCHEM_SHAPE_SELFOVERLAP>
777.477

> <PUBCHEM_SHAPE_VOLUME>
275

> <PUBCHEM_COORDINATE_TYPE>
2
5
10

$$$$
