358258
  -OEChem-11012400473D

 25 27  0     0  0  0  0  0  0999 V2000
    0.3610    2.5979   -0.0014 O   0  0  0  0  0  0  0  0  0  0  0  0
   -2.2006    2.5383    0.0015 O   0  0  0  0  0  0  0  0  0  0  0  0
   -2.2432   -2.8031   -0.0001 O   0  0  0  0  0  0  0  0  0  0  0  0
   -0.8961    0.5471   -0.0008 C   0  0  0  0  0  0  0  0  0  0  0  0
   -0.9154   -0.8472   -0.0009 C   0  0  0  0  0  0  0  0  0  0  0  0
    1.5405    0.5233   -0.0006 C   0  0  0  0  0  0  0  0  0  0  0  0
    1.5209   -0.8910   -0.0004 C   0  0  0  0  0  0  0  0  0  0  0  0
    0.3260    1.2299   -0.0008 C   0  0  0  0  0  0  0  0  0  0  0  0
    0.2874   -1.5635   -0.0006 C   0  0  0  0  0  0  0  0  0  0  0  0
   -2.1579    1.3141    0.0001 C   0  0  0  0  0  0  0  0  0  0  0  0
   -2.1981   -1.5790   -0.0007 C   0  0  0  0  0  0  0  0  0  0  0  0
    2.7754    1.1926   -0.0001 C   0  0  0  0  0  0  0  0  0  0  0  0
    2.7370   -1.5942    0.0007 C   0  0  0  0  0  0  0  0  0  0  0  0
   -3.4233    0.5517    0.0011 C   0  0  0  0  0  0  0  0  0  0  0  0
   -3.4417   -0.7817    0.0009 C   0  0  0  0  0  0  0  0  0  0  0  0
    3.9736    0.4780    0.0007 C   0  0  0  0  0  0  0  0  0  0  0  0
    3.9544   -0.9132    0.0013 C   0  0  0  0  0  0  0  0  0  0  0  0
    0.2744   -2.6520   -0.0004 H   0  0  0  0  0  0  0  0  0  0  0  0
    2.8506    2.2765    0.0174 H   0  0  0  0  0  0  0  0  0  0  0  0
    2.7463   -2.6822    0.0013 H   0  0  0  0  0  0  0  0  0  0  0  0
   -4.3490    1.1169    0.0022 H   0  0  0  0  0  0  0  0  0  0  0  0
   -4.3819   -1.3223    0.0016 H   0  0  0  0  0  0  0  0  0  0  0  0
    4.9218    1.0078    0.0051 H   0  0  0  0  0  0  0  0  0  0  0  0
    4.8871   -1.4696    0.0031 H   0  0  0  0  0  0  0  0  0  0  0  0
    1.0707    2.9030   -0.5899 H   0  0  0  0  0  0  0  0  0  0  0  0
  1  8  1  0  0  0  0
  1 25  1  0  0  0  0
  2 10  2  0  0  0  0
  3 11  2  0  0  0  0
  4  5  1  0  0  0  0
  4  8  2  0  0  0  0
  4 10  1  0  0  0  0
  5  9  2  0  0  0  0
  5 11  1  0  0  0  0
  6  7  1  0  0  0  0
  6  8  1  0  0  0  0
  6 12  2  0  0  0  0
  7  9  1  0  0  0  0
  7 13  2  0  0  0  0
  9 18  1  0  0  0  0
 10 14  1  0  0  0  0
 11 15  1  0  0  0  0
 12 16  1  0  0  0  0
 12 19  1  0  0  0  0
 13 17  1  0  0  0  0
 13 20  1  0  0  0  0
 14 15  2  0  0  0  0
 14 21  1  0  0  0  0
 15 22  1  0  0  0  0
 16 17  2  0  0  0  0
 16 23  1  0  0  0  0
 17 24  1  0  0  0  0
M  END
> <PUBCHEM_COMPOUND_CID>
358258

> <PUBCHEM_CONFORMER_RMSD>
0.4

> <PUBCHEM_CONFORMER_DIVERSEORDER>
1

> <PUBCHEM_MMFF94_PARTIAL_CHARGES>
23
1 -0.53
10 0.47
11 0.47
12 -0.15
13 -0.15
14 -0.14
15 -0.14
16 -0.15
17 -0.15
18 0.15
19 0.15
2 -0.57
20 0.15
21 0.15
22 0.15
23 0.15
24 0.15
25 0.45
3 -0.57
4 0.09
5 0.09
8 0.08
9 -0.15

> <PUBCHEM_EFFECTIVE_ROTOR_COUNT>
0

> <PUBCHEM_PHARMACOPHORE_FEATURES>
6
1 1 donor
1 2 acceptor
1 3 acceptor
6 4 5 10 11 14 15 rings
6 4 5 6 7 8 9 rings
6 6 7 12 13 16 17 rings

> <PUBCHEM_HEAVY_ATOM_COUNT>
17

> <PUBCHEM_ATOM_DEF_STEREO_COUNT>
0

> <PUBCHEM_ATOM_UDEF_STEREO_COUNT>
0

> <PUBCHEM_BOND_DEF_STEREO_COUNT>
0

> <PUBCHEM_BOND_UDEF_STEREO_COUNT>
0

> <PUBCHEM_ISOTOPIC_ATOM_COUNT>
0

> <PUBCHEM_COMPONENT_COUNT>
1

> <PUBCHEM_CACTVS_TAUTO_COUNT>
5

> <PUBCHEM_CONFORMER_ID>
0005777200000001

> <PUBCHEM_MMFF94_ENERGY>
55.5208

> <PUBCHEM_FEATURE_SELFOVERLAP>
30.493

> <PUBCHEM_SHAPE_FINGERPRINT>
10608611 8 18412541007448933392
10616163 171 18411703209637768350
10967382 1 18338516339595118598
11132069 177 18410568500726173136
12032990 46 18411142428579216022
12382932 28 18340769247679099992
12730499 353 17395568395237992893
13140716 1 18194970866404826313
13221675 6 18410292518801799755
13380535 76 18341048514921600015
13583140 156 14117527523154659887
14115302 16 18114187474990138455
14144814 61 18410575067541290618
14790565 3 18195816167757141665
15196674 1 18410855455849031751
15442244 35 18265612079076389802
15536298 74 18342738520644699794
16945 1 18410856602826878341
17804303 29 18413675707522102444
193761 8 18122344854556124964
19591789 44 15748963824305592054
200 152 18060127757033552637
20510252 161 18272089336203196361
21029758 11 18343012290344969665
21267235 1 18410302401595634698
21501502 16 18410012139263146230
221490 88 18264496250904682130
2334 1 18411136935210425962
23402539 116 18343292661678343111
23463225 33 18408886230850713116
23557571 272 18272942596308083614
23559900 14 18270397171419496214
238 59 15948194321736224205
2748010 2 18412262830938378454
3312278 4 18410858797386465594
335352 9 17978229361811924094
34934 24 18410003347322848434
474 4 17096659879926137596
5104073 3 18410856559655634306
54173680 148 18410013281635094547
69090 78 18341327816919009487
7364860 26 18197497548215142472
8809292 202 18334297608063886699
9709674 26 18342179942678355462

> <PUBCHEM_SHAPE_MULTIPOLES>
332.24
6.38
2.53
0.6
2.24
0.21
0
-0.73
0
-1.14
0
0.02
-0.01
0

> <PUBCHEM_SHAPE_SELFOVERLAP>
755.768

> <PUBCHEM_SHAPE_VOLUME>
172.4

> <PUBCHEM_COORDINATE_TYPE>
2
5
10

$$$$
