6427278
  -OEChem-11012400503D

 34 35  0     1  0  0  0  0  0999 V2000
   -1.3613   -1.2128   -0.7943 O   0  0  0  0  0  0  0  0  0  0  0  0
   -0.1788    2.0953    0.0670 O   0  0  0  0  0  0  0  0  0  0  0  0
   -3.3323   -1.8207    0.2462 O   0  0  0  0  0  0  0  0  0  0  0  0
   -2.1912    2.5496   -0.9724 O   0  0  0  0  0  0  0  0  0  0  0  0
   -1.1625   -0.0879    0.0581 C   0  0  2  0  0  0  0  0  0  0  0  0
   -0.0675    0.8047   -0.5356 C   0  0  2  0  0  0  0  0  0  0  0  0
   -0.7882   -0.5494    1.4659 C   0  0  0  0  0  0  0  0  0  0  0  0
    0.5109   -1.3542    1.4607 C   0  0  0  0  0  0  0  0  0  0  0  0
    1.3326    0.2689   -0.3217 C   0  0  0  0  0  0  0  0  0  0  0  0
    1.6066   -0.7177    0.6439 C   0  0  0  0  0  0  0  0  0  0  0  0
    2.3893    0.7910   -1.0868 C   0  0  0  0  0  0  0  0  0  0  0  0
    2.9243   -1.1726    0.8105 C   0  0  0  0  0  0  0  0  0  0  0  0
    3.6951    0.3372   -0.9043 C   0  0  0  0  0  0  0  0  0  0  0  0
    3.9624   -0.6449    0.0440 C   0  0  0  0  0  0  0  0  0  0  0  0
   -2.3265   -2.0925   -0.3954 C   0  0  0  0  0  0  0  0  0  0  0  0
   -1.3975    2.6955   -0.0527 C   0  0  0  0  0  0  0  0  0  0  0  0
   -1.9772   -3.4726   -0.8637 C   0  0  0  0  0  0  0  0  0  0  0  0
   -1.6382    3.5830    1.1306 C   0  0  0  0  0  0  0  0  0  0  0  0
   -2.1250    0.4265    0.1257 H   0  0  0  0  0  0  0  0  0  0  0  0
   -0.2244    0.9004   -1.6192 H   0  0  0  0  0  0  0  0  0  0  0  0
   -1.5726   -1.1560    1.9301 H   0  0  0  0  0  0  0  0  0  0  0  0
   -0.6642    0.3310    2.1102 H   0  0  0  0  0  0  0  0  0  0  0  0
    0.3261   -2.3583    1.0620 H   0  0  0  0  0  0  0  0  0  0  0  0
    0.8478   -1.4741    2.4978 H   0  0  0  0  0  0  0  0  0  0  0  0
    2.1964    1.5606   -1.8305 H   0  0  0  0  0  0  0  0  0  0  0  0
    3.1470   -1.9471    1.5406 H   0  0  0  0  0  0  0  0  0  0  0  0
    4.5019    0.7497   -1.5029 H   0  0  0  0  0  0  0  0  0  0  0  0
    4.9779   -1.0032    0.1847 H   0  0  0  0  0  0  0  0  0  0  0  0
   -1.0241   -3.7851   -0.4308 H   0  0  0  0  0  0  0  0  0  0  0  0
   -1.9281   -3.4914   -1.9552 H   0  0  0  0  0  0  0  0  0  0  0  0
   -2.7523   -4.1723   -0.5381 H   0  0  0  0  0  0  0  0  0  0  0  0
   -0.8682    4.3572    1.1764 H   0  0  0  0  0  0  0  0  0  0  0  0
   -1.6403    2.9866    2.0464 H   0  0  0  0  0  0  0  0  0  0  0  0
   -2.6135    4.0674    1.0280 H   0  0  0  0  0  0  0  0  0  0  0  0
  1  5  1  0  0  0  0
  1 15  1  0  0  0  0
  2  6  1  0  0  0  0
  2 16  1  0  0  0  0
  3 15  2  0  0  0  0
  4 16  2  0  0  0  0
  5  6  1  0  0  0  0
  5  7  1  0  0  0  0
  5 19  1  0  0  0  0
  6  9  1  0  0  0  0
  6 20  1  0  0  0  0
  7  8  1  0  0  0  0
  7 21  1  0  0  0  0
  7 22  1  0  0  0  0
  8 10  1  0  0  0  0
  8 23  1  0  0  0  0
  8 24  1  0  0  0  0
  9 10  1  0  0  0  0
  9 11  2  0  0  0  0
 10 12  2  0  0  0  0
 11 13  1  0  0  0  0
 11 25  1  0  0  0  0
 12 14  1  0  0  0  0
 12 26  1  0  0  0  0
 13 14  2  0  0  0  0
 13 27  1  0  0  0  0
 14 28  1  0  0  0  0
 15 17  1  0  0  0  0
 16 18  1  0  0  0  0
 17 29  1  0  0  0  0
 17 30  1  0  0  0  0
 17 31  1  0  0  0  0
 18 32  1  0  0  0  0
 18 33  1  0  0  0  0
 18 34  1  0  0  0  0
M  END
> <PUBCHEM_COMPOUND_CID>
6427278

> <PUBCHEM_CONFORMER_RMSD>
0.6

> <PUBCHEM_CONFORMER_DIVERSEORDER>
1
6
15
4
14
19
20
16
21
17
3
7
10
12
11
8
13
9
18
2
5

> <PUBCHEM_MMFF94_PARTIAL_CHARGES>
21
1 -0.43
10 -0.14
11 -0.15
12 -0.15
13 -0.15
14 -0.15
15 0.66
16 0.66
17 0.06
18 0.06
2 -0.43
25 0.15
26 0.15
27 0.15
28 0.15
3 -0.57
4 -0.57
5 0.28
6 0.42
8 0.14
9 -0.14

> <PUBCHEM_EFFECTIVE_ROTOR_COUNT>
4.8

> <PUBCHEM_PHARMACOPHORE_FEATURES>
4
1 3 acceptor
1 4 acceptor
6 5 6 7 8 9 10 rings
6 9 10 11 12 13 14 rings

> <PUBCHEM_HEAVY_ATOM_COUNT>
18

> <PUBCHEM_ATOM_DEF_STEREO_COUNT>
2

> <PUBCHEM_ATOM_UDEF_STEREO_COUNT>
0

> <PUBCHEM_BOND_DEF_STEREO_COUNT>
0

> <PUBCHEM_BOND_UDEF_STEREO_COUNT>
0

> <PUBCHEM_ISOTOPIC_ATOM_COUNT>
0

> <PUBCHEM_COMPONENT_COUNT>
1

> <PUBCHEM_CACTVS_TAUTO_COUNT>
1

> <PUBCHEM_CONFORMER_ID>
0062128E00000001

> <PUBCHEM_MMFF94_ENERGY>
44.3926

> <PUBCHEM_FEATURE_SELFOVERLAP>
20.318

> <PUBCHEM_SHAPE_FINGERPRINT>
10764073 3 14799144507124282135
11578080 2 17916857053659201513
12400797 292 17405147812241287230
12553582 1 18267300017997768927
12788726 201 18408888446816798978
13538477 17 18262794064938842532
13583140 156 17487872585562904106
14178342 30 18191288409048845210
14617773 55 18259985959528113608
14787075 74 17830166167147371476
15279307 12 18116993274061133130
15309172 13 17832426397380764240
15490181 8 17762616184009272085
15852999 172 17700405880492024382
15906896 17 18262814955511843619
16752209 62 18265877108649399207
16945 1 18340763758726732816
18785283 64 17331136996115509435
200 152 18114741650621045526
20361792 2 18126844021819873095
20645477 70 17331950029457729735
20671657 53 18053662761379552143
21501502 16 18187368684455230346
21524375 3 17972886856182310864
22112679 90 18126025950929933763
23402539 116 18261387905900351110
23419403 2 16458188904740075256
23557571 272 18271794749049741224
23559900 14 18056190281979199826
25147074 1 17968381152785512018
3060560 45 17327730700296976958
3091708 16 9060661375765232033
352729 6 18050560751388107299
458136 41 17550680910987439233
53812653 217 18337402555965032886
7164475 11 18335698325953723022
7364860 26 17477765049371146767
7832392 63 18195808707345629191
81228 2 18334868233150181224
90525 40 18192992621300199295

> <PUBCHEM_SHAPE_MULTIPOLES>
346.95
5.14
3.78
1.25
4.1
1.34
0.25
-1.4
-0.79
-4.97
-0.13
0.07
-0.06
-1.02

> <PUBCHEM_SHAPE_SELFOVERLAP>
730.989

> <PUBCHEM_SHAPE_VOLUME>
192.8

> <PUBCHEM_COORDINATE_TYPE>
2
5
10

$$$$
