6544483
  -OEChem-11012400383D

 18 18  0     1  0  0  0  0  0999 V2000
    2.2144    1.3029    1.0061 O   0  0  0  0  0  0  0  0  0  0  0  0
   -2.2163    1.3000   -1.0078 O   0  0  0  0  0  0  0  0  0  0  0  0
    2.2902    0.5142   -1.1312 O   0  0  0  0  0  0  0  0  0  0  0  0
   -2.2890    0.5161    1.1313 O   0  0  0  0  0  0  0  0  0  0  0  0
    0.6307   -0.4092    0.4451 C   0  0  1  0  0  0  0  0  0  0  0  0
   -0.6297   -0.4087   -0.4450 C   0  0  1  0  0  0  0  0  0  0  0  0
    0.7601   -1.9138    0.1282 C   0  0  0  0  0  0  0  0  0  0  0  0
   -0.7615   -1.9126   -0.1269 C   0  0  0  0  0  0  0  0  0  0  0  0
    1.8044    0.5049   -0.0099 C   0  0  0  0  0  0  0  0  0  0  0  0
   -1.8033    0.5060    0.0101 C   0  0  0  0  0  0  0  0  0  0  0  0
    0.3879   -0.2498    1.5072 H   0  0  0  0  0  0  0  0  0  0  0  0
   -0.3868   -0.2501   -1.5071 H   0  0  0  0  0  0  0  0  0  0  0  0
    1.0958   -2.5459    0.9545 H   0  0  0  0  0  0  0  0  0  0  0  0
    1.3567   -2.1456   -0.7617 H   0  0  0  0  0  0  0  0  0  0  0  0
   -1.0983   -2.5448   -0.9527 H   0  0  0  0  0  0  0  0  0  0  0  0
   -1.3585   -2.1429    0.7631 H   0  0  0  0  0  0  0  0  0  0  0  0
    2.9527    1.8897    0.7360 H   0  0  0  0  0  0  0  0  0  0  0  0
   -2.9556    1.8858   -0.7386 H   0  0  0  0  0  0  0  0  0  0  0  0
  1  9  1  0  0  0  0
  1 17  1  0  0  0  0
  2 10  1  0  0  0  0
  2 18  1  0  0  0  0
  3  9  2  0  0  0  0
  4 10  2  0  0  0  0
  5  6  1  0  0  0  0
  5  7  1  0  0  0  0
  5  9  1  0  0  0  0
  5 11  1  0  0  0  0
  6  8  1  0  0  0  0
  6 10  1  0  0  0  0
  6 12  1  0  0  0  0
  7  8  1  0  0  0  0
  7 13  1  0  0  0  0
  7 14  1  0  0  0  0
  8 15  1  0  0  0  0
  8 16  1  0  0  0  0
M  END
> <PUBCHEM_COMPOUND_CID>
6544483

> <PUBCHEM_CONFORMER_RMSD>
0.6

> <PUBCHEM_CONFORMER_DIVERSEORDER>
1
3
5
6
4
2

> <PUBCHEM_MMFF94_PARTIAL_CHARGES>
10
1 -0.65
10 0.67
17 0.5
18 0.5
2 -0.65
3 -0.57
4 -0.57
5 0.05
6 0.05
9 0.67

> <PUBCHEM_EFFECTIVE_ROTOR_COUNT>
2.8

> <PUBCHEM_PHARMACOPHORE_FEATURES>
7
1 1 acceptor
1 2 acceptor
1 3 acceptor
1 4 acceptor
3 1 3 9 anion
3 2 4 10 anion
4 5 6 7 8 rings

> <PUBCHEM_HEAVY_ATOM_COUNT>
10

> <PUBCHEM_ATOM_DEF_STEREO_COUNT>
2

> <PUBCHEM_ATOM_UDEF_STEREO_COUNT>
0

> <PUBCHEM_BOND_DEF_STEREO_COUNT>
0

> <PUBCHEM_BOND_UDEF_STEREO_COUNT>
0

> <PUBCHEM_ISOTOPIC_ATOM_COUNT>
0

> <PUBCHEM_COMPONENT_COUNT>
1

> <PUBCHEM_CACTVS_TAUTO_COUNT>
1

> <PUBCHEM_CONFORMER_ID>
0063DC6300000001

> <PUBCHEM_MMFF94_ENERGY>
13.2114

> <PUBCHEM_FEATURE_SELFOVERLAP>
35.634

> <PUBCHEM_SHAPE_FINGERPRINT>
12423570 1 13889172439899146922
15775835 57 18410571790423390244
20653085 51 16629703802083511777
21028194 46 18409163316038576851
21040471 1 18408881854110376342
21922407 69 16443904006542741810
21930827 45 18269569401660147826
5084963 1 18336273400277885558
54338 74 17684640313593939607
81228 2 17906737251479014779

> <PUBCHEM_SHAPE_MULTIPOLES>
182.32
3.17
1.8
0.99
0
0.88
0
-1.82
0
0
0
0
-0.3
0.17

> <PUBCHEM_SHAPE_SELFOVERLAP>
363.355

> <PUBCHEM_SHAPE_VOLUME>
108.8

> <PUBCHEM_COORDINATE_TYPE>
2
5
10

$$$$
