138543
  -OEChem-11012401073D

 35 35  0     1  0  0  0  0  0999 V2000
    0.2451   -2.9250   -0.4715 O   0  0  0  0  0  0  0  0  0  0  0  0
   -0.8810    2.2757   -0.6676 O   0  0  0  0  0  0  0  0  0  0  0  0
    0.6220    0.5600   -0.9245 N   0  0  0  0  0  0  0  0  0  0  0  0
   -1.1926   -1.1787   -0.0541 N   0  0  0  0  0  0  0  0  0  0  0  0
    1.1671   -0.7024   -0.4521 C   0  0  1  0  0  0  0  0  0  0  0  0
   -1.3541    0.1777    0.4456 C   0  0  2  0  0  0  0  0  0  0  0  0
    1.9134   -0.5636    0.8656 C   0  0  0  0  0  0  0  0  0  0  0  0
   -2.8242    0.5679    0.4964 C   0  0  0  0  0  0  0  0  0  0  0  0
    3.1126    0.3989    0.7971 C   0  0  0  0  0  0  0  0  0  0  0  0
    0.0417   -1.7167   -0.3661 C   0  0  0  0  0  0  0  0  0  0  0  0
   -0.5599    1.1073   -0.4592 C   0  0  0  0  0  0  0  0  0  0  0  0
   -3.4406    0.5412   -0.9024 C   0  0  0  0  0  0  0  0  0  0  0  0
   -3.5980   -0.3559    1.4374 C   0  0  0  0  0  0  0  0  0  0  0  0
    4.1263   -0.0096   -0.2727 C   0  0  0  0  0  0  0  0  0  0  0  0
    2.6222    1.8234    0.5278 C   0  0  0  0  0  0  0  0  0  0  0  0
    1.8331   -1.0588   -1.2454 H   0  0  0  0  0  0  0  0  0  0  0  0
   -0.9167    0.2227    1.4489 H   0  0  0  0  0  0  0  0  0  0  0  0
    1.2437   -0.2407    1.6709 H   0  0  0  0  0  0  0  0  0  0  0  0
    2.2784   -1.5535    1.1709 H   0  0  0  0  0  0  0  0  0  0  0  0
   -2.9091    1.5909    0.8857 H   0  0  0  0  0  0  0  0  0  0  0  0
    3.6077    0.3790    1.7761 H   0  0  0  0  0  0  0  0  0  0  0  0
    1.1674    1.1028   -1.5856 H   0  0  0  0  0  0  0  0  0  0  0  0
   -1.9532   -1.8415    0.0533 H   0  0  0  0  0  0  0  0  0  0  0  0
   -3.3998   -0.4559   -1.3537 H   0  0  0  0  0  0  0  0  0  0  0  0
   -4.4983    0.8248   -0.8486 H   0  0  0  0  0  0  0  0  0  0  0  0
   -2.9639    1.2435   -1.5912 H   0  0  0  0  0  0  0  0  0  0  0  0
   -3.7047   -1.3719    1.0455 H   0  0  0  0  0  0  0  0  0  0  0  0
   -4.6107    0.0327    1.5939 H   0  0  0  0  0  0  0  0  0  0  0  0
   -3.1143   -0.4128    2.4183 H   0  0  0  0  0  0  0  0  0  0  0  0
    3.7384    0.1109   -1.2888 H   0  0  0  0  0  0  0  0  0  0  0  0
    4.4307   -1.0532   -0.1416 H   0  0  0  0  0  0  0  0  0  0  0  0
    5.0261    0.6108   -0.1945 H   0  0  0  0  0  0  0  0  0  0  0  0
    2.5323    2.0719   -0.5314 H   0  0  0  0  0  0  0  0  0  0  0  0
    3.3767    2.5233    0.9107 H   0  0  0  0  0  0  0  0  0  0  0  0
    1.6972    2.0584    1.0631 H   0  0  0  0  0  0  0  0  0  0  0  0
  1 10  2  0  0  0  0
  2 11  2  0  0  0  0
  3  5  1  0  0  0  0
  3 11  1  0  0  0  0
  3 22  1  0  0  0  0
  4  6  1  0  0  0  0
  4 10  1  0  0  0  0
  4 23  1  0  0  0  0
  5  7  1  0  0  0  0
  5 10  1  0  0  0  0
  5 16  1  0  0  0  0
  6  8  1  0  0  0  0
  6 11  1  0  0  0  0
  6 17  1  0  0  0  0
  7  9  1  0  0  0  0
  7 18  1  0  0  0  0
  7 19  1  0  0  0  0
  8 12  1  0  0  0  0
  8 13  1  0  0  0  0
  8 20  1  0  0  0  0
  9 14  1  0  0  0  0
  9 15  1  0  0  0  0
  9 21  1  0  0  0  0
 12 24  1  0  0  0  0
 12 25  1  0  0  0  0
 12 26  1  0  0  0  0
 13 27  1  0  0  0  0
 13 28  1  0  0  0  0
 13 29  1  0  0  0  0
 14 30  1  0  0  0  0
 14 31  1  0  0  0  0
 14 32  1  0  0  0  0
 15 33  1  0  0  0  0
 15 34  1  0  0  0  0
 15 35  1  0  0  0  0
M  END
> <PUBCHEM_COMPOUND_CID>
138543

> <PUBCHEM_CONFORMER_RMSD>
0.6

> <PUBCHEM_CONFORMER_DIVERSEORDER>
1
9
8
12
11
3
2
13
5
6
14
7
10
4

> <PUBCHEM_MMFF94_PARTIAL_CHARGES>
10
1 -0.57
10 0.57
11 0.57
2 -0.57
22 0.37
23 0.37
3 -0.73
4 -0.73
5 0.36
6 0.36

> <PUBCHEM_EFFECTIVE_ROTOR_COUNT>
3.8

> <PUBCHEM_PHARMACOPHORE_FEATURES>
7
1 1 acceptor
1 2 acceptor
1 3 donor
1 4 donor
3 8 12 13 hydrophobe
3 9 14 15 hydrophobe
6 3 4 5 6 10 11 rings

> <PUBCHEM_HEAVY_ATOM_COUNT>
15

> <PUBCHEM_ATOM_DEF_STEREO_COUNT>
0

> <PUBCHEM_ATOM_UDEF_STEREO_COUNT>
2

> <PUBCHEM_BOND_DEF_STEREO_COUNT>
0

> <PUBCHEM_BOND_UDEF_STEREO_COUNT>
0

> <PUBCHEM_ISOTOPIC_ATOM_COUNT>
0

> <PUBCHEM_COMPONENT_COUNT>
1

> <PUBCHEM_CACTVS_TAUTO_COUNT>
4

> <PUBCHEM_CONFORMER_ID>
00021D2F00000001

> <PUBCHEM_MMFF94_ENERGY>
48.0436

> <PUBCHEM_FEATURE_SELFOVERLAP>
35.528

> <PUBCHEM_SHAPE_FINGERPRINT>
10219947 1 18409729560384927473
11132069 177 18271514381837099568
12011746 2 18408319960813946564
12119455 92 18410564068235599050
12251169 10 18411135870290742880
12382932 28 18336546113579269841
12491281 212 16630252480108495603
13172582 1 18335709381151829621
14178342 30 18266200399696735867
14648413 74 17690557485737344752
14993402 34 18410003373034415773
15219456 202 18265615368620100055
15309172 13 18412261735563468906
15502708 68 18271525308023014402
15775835 57 18409447007693192112
15848702 151 17274550814959942590
16945 1 18412259502122400638
18175812 5 18260546714473730113
18186145 218 18060702788334396912
18380122 1 18335708174276523467
20528008 55 18411691106171767872
20645477 56 18340479054641685824
20653085 51 14979952618363694178
21501502 16 17977941293849508065
21524375 3 18202557389130714990
22959321 45 18335985371529123936
23493267 7 17676203529067333673
23557571 272 17676776379463489933
23559900 14 17386279879550169202
2748010 2 18338249244364399359
296302 2 16515405153186810716
3250762 1 17760368786120282021
3286 77 16844995901311493176
633830 44 17775011175756974345
7364860 26 18055073159766970966
81228 2 17909527795105853026

> <PUBCHEM_SHAPE_MULTIPOLES>
286.99
6.01
2.05
1.07
0.6
0.7
-0.17
-1.34
-1.3
0.29
0.42
-0.48
-0.06
0.47

> <PUBCHEM_SHAPE_SELFOVERLAP>
571.386

> <PUBCHEM_SHAPE_VOLUME>
169

> <PUBCHEM_COORDINATE_TYPE>
2
5
10

$$$$
