142293
  -OEChem-11012401253D

 39 38  0     1  0  0  0  0  0999 V2000
    1.2994    0.8721   -0.0394 O   0  0  0  0  0  0  0  0  0  0  0  0
   -2.1321   -0.1271   -0.5476 O   0  0  0  0  0  0  0  0  0  0  0  0
   -0.7925   -0.2262    0.0209 O   0  0  0  0  0  0  0  0  0  0  0  0
    0.0339    3.2551   -0.7113 O   0  0  0  0  0  0  0  0  0  0  0  0
   -2.8586   -1.2103    0.0143 C   0  0  0  0  0  0  0  0  0  0  0  0
   -0.0463    0.8596   -0.5359 C   0  0  1  0  0  0  0  0  0  0  0  0
   -0.7207    2.1839   -0.1492 C   0  0  1  0  0  0  0  0  0  0  0  0
    3.4246   -0.2101    0.1801 C   0  0  0  0  0  0  0  0  0  0  0  0
    2.0141   -0.3076   -0.3835 C   0  0  0  0  0  0  0  0  0  0  0  0
   -2.1766   -2.5161   -0.3915 C   0  0  0  0  0  0  0  0  0  0  0  0
   -2.8706   -1.0512    1.5340 C   0  0  0  0  0  0  0  0  0  0  0  0
   -4.2789   -1.1503   -0.5436 C   0  0  0  0  0  0  0  0  0  0  0  0
    4.2565   -1.4414   -0.1668 C   0  0  0  0  0  0  0  0  0  0  0  0
   -0.8295    2.3905    1.3584 C   0  0  0  0  0  0  0  0  0  0  0  0
    5.6772   -1.3208    0.3611 C   0  0  0  0  0  0  0  0  0  0  0  0
   -0.0087    0.7627   -1.6286 H   0  0  0  0  0  0  0  0  0  0  0  0
   -1.7266    2.2396   -0.5793 H   0  0  0  0  0  0  0  0  0  0  0  0
    3.3743   -0.0792    1.2684 H   0  0  0  0  0  0  0  0  0  0  0  0
    3.9071    0.6957   -0.2084 H   0  0  0  0  0  0  0  0  0  0  0  0
    2.0498   -0.4070   -1.4746 H   0  0  0  0  0  0  0  0  0  0  0  0
    1.5118   -1.1870    0.0354 H   0  0  0  0  0  0  0  0  0  0  0  0
   -1.1795   -2.6226    0.0499 H   0  0  0  0  0  0  0  0  0  0  0  0
   -2.7667   -3.3840   -0.0773 H   0  0  0  0  0  0  0  0  0  0  0  0
   -2.0448   -2.5647   -1.4786 H   0  0  0  0  0  0  0  0  0  0  0  0
   -1.8720   -1.1394    1.9753 H   0  0  0  0  0  0  0  0  0  0  0  0
   -3.5024   -1.8131    2.0038 H   0  0  0  0  0  0  0  0  0  0  0  0
   -3.2562   -0.0658    1.8190 H   0  0  0  0  0  0  0  0  0  0  0  0
   -4.9033   -1.9596   -0.1513 H   0  0  0  0  0  0  0  0  0  0  0  0
   -4.7544   -0.1942   -0.2963 H   0  0  0  0  0  0  0  0  0  0  0  0
   -4.2708   -1.2174   -1.6376 H   0  0  0  0  0  0  0  0  0  0  0  0
    3.7889   -2.3381    0.2564 H   0  0  0  0  0  0  0  0  0  0  0  0
    4.2892   -1.5751   -1.2543 H   0  0  0  0  0  0  0  0  0  0  0  0
   -1.3120    3.3501    1.5751 H   0  0  0  0  0  0  0  0  0  0  0  0
   -1.4107    1.6003    1.8393 H   0  0  0  0  0  0  0  0  0  0  0  0
    0.1611    2.4316    1.8240 H   0  0  0  0  0  0  0  0  0  0  0  0
    6.1840   -0.4520   -0.0708 H   0  0  0  0  0  0  0  0  0  0  0  0
    5.6830   -1.2158    1.4507 H   0  0  0  0  0  0  0  0  0  0  0  0
    6.2547   -2.2139    0.1028 H   0  0  0  0  0  0  0  0  0  0  0  0
   -0.4170    4.0854   -0.4814 H   0  0  0  0  0  0  0  0  0  0  0  0
  1  6  1  0  0  0  0
  1  9  1  0  0  0  0
  2  3  1  0  0  0  0
  2  5  1  0  0  0  0
  3  6  1  0  0  0  0
  4  7  1  0  0  0  0
  4 39  1  0  0  0  0
  5 10  1  0  0  0  0
  5 11  1  0  0  0  0
  5 12  1  0  0  0  0
  6  7  1  0  0  0  0
  6 16  1  0  0  0  0
  7 14  1  0  0  0  0
  7 17  1  0  0  0  0
  8  9  1  0  0  0  0
  8 13  1  0  0  0  0
  8 18  1  0  0  0  0
  8 19  1  0  0  0  0
  9 20  1  0  0  0  0
  9 21  1  0  0  0  0
 10 22  1  0  0  0  0
 10 23  1  0  0  0  0
 10 24  1  0  0  0  0
 11 25  1  0  0  0  0
 11 26  1  0  0  0  0
 11 27  1  0  0  0  0
 12 28  1  0  0  0  0
 12 29  1  0  0  0  0
 12 30  1  0  0  0  0
 13 15  1  0  0  0  0
 13 31  1  0  0  0  0
 13 32  1  0  0  0  0
 14 33  1  0  0  0  0
 14 34  1  0  0  0  0
 14 35  1  0  0  0  0
 15 36  1  0  0  0  0
 15 37  1  0  0  0  0
 15 38  1  0  0  0  0
M  END
> <PUBCHEM_COMPOUND_CID>
142293

> <PUBCHEM_CONFORMER_RMSD>
0.8

> <PUBCHEM_CONFORMER_DIVERSEORDER>
1
109
128
106
93
101
77
129
133
127
26
97
50
118
35
76
74
54
53
126
115
41
11
83
63
58
85
49
56
130
65
47
117
108
113
132
66
10
71
131
48
69
88
29
92
62
36
100
72
61
104
114
94
124
13
134
16
80
4
87
57
119
21
43
123
96
40
67
33
20
23
28
55
82
107
38
79
25
78
122
12
84
120
68
112
90
60
111
99
121
15
105
17
75
73
102
46
6
14
64
95
81
70
125
110
98
52
86
45
32
31
44
51
7
3
5
18
42
103
39
2
19
59
30
8
89
24
116
27
22
9
37
34
91

> <PUBCHEM_MMFF94_PARTIAL_CHARGES>
9
1 -0.56
2 -0.28
3 -0.28
39 0.4
4 -0.68
5 0.28
6 0.56
7 0.28
9 0.28

> <PUBCHEM_EFFECTIVE_ROTOR_COUNT>
8

> <PUBCHEM_PHARMACOPHORE_FEATURES>
5
1 1 acceptor
1 15 hydrophobe
1 4 acceptor
1 4 donor
4 5 10 11 12 hydrophobe

> <PUBCHEM_HEAVY_ATOM_COUNT>
15

> <PUBCHEM_ATOM_DEF_STEREO_COUNT>
0

> <PUBCHEM_ATOM_UDEF_STEREO_COUNT>
2

> <PUBCHEM_BOND_DEF_STEREO_COUNT>
0

> <PUBCHEM_BOND_UDEF_STEREO_COUNT>
0

> <PUBCHEM_ISOTOPIC_ATOM_COUNT>
0

> <PUBCHEM_COMPONENT_COUNT>
1

> <PUBCHEM_CACTVS_TAUTO_COUNT>
1

> <PUBCHEM_CONFORMER_ID>
00022BD500000001

> <PUBCHEM_MMFF94_ENERGY>
23.6274

> <PUBCHEM_FEATURE_SELFOVERLAP>
25.376

> <PUBCHEM_SHAPE_FINGERPRINT>
11265709 11 18410014342375666772
11357001 24 18338802191312406520
12346645 44 9150908173471104727
12553582 1 18268167468400269894
17539 30 18265039267503751341
204376 136 10015588298109043335
20600515 1 18271537454359267717
20645477 70 18046054128336167999
20671657 53 18334862761351186269
20871998 22 18338230582678724472
21061003 4 18411982498417713147
21296965 67 18410290345648509813
21426921 1 18264768758206002084
21650355 55 18341896251382371432
23175994 123 18261112997754361335
23402539 116 18342450422343395199
23419403 2 17844502539989866145
23526113 38 17897441915969032353
23557571 272 18130795499855052500
23559900 14 18410281515760375112
3086196 2 18341329994599180352
312423 11 18261693493097508484
314173 85 18342465832886461102
7364860 26 17909267223681893125
81228 2 18267883699826405977

> <PUBCHEM_SHAPE_MULTIPOLES>
285.22
8.65
3.01
1.01
11.36
2.2
0.36
-8
0.7
-1.28
-0.1
-0.64
0.18
-0.32

> <PUBCHEM_SHAPE_SELFOVERLAP>
526.613

> <PUBCHEM_SHAPE_VOLUME>
182.2

> <PUBCHEM_COORDINATE_TYPE>
2
5
10

$$$$
