141690
  -OEChem-11012400593D

 34 35  0     0  0  0  0  0  0999 V2000
   -0.0738    2.3154    0.5189 O   0  0  0  0  0  0  0  0  0  0  0  0
    0.5214   -0.7459    2.9659 O   0  5  0  0  0  0  0  0  0  0  0  0
    1.5467    1.9044   -2.7269 O   0  5  0  0  0  0  0  0  0  0  0  0
   -0.2260   -2.0590    1.3734 O   0  0  0  0  0  0  0  0  0  0  0  0
    2.2939    3.2180   -1.1346 O   0  0  0  0  0  0  0  0  0  0  0  0
   -2.3859    1.5470    2.6458 O   0  5  0  0  0  0  0  0  0  0  0  0
   -2.7887    2.9890    1.0403 O   0  0  0  0  0  0  0  0  0  0  0  0
    5.2540   -2.4380    0.6260 O   0  5  0  0  0  0  0  0  0  0  0  0
    5.9057   -0.9812   -0.8814 O   0  0  0  0  0  0  0  0  0  0  0  0
   -4.7613   -2.5757   -1.9635 O   0  5  0  0  0  0  0  0  0  0  0  0
   -5.8907   -1.3269   -0.5550 O   0  0  0  0  0  0  0  0  0  0  0  0
    0.5645   -1.1814    1.7918 N   0  3  0  0  0  0  0  0  0  0  0  0
    2.0225    2.0791   -1.5809 N   0  3  0  0  0  0  0  0  0  0  0  0
   -2.5603    1.8217    1.4354 N   0  3  0  0  0  0  0  0  0  0  0  0
    5.0375   -1.4363   -0.0980 N   0  3  0  0  0  0  0  0  0  0  0  0
   -4.8168   -1.6517   -1.1164 N   0  3  0  0  0  0  0  0  0  0  0  0
    1.2820    0.4548    0.1062 C   0  0  0  0  0  0  0  0  0  0  0  0
   -1.2905    0.4278   -0.1345 C   0  0  0  0  0  0  0  0  0  0  0  0
   -0.0491    1.1252    0.1788 C   0  0  0  0  0  0  0  0  0  0  0  0
    1.5457   -0.6604    0.9017 C   0  0  0  0  0  0  0  0  0  0  0  0
    2.2629    0.9433   -0.7568 C   0  0  0  0  0  0  0  0  0  0  0  0
   -2.4961    0.7720    0.4767 C   0  0  0  0  0  0  0  0  0  0  0  0
    2.7900   -1.2869    0.8341 C   0  0  0  0  0  0  0  0  0  0  0  0
    3.5072    0.3167   -0.8245 C   0  0  0  0  0  0  0  0  0  0  0  0
    3.7708   -0.7983   -0.0291 C   0  0  0  0  0  0  0  0  0  0  0  0
   -1.2530   -0.6063   -1.0698 C   0  0  0  0  0  0  0  0  0  0  0  0
   -3.6644    0.0822    0.1526 C   0  0  0  0  0  0  0  0  0  0  0  0
   -3.6268   -0.9521   -0.7825 C   0  0  0  0  0  0  0  0  0  0  0  0
   -2.4212   -1.2963   -1.3937 C   0  0  0  0  0  0  0  0  0  0  0  0
    2.9750   -2.1556    1.4632 H   0  0  0  0  0  0  0  0  0  0  0  0
    4.2583    0.7137   -1.5046 H   0  0  0  0  0  0  0  0  0  0  0  0
   -0.3351   -0.8884   -1.5782 H   0  0  0  0  0  0  0  0  0  0  0  0
   -4.5944    0.3669    0.6409 H   0  0  0  0  0  0  0  0  0  0  0  0
   -2.3552   -2.0934   -2.1298 H   0  0  0  0  0  0  0  0  0  0  0  0
  1 19  2  0  0  0  0
  2 12  1  0  0  0  0
  3 13  1  0  0  0  0
  4 12  2  0  0  0  0
  5 13  2  0  0  0  0
  6 14  1  0  0  0  0
  7 14  2  0  0  0  0
  8 15  1  0  0  0  0
  9 15  2  0  0  0  0
 10 16  1  0  0  0  0
 11 16  2  0  0  0  0
 12 20  1  0  0  0  0
 13 21  1  0  0  0  0
 14 22  1  0  0  0  0
 15 25  1  0  0  0  0
 16 28  1  0  0  0  0
 17 19  1  0  0  0  0
 17 20  2  0  0  0  0
 17 21  1  0  0  0  0
 18 19  1  0  0  0  0
 18 22  2  0  0  0  0
 18 26  1  0  0  0  0
 20 23  1  0  0  0  0
 21 24  2  0  0  0  0
 22 27  1  0  0  0  0
 23 25  2  0  0  0  0
 23 30  1  0  0  0  0
 24 25  1  0  0  0  0
 24 31  1  0  0  0  0
 26 29  2  0  0  0  0
 26 32  1  0  0  0  0
 27 28  2  0  0  0  0
 27 33  1  0  0  0  0
 28 29  1  0  0  0  0
 29 34  1  0  0  0  0
M  CHG  8   2  -1   3  -1   6  -1   8  -1  10  -1  12   1  13   1  14   1
M  CHG  2  15   1  16   1
M  END
> <PUBCHEM_COMPOUND_CID>
141690

> <PUBCHEM_CONFORMER_RMSD>
0.8

> <PUBCHEM_CONFORMER_DIVERSEORDER>
1
4
7
6
2
3
5

> <PUBCHEM_MMFF94_PARTIAL_CHARGES>
34
1 -0.57
10 -0.52
11 -0.52
12 0.91
13 0.91
14 0.91
15 0.91
16 0.91
17 0.09
18 0.09
19 0.4
2 -0.52
20 0.13
21 0.13
22 0.13
23 -0.15
24 -0.15
25 0.13
26 -0.15
27 -0.15
28 0.13
29 -0.15
3 -0.52
30 0.15
31 0.15
32 0.15
33 0.15
34 0.15
4 -0.52
5 -0.52
6 -0.52
7 -0.52
8 -0.52
9 -0.52

> <PUBCHEM_EFFECTIVE_ROTOR_COUNT>
7

> <PUBCHEM_PHARMACOPHORE_FEATURES>
18
1 1 acceptor
1 10 acceptor
1 10 anion
1 11 acceptor
1 2 acceptor
1 2 anion
1 3 acceptor
1 3 anion
1 4 acceptor
1 5 acceptor
1 6 acceptor
1 6 anion
1 7 acceptor
1 8 acceptor
1 8 anion
1 9 acceptor
6 17 20 21 23 24 25 rings
6 18 22 26 27 28 29 rings

> <PUBCHEM_HEAVY_ATOM_COUNT>
29

> <PUBCHEM_ATOM_DEF_STEREO_COUNT>
0

> <PUBCHEM_ATOM_UDEF_STEREO_COUNT>
0

> <PUBCHEM_BOND_DEF_STEREO_COUNT>
0

> <PUBCHEM_BOND_UDEF_STEREO_COUNT>
0

> <PUBCHEM_ISOTOPIC_ATOM_COUNT>
0

> <PUBCHEM_COMPONENT_COUNT>
1

> <PUBCHEM_CACTVS_TAUTO_COUNT>
1

> <PUBCHEM_CONFORMER_ID>
0002297A00000001

> <PUBCHEM_MMFF94_ENERGY>
118.0756

> <PUBCHEM_FEATURE_SELFOVERLAP>
91.777

> <PUBCHEM_SHAPE_FINGERPRINT>
11578080 2 18194373706658188213
12236239 1 18410013208451540117
12788726 201 17845106215044110257
13009979 54 18272937115344322729
13149001 5 17531825644096990914
13583140 156 17677343689104726337
13911987 19 16805617936604601886
14178342 30 17560534893130190149
16752209 62 18201422655045577469
17349148 13 18334858303412561954
17492 54 17530685407547291614
1813 80 18334864862075406710
19784866 135 17917985083948865367
22393880 68 17313372479057061591
23402539 116 18188776024973965570
23557571 272 16988576670701429389
23559900 14 18042686285533675972
238 59 17313373561208985099
25147074 1 18341910600752212165
3004659 81 18337662105487450495
312423 11 18340217370141058589
34934 24 17754178578695766664
70251023 43 18113892762939987181
7471813 234 18412258467135925108
7970288 3 18130213982479417119
9981440 41 17544474610520802408

> <PUBCHEM_SHAPE_MULTIPOLES>
507.34
9.95
2.82
2.07
0.78
1.27
0.57
-7.18
-3.2
-0.33
-0.32
-0.5
0.31
-3.19

> <PUBCHEM_SHAPE_SELFOVERLAP>
1113.199

> <PUBCHEM_SHAPE_VOLUME>
273.1

> <PUBCHEM_COORDINATE_TYPE>
2
5
10

$$$$
