14332
  -OEChem-11012400573D

 23 23  0     0  0  0  0  0  0999 V2000
    0.8014    2.6936    0.0001 O   0  0  0  0  0  0  0  0  0  0  0  0
    2.3995   -1.8046    0.0006 O   0  0  0  0  0  0  0  0  0  0  0  0
   -3.2947    0.0400    0.0011 O   0  0  0  0  0  0  0  0  0  0  0  0
   -2.7207   -2.1594    0.0001 O   0  0  0  0  0  0  0  0  0  0  0  0
   -1.0126   -0.4841   -0.0005 C   0  0  0  0  0  0  0  0  0  0  0  0
    0.5545    1.3548   -0.0003 C   0  0  0  0  0  0  0  0  0  0  0  0
    1.3634   -0.9218   -0.0005 C   0  0  0  0  0  0  0  0  0  0  0  0
    0.0490   -1.3888   -0.0007 C   0  0  0  0  0  0  0  0  0  0  0  0
   -0.7599    0.8877   -0.0005 C   0  0  0  0  0  0  0  0  0  0  0  0
    1.6161    0.4501   -0.0003 C   0  0  0  0  0  0  0  0  0  0  0  0
   -2.3832   -0.9711   -0.0002 C   0  0  0  0  0  0  0  0  0  0  0  0
   -0.3303    3.5623    0.0003 C   0  0  0  0  0  0  0  0  0  0  0  0
    3.7176   -1.2586    0.0007 C   0  0  0  0  0  0  0  0  0  0  0  0
   -0.1330   -2.4608   -0.0006 H   0  0  0  0  0  0  0  0  0  0  0  0
   -1.6005    1.5708   -0.0004 H   0  0  0  0  0  0  0  0  0  0  0  0
    2.6144    0.8749    0.0001 H   0  0  0  0  0  0  0  0  0  0  0  0
   -0.9281    3.4463    0.9108 H   0  0  0  0  0  0  0  0  0  0  0  0
   -0.9280    3.4468   -0.9103 H   0  0  0  0  0  0  0  0  0  0  0  0
    0.0519    4.5884    0.0006 H   0  0  0  0  0  0  0  0  0  0  0  0
    4.4164   -2.1015    0.0010 H   0  0  0  0  0  0  0  0  0  0  0  0
    3.9139   -0.6807    0.9102 H   0  0  0  0  0  0  0  0  0  0  0  0
    3.9142   -0.6813   -0.9091 H   0  0  0  0  0  0  0  0  0  0  0  0
   -4.2154   -0.2987    0.0019 H   0  0  0  0  0  0  0  0  0  0  0  0
  1  6  1  0  0  0  0
  1 12  1  0  0  0  0
  2  7  1  0  0  0  0
  2 13  1  0  0  0  0
  3 11  1  0  0  0  0
  3 23  1  0  0  0  0
  4 11  2  0  0  0  0
  5  8  2  0  0  0  0
  5  9  1  0  0  0  0
  5 11  1  0  0  0  0
  6  9  2  0  0  0  0
  6 10  1  0  0  0  0
  7  8  1  0  0  0  0
  7 10  2  0  0  0  0
  8 14  1  0  0  0  0
  9 15  1  0  0  0  0
 10 16  1  0  0  0  0
 12 17  1  0  0  0  0
 12 18  1  0  0  0  0
 12 19  1  0  0  0  0
 13 20  1  0  0  0  0
 13 21  1  0  0  0  0
 13 22  1  0  0  0  0
M  END
> <PUBCHEM_COMPOUND_CID>
14332

> <PUBCHEM_CONFORMER_RMSD>
0.6

> <PUBCHEM_CONFORMER_DIVERSEORDER>
2
6
4
3
1
5

> <PUBCHEM_MMFF94_PARTIAL_CHARGES>
17
1 -0.36
10 -0.15
11 0.63
12 0.28
13 0.28
14 0.15
15 0.15
16 0.15
2 -0.36
23 0.5
3 -0.65
4 -0.57
5 0.09
6 0.08
7 0.08
8 -0.15
9 -0.15

> <PUBCHEM_EFFECTIVE_ROTOR_COUNT>
3

> <PUBCHEM_PHARMACOPHORE_FEATURES>
6
1 1 acceptor
1 2 acceptor
1 3 acceptor
1 4 acceptor
3 3 4 11 anion
6 5 6 7 8 9 10 rings

> <PUBCHEM_HEAVY_ATOM_COUNT>
13

> <PUBCHEM_ATOM_DEF_STEREO_COUNT>
0

> <PUBCHEM_ATOM_UDEF_STEREO_COUNT>
0

> <PUBCHEM_BOND_DEF_STEREO_COUNT>
0

> <PUBCHEM_BOND_UDEF_STEREO_COUNT>
0

> <PUBCHEM_ISOTOPIC_ATOM_COUNT>
0

> <PUBCHEM_COMPONENT_COUNT>
1

> <PUBCHEM_CACTVS_TAUTO_COUNT>
1

> <PUBCHEM_CONFORMER_ID>
000037FC00000002

> <PUBCHEM_MMFF94_ENERGY>
53.7075

> <PUBCHEM_FEATURE_SELFOVERLAP>
30.506

> <PUBCHEM_SHAPE_FINGERPRINT>
1 1 17834114529944163900
10967382 1 18122625221425953031
13380535 76 17543905062942946706
14648413 74 18264207096505080971
16945 1 18122344579894541326
17841504 4 18337112396659726659
17990270 104 18265329689002548355
193761 8 17618222149408404742
20510252 161 18054223228978474328
20645477 70 18048867787387790375
20871998 184 18057036904951106782
20871998 22 18270972258175257102
21040471 1 17185876636388037860
21130352 189 18410851049481643941
21524375 3 17191795290358483237
2334 1 18410856606916078340
23402539 116 18127679449309984439
23526114 1 18338799034347731814
23552423 10 18123753320699118047
23557571 272 18057330479441572966
241688 4 18410856516774578040
2748010 2 18412252943839266996
3071541 12 18194969762229322996
3071541 158 18261109698823975852
3071541 236 17757538664876219712
3071541 250 18338249261633640462
54173680 148 18193839236674091274
68521 5 18338520716572871356
7364860 26 18195809806287155016
81228 2 18122071909553282440

> <PUBCHEM_SHAPE_MULTIPOLES>
244.06
4.27
3.27
0.59
1.36
3.43
0
-3.29
0
-0.91
0
0.02
0.01
0

> <PUBCHEM_SHAPE_SELFOVERLAP>
508.686

> <PUBCHEM_SHAPE_VOLUME>
140.3

> <PUBCHEM_COORDINATE_TYPE>
2
5
10

$$$$
