450056
  -OEChem-11012400353D

 50 51  0     0  0  0  0  0  0999 V2000
   -4.1765   -0.2449   -0.8497 O   0  0  0  0  0  0  0  0  0  0  0  0
    4.1847    0.0241    0.8505 O   0  0  0  0  0  0  0  0  0  0  0  0
   -1.2454   -3.3645   -1.2505 N   0  0  0  0  0  0  0  0  0  0  0  0
    1.4807   -3.3078    1.2541 N   0  0  0  0  0  0  0  0  0  0  0  0
    0.1125   -3.3213   -0.7603 C   0  0  0  0  0  0  0  0  0  0  0  0
    0.1305   -3.3559    0.7611 C   0  0  0  0  0  0  0  0  0  0  0  0
   -2.1804   -2.4263   -0.9569 C   0  0  0  0  0  0  0  0  0  0  0  0
    2.3521   -2.2963    0.9579 C   0  0  0  0  0  0  0  0  0  0  0  0
   -1.9537   -1.1178   -0.7323 C   0  0  0  0  0  0  0  0  0  0  0  0
    2.0311   -1.0079    0.7326 C   0  0  0  0  0  0  0  0  0  0  0  0
   -3.5942   -2.9468   -0.8949 C   0  0  0  0  0  0  0  0  0  0  0  0
    3.8001   -2.7128    0.8969 C   0  0  0  0  0  0  0  0  0  0  0  0
   -3.0337   -0.1360   -0.4210 C   0  0  0  0  0  0  0  0  0  0  0  0
    3.0372    0.0495    0.4211 C   0  0  0  0  0  0  0  0  0  0  0  0
   -2.6758    1.0343    0.4168 C   0  0  0  0  0  0  0  0  0  0  0  0
    2.5956    1.1904   -0.4174 C   0  0  0  0  0  0  0  0  0  0  0  0
   -1.6699    0.9033    1.3534 C   0  0  0  0  0  0  0  0  0  0  0  0
    1.6023    0.9861   -1.3544 C   0  0  0  0  0  0  0  0  0  0  0  0
   -3.3585    2.2206    0.2350 C   0  0  0  0  0  0  0  0  0  0  0  0
    3.1902    2.4231   -0.2360 C   0  0  0  0  0  0  0  0  0  0  0  0
   -1.3329    2.0040    2.1411 C   0  0  0  0  0  0  0  0  0  0  0  0
    1.1867    2.0590   -2.1430 C   0  0  0  0  0  0  0  0  0  0  0  0
   -3.0214    3.3212    1.0226 C   0  0  0  0  0  0  0  0  0  0  0  0
    2.7745    3.4960   -1.0245 C   0  0  0  0  0  0  0  0  0  0  0  0
   -2.0086    3.2129    1.9757 C   0  0  0  0  0  0  0  0  0  0  0  0
    1.7727    3.3139   -1.9780 C   0  0  0  0  0  0  0  0  0  0  0  0
    0.6233   -2.4469   -1.1753 H   0  0  0  0  0  0  0  0  0  0  0  0
    0.6520   -4.1932   -1.1510 H   0  0  0  0  0  0  0  0  0  0  0  0
   -0.3393   -4.2835    1.1112 H   0  0  0  0  0  0  0  0  0  0  0  0
   -0.4512   -2.5421    1.2066 H   0  0  0  0  0  0  0  0  0  0  0  0
   -1.5892   -4.2748   -1.5414 H   0  0  0  0  0  0  0  0  0  0  0  0
    1.8923   -4.1912    1.5396 H   0  0  0  0  0  0  0  0  0  0  0  0
   -0.9441   -0.7257   -0.7636 H   0  0  0  0  0  0  0  0  0  0  0  0
    0.9956   -0.6902    0.7653 H   0  0  0  0  0  0  0  0  0  0  0  0
   -4.1430   -2.6919   -1.8076 H   0  0  0  0  0  0  0  0  0  0  0  0
   -3.6113   -4.0399   -0.8050 H   0  0  0  0  0  0  0  0  0  0  0  0
   -4.1343   -2.5773   -0.0168 H   0  0  0  0  0  0  0  0  0  0  0  0
    4.3287   -2.4179    1.8094 H   0  0  0  0  0  0  0  0  0  0  0  0
    3.8957   -3.8020    0.8087 H   0  0  0  0  0  0  0  0  0  0  0  0
    4.3121   -2.3065    0.0183 H   0  0  0  0  0  0  0  0  0  0  0  0
   -1.1489   -0.0314    1.5292 H   0  0  0  0  0  0  0  0  0  0  0  0
    1.1520    0.0158   -1.5311 H   0  0  0  0  0  0  0  0  0  0  0  0
   -4.1456    2.3223   -0.5062 H   0  0  0  0  0  0  0  0  0  0  0  0
    3.9675    2.5821    0.5055 H   0  0  0  0  0  0  0  0  0  0  0  0
   -0.5488    1.9179    2.8877 H   0  0  0  0  0  0  0  0  0  0  0  0
    0.4115    1.9157   -2.8901 H   0  0  0  0  0  0  0  0  0  0  0  0
   -3.5465    4.2630    0.8934 H   0  0  0  0  0  0  0  0  0  0  0  0
    3.2298    4.4735   -0.8956 H   0  0  0  0  0  0  0  0  0  0  0  0
   -1.7469    4.0696    2.5898 H   0  0  0  0  0  0  0  0  0  0  0  0
    1.4498    4.1489   -2.5927 H   0  0  0  0  0  0  0  0  0  0  0  0
  1 13  2  0  0  0  0
  2 14  2  0  0  0  0
  3  5  1  0  0  0  0
  3  7  1  0  0  0  0
  3 31  1  0  0  0  0
  4  6  1  0  0  0  0
  4  8  1  0  0  0  0
  4 32  1  0  0  0  0
  5  6  1  0  0  0  0
  5 27  1  0  0  0  0
  5 28  1  0  0  0  0
  6 29  1  0  0  0  0
  6 30  1  0  0  0  0
  7  9  2  3  0  0  0
  7 11  1  0  0  0  0
  8 10  2  3  0  0  0
  8 12  1  0  0  0  0
  9 13  1  0  0  0  0
  9 33  1  0  0  0  0
 10 14  1  0  0  0  0
 10 34  1  0  0  0  0
 11 35  1  0  0  0  0
 11 36  1  0  0  0  0
 11 37  1  0  0  0  0
 12 38  1  0  0  0  0
 12 39  1  0  0  0  0
 12 40  1  0  0  0  0
 13 15  1  0  0  0  0
 14 16  1  0  0  0  0
 15 17  2  0  0  0  0
 15 19  1  0  0  0  0
 16 18  2  0  0  0  0
 16 20  1  0  0  0  0
 17 21  1  0  0  0  0
 17 41  1  0  0  0  0
 18 22  1  0  0  0  0
 18 42  1  0  0  0  0
 19 23  2  0  0  0  0
 19 43  1  0  0  0  0
 20 24  2  0  0  0  0
 20 44  1  0  0  0  0
 21 25  2  0  0  0  0
 21 45  1  0  0  0  0
 22 26  2  0  0  0  0
 22 46  1  0  0  0  0
 23 25  1  0  0  0  0
 23 47  1  0  0  0  0
 24 26  1  0  0  0  0
 24 48  1  0  0  0  0
 25 49  1  0  0  0  0
 26 50  1  0  0  0  0
M  END
> <PUBCHEM_COMPOUND_CID>
450056

> <PUBCHEM_CONFORMER_RMSD>
1

> <PUBCHEM_CONFORMER_DIVERSEORDER>
93
198
238
114
178
170
227
10
125
98
220
41
200
203
13
132
94
1
189
183
171
133
174
248
53
16
207
56
126
9
249
229
235
51
106
60
110
37
195
28
4
83
5
54
26
12
123
108
67
222
243
208
242
32
117
90
15
234
150
66
241
84
34
169
155
97
233
140
45
192
43
44
221
73
223
218
55
196
65
164
85
8
77
237
58
151
3
39
136
165
179
144
157
214
69
27
159
161
138
121
213
211
177
232
135
35
119
226
247
59
230
103
146
47
78
205
50
216
30
212
115
148
91
113
61
156
172
96
163
75
86
42
46
190
244
160
185
188
158
141
142
210
202
24
176
64
250
7
239
193
63
57
153
29
107
102
225
184
31
71
245
215
191
11
88
112
154
167
217
89
166
152
128
62
122
127
194
130
187
182
17
137
162
82
173
240
80
18
79
181
236
81
134
99
116
68
199
145
21
139
224
72
76
168
20
101
49
143
19
70
36
231
129
219
228
25
111
38
40
120
124
118
14
100
74
2
52
147
206
209
48
204
246
186
109
197
104
22
201
6
92
180
23
149
131
33
175
87
95
105

> <PUBCHEM_MMFF94_PARTIAL_CHARGES>
40
1 -0.57
10 -0.14
11 0.14
12 0.14
13 0.47
14 0.47
15 0.09
16 0.09
17 -0.15
18 -0.15
19 -0.15
2 -0.57
20 -0.15
21 -0.15
22 -0.15
23 -0.15
24 -0.15
25 -0.15
26 -0.15
3 -0.87
31 0.4
32 0.4
33 0.15
34 0.15
4 -0.87
41 0.15
42 0.15
43 0.15
44 0.15
45 0.15
46 0.15
47 0.15
48 0.15
49 0.15
5 0.37
50 0.15
6 0.37
7 -0.04
8 -0.04
9 -0.14

> <PUBCHEM_EFFECTIVE_ROTOR_COUNT>
9

> <PUBCHEM_PHARMACOPHORE_FEATURES>
8
1 1 acceptor
1 2 acceptor
1 3 cation
1 3 donor
1 4 cation
1 4 donor
6 15 17 19 21 23 25 rings
6 16 18 20 22 24 26 rings

> <PUBCHEM_HEAVY_ATOM_COUNT>
26

> <PUBCHEM_ATOM_DEF_STEREO_COUNT>
0

> <PUBCHEM_ATOM_UDEF_STEREO_COUNT>
0

> <PUBCHEM_BOND_DEF_STEREO_COUNT>
0

> <PUBCHEM_BOND_UDEF_STEREO_COUNT>
2

> <PUBCHEM_ISOTOPIC_ATOM_COUNT>
0

> <PUBCHEM_COMPONENT_COUNT>
1

> <PUBCHEM_CACTVS_TAUTO_COUNT>
15

> <PUBCHEM_CONFORMER_ID>
0006DE080000005D

> <PUBCHEM_MMFF94_ENERGY>
87.4791

> <PUBCHEM_FEATURE_SELFOVERLAP>
40.596

> <PUBCHEM_SHAPE_FINGERPRINT>
10708813 3 18338231557667604942
11244481 83 16885881120963005521
11513181 2 16984605097674744343
12539773 59 18128797781115531223
12788726 201 18126297577662815685
13402501 40 15815660194951077473
13617811 41 17396678249378392319
13965767 371 17476913558987964778
14117953 113 17762891070152599887
14840074 17 17902527990835343214
14931854 50 17978224194765859447
14932702 115 15882668466817431397
15003188 8 18048577253876081496
15420108 30 18267864982923387328
19319366 153 17975121360010136527
20531524 4 15960612863005503689
20715895 44 18337378337351703445
20764821 26 16175376054042710857
20775438 99 14886773776020723022
21141583 151 17331129802039987748
35225 105 17104576440269499655
469060 322 16524428016239989147
7064713 232 17912346637950244114

> <PUBCHEM_SHAPE_MULTIPOLES>
513.37
7.01
6.07
1.91
0.15
1.42
0
-1.15
0.36
-0.14
-0.28
0.04
-1.08
-4.29

> <PUBCHEM_SHAPE_SELFOVERLAP>
1080.551

> <PUBCHEM_SHAPE_VOLUME>
287.3

> <PUBCHEM_COORDINATE_TYPE>
2
5
10

$$$$
