142199
  -OEChem-11012400543D

 12 11  0     0  0  0  0  0  0999 V2000
   -1.2346   -1.2528   -0.0005 O   0  0  0  0  0  0  0  0  0  0  0  0
    1.5007   -1.1487    0.0001 O   0  5  0  0  0  0  0  0  0  0  0  0
   -0.7177   -0.0885    0.0005 N   0  3  0  0  0  0  0  0  0  0  0  0
    0.7010    0.0377    0.0003 N   0  0  0  0  0  0  0  0  0  0  0  0
   -1.5839    1.0914    0.0000 C   0  0  0  0  0  0  0  0  0  0  0  0
    1.3344    1.3608   -0.0004 C   0  0  0  0  0  0  0  0  0  0  0  0
   -2.6278    0.7671    0.0007 H   0  0  0  0  0  0  0  0  0  0  0  0
   -1.3833    1.6736   -0.9014 H   0  0  0  0  0  0  0  0  0  0  0  0
   -1.3827    1.6748    0.9007 H   0  0  0  0  0  0  0  0  0  0  0  0
    1.0242    1.8970    0.8994 H   0  0  0  0  0  0  0  0  0  0  0  0
    1.0239    1.8964   -0.9004 H   0  0  0  0  0  0  0  0  0  0  0  0
    2.4226    1.2539   -0.0006 H   0  0  0  0  0  0  0  0  0  0  0  0
  1  3  2  0  0  0  0
  2  4  1  0  0  0  0
  3  4  1  0  0  0  0
  3  5  1  0  0  0  0
  4  6  1  0  0  0  0
  5  7  1  0  0  0  0
  5  8  1  0  0  0  0
  5  9  1  0  0  0  0
  6 10  1  0  0  0  0
  6 11  1  0  0  0  0
  6 12  1  0  0  0  0
M  CHG  2   2  -1   3   1
M  END
> <PUBCHEM_COMPOUND_CID>
142199

> <PUBCHEM_CONFORMER_RMSD>
0.4

> <PUBCHEM_CONFORMER_DIVERSEORDER>
2
3
4
1

> <PUBCHEM_MMFF94_PARTIAL_CHARGES>
6
1 -0.63
2 -0.86
3 0.53
4 -0.24
5 0.1
6 0.1

> <PUBCHEM_EFFECTIVE_ROTOR_COUNT>
1

> <PUBCHEM_PHARMACOPHORE_FEATURES>
1
1 2 anion

> <PUBCHEM_HEAVY_ATOM_COUNT>
6

> <PUBCHEM_ATOM_DEF_STEREO_COUNT>
0

> <PUBCHEM_ATOM_UDEF_STEREO_COUNT>
0

> <PUBCHEM_BOND_DEF_STEREO_COUNT>
0

> <PUBCHEM_BOND_UDEF_STEREO_COUNT>
0

> <PUBCHEM_ISOTOPIC_ATOM_COUNT>
0

> <PUBCHEM_COMPONENT_COUNT>
1

> <PUBCHEM_CACTVS_TAUTO_COUNT>
1

> <PUBCHEM_CONFORMER_ID>
00022B7700000002

> <PUBCHEM_MMFF94_ENERGY>
10.939

> <PUBCHEM_FEATURE_SELFOVERLAP>
5.074

> <PUBCHEM_SHAPE_FINGERPRINT>
139733 1 9294416431186255458
16714656 1 17906177243815158670
20096714 4 18410295770155411289
21015797 1 9222691984649716549
21040471 1 18410856529649228805
24536 1 18338219548759762153

> <PUBCHEM_SHAPE_MULTIPOLES>
101.78
2.12
1.56
0.55
0.05
0.01
0
-0.23
0
-0.12
0
0
-0.05
0

> <PUBCHEM_SHAPE_SELFOVERLAP>
171.814

> <PUBCHEM_SHAPE_VOLUME>
69.7

> <PUBCHEM_COORDINATE_TYPE>
2
5
10

$$$$
