143638
  -OEChem-11012400403D

 57 56  0     0  0  0  0  0  0999 V2000
    5.0090    0.1508    0.1614 O   0  0  0  0  0  0  0  0  0  0  0  0
    5.4236   -0.9882   -0.6489 O   0  0  0  0  0  0  0  0  0  0  0  0
    4.9520    1.1613   -1.9154 O   0  0  0  0  0  0  0  0  0  0  0  0
   -3.0933    0.6194   -0.2940 C   0  0  0  0  0  0  0  0  0  0  0  0
   -1.9299    1.0139    0.6197 C   0  0  0  0  0  0  0  0  0  0  0  0
   -4.3844    0.4304    0.5066 C   0  0  0  0  0  0  0  0  0  0  0  0
   -0.6025    1.1869   -0.1250 C   0  0  0  0  0  0  0  0  0  0  0  0
   -5.5774    0.0036   -0.3545 C   0  0  0  0  0  0  0  0  0  0  0  0
    0.5663    1.5568    0.7926 C   0  0  0  0  0  0  0  0  0  0  0  0
   -6.8933   -0.2214    0.3972 C   0  0  0  0  0  0  0  0  0  0  0  0
    1.8483    1.7878   -0.0121 C   0  0  0  0  0  0  0  0  0  0  0  0
   -8.0977   -0.5951   -0.4728 C   0  0  0  0  0  0  0  0  0  0  0  0
    3.0516    2.1860    0.8515 C   0  0  0  0  0  0  0  0  0  0  0  0
   -9.3936   -0.8916    0.2856 C   0  0  0  0  0  0  0  0  0  0  0  0
    4.3563    2.4034    0.0850 C   0  0  0  0  0  0  0  0  0  0  0  0
  -10.5457   -1.3006   -0.6189 C   0  0  0  0  0  0  0  0  0  0  0  0
    4.7909    1.1881   -0.7026 C   0  0  0  0  0  0  0  0  0  0  0  0
    5.1876   -2.1315    0.1609 C   0  0  0  0  0  0  0  0  0  0  0  0
    3.6993   -2.1867    0.5023 C   0  0  0  0  0  0  0  0  0  0  0  0
    5.5996   -3.3603   -0.6467 C   0  0  0  0  0  0  0  0  0  0  0  0
    6.0333   -2.0130    1.4281 C   0  0  0  0  0  0  0  0  0  0  0  0
   -3.2419    1.3926   -1.0570 H   0  0  0  0  0  0  0  0  0  0  0  0
   -2.8476   -0.3115   -0.8188 H   0  0  0  0  0  0  0  0  0  0  0  0
   -2.1761    1.9503    1.1358 H   0  0  0  0  0  0  0  0  0  0  0  0
   -1.8043    0.2484    1.3955 H   0  0  0  0  0  0  0  0  0  0  0  0
   -4.6331    1.3661    1.0222 H   0  0  0  0  0  0  0  0  0  0  0  0
   -4.2217   -0.3260    1.2844 H   0  0  0  0  0  0  0  0  0  0  0  0
   -0.3635    0.2567   -0.6553 H   0  0  0  0  0  0  0  0  0  0  0  0
   -0.7245    1.9645   -0.8892 H   0  0  0  0  0  0  0  0  0  0  0  0
   -5.3175   -0.9209   -0.8855 H   0  0  0  0  0  0  0  0  0  0  0  0
   -5.7424    0.7665   -1.1258 H   0  0  0  0  0  0  0  0  0  0  0  0
    0.7279    0.7569    1.5247 H   0  0  0  0  0  0  0  0  0  0  0  0
    0.3191    2.4658    1.3538 H   0  0  0  0  0  0  0  0  0  0  0  0
   -7.1384    0.6883    0.9596 H   0  0  0  0  0  0  0  0  0  0  0  0
   -6.7375   -1.0121    1.1417 H   0  0  0  0  0  0  0  0  0  0  0  0
    1.6737    2.5731   -0.7581 H   0  0  0  0  0  0  0  0  0  0  0  0
    2.0830    0.8713   -0.5667 H   0  0  0  0  0  0  0  0  0  0  0  0
   -8.2816    0.2179   -1.1864 H   0  0  0  0  0  0  0  0  0  0  0  0
   -7.8330   -1.4764   -1.0708 H   0  0  0  0  0  0  0  0  0  0  0  0
    2.8107    3.1101    1.3913 H   0  0  0  0  0  0  0  0  0  0  0  0
    3.2057    1.4138    1.6156 H   0  0  0  0  0  0  0  0  0  0  0  0
   -9.6872   -0.0046    0.8590 H   0  0  0  0  0  0  0  0  0  0  0  0
   -9.2122   -1.6933    1.0112 H   0  0  0  0  0  0  0  0  0  0  0  0
    4.2330    3.2335   -0.6204 H   0  0  0  0  0  0  0  0  0  0  0  0
    5.1665    2.6815    0.7680 H   0  0  0  0  0  0  0  0  0  0  0  0
  -10.2994   -2.2086   -1.1783 H   0  0  0  0  0  0  0  0  0  0  0  0
  -10.7786   -0.5076   -1.3364 H   0  0  0  0  0  0  0  0  0  0  0  0
  -11.4437   -1.4985   -0.0253 H   0  0  0  0  0  0  0  0  0  0  0  0
    3.3852   -1.3581    1.1468 H   0  0  0  0  0  0  0  0  0  0  0  0
    3.0887   -2.1254   -0.4060 H   0  0  0  0  0  0  0  0  0  0  0  0
    3.4482   -3.1169    1.0235 H   0  0  0  0  0  0  0  0  0  0  0  0
    6.6555   -3.3011   -0.9348 H   0  0  0  0  0  0  0  0  0  0  0  0
    5.0278   -3.4227   -1.5797 H   0  0  0  0  0  0  0  0  0  0  0  0
    5.4455   -4.2864   -0.0833 H   0  0  0  0  0  0  0  0  0  0  0  0
    7.0859   -1.8367    1.1785 H   0  0  0  0  0  0  0  0  0  0  0  0
    5.7185   -1.1792    2.0653 H   0  0  0  0  0  0  0  0  0  0  0  0
    5.9710   -2.9256    2.0308 H   0  0  0  0  0  0  0  0  0  0  0  0
  1  2  1  0  0  0  0
  1 17  1  0  0  0  0
  2 18  1  0  0  0  0
  3 17  2  0  0  0  0
  4  5  1  0  0  0  0
  4  6  1  0  0  0  0
  4 22  1  0  0  0  0
  4 23  1  0  0  0  0
  5  7  1  0  0  0  0
  5 24  1  0  0  0  0
  5 25  1  0  0  0  0
  6  8  1  0  0  0  0
  6 26  1  0  0  0  0
  6 27  1  0  0  0  0
  7  9  1  0  0  0  0
  7 28  1  0  0  0  0
  7 29  1  0  0  0  0
  8 10  1  0  0  0  0
  8 30  1  0  0  0  0
  8 31  1  0  0  0  0
  9 11  1  0  0  0  0
  9 32  1  0  0  0  0
  9 33  1  0  0  0  0
 10 12  1  0  0  0  0
 10 34  1  0  0  0  0
 10 35  1  0  0  0  0
 11 13  1  0  0  0  0
 11 36  1  0  0  0  0
 11 37  1  0  0  0  0
 12 14  1  0  0  0  0
 12 38  1  0  0  0  0
 12 39  1  0  0  0  0
 13 15  1  0  0  0  0
 13 40  1  0  0  0  0
 13 41  1  0  0  0  0
 14 16  1  0  0  0  0
 14 42  1  0  0  0  0
 14 43  1  0  0  0  0
 15 17  1  0  0  0  0
 15 44  1  0  0  0  0
 15 45  1  0  0  0  0
 16 46  1  0  0  0  0
 16 47  1  0  0  0  0
 16 48  1  0  0  0  0
 18 19  1  0  0  0  0
 18 20  1  0  0  0  0
 18 21  1  0  0  0  0
 19 49  1  0  0  0  0
 19 50  1  0  0  0  0
 19 51  1  0  0  0  0
 20 52  1  0  0  0  0
 20 53  1  0  0  0  0
 20 54  1  0  0  0  0
 21 55  1  0  0  0  0
 21 56  1  0  0  0  0
 21 57  1  0  0  0  0
M  END
> <PUBCHEM_COMPOUND_CID>
143638

> <PUBCHEM_CONFORMER_RMSD>
1.4

> <PUBCHEM_CONFORMER_DIVERSEORDER>
1
47
44
18
30
21
29
3
42
36
22
43
45
40
46
4
41
26
19
24
34
33
14
39
9
16
11
35
23
7
27
13
20
17
5
8
37
15
32
6
31
2
28
12
25
38
10

> <PUBCHEM_MMFF94_PARTIAL_CHARGES>
6
1 -0.15
15 0.06
17 0.66
18 0.28
2 -0.28
3 -0.57

> <PUBCHEM_EFFECTIVE_ROTOR_COUNT>
15

> <PUBCHEM_PHARMACOPHORE_FEATURES>
3
1 16 hydrophobe
1 3 acceptor
4 18 19 20 21 hydrophobe

> <PUBCHEM_HEAVY_ATOM_COUNT>
21

> <PUBCHEM_ATOM_DEF_STEREO_COUNT>
0

> <PUBCHEM_ATOM_UDEF_STEREO_COUNT>
0

> <PUBCHEM_BOND_DEF_STEREO_COUNT>
0

> <PUBCHEM_BOND_UDEF_STEREO_COUNT>
0

> <PUBCHEM_ISOTOPIC_ATOM_COUNT>
0

> <PUBCHEM_COMPONENT_COUNT>
1

> <PUBCHEM_CACTVS_TAUTO_COUNT>
1

> <PUBCHEM_CONFORMER_ID>
0002311600000001

> <PUBCHEM_MMFF94_ENERGY>
12.7229

> <PUBCHEM_FEATURE_SELFOVERLAP>
15.223

> <PUBCHEM_SHAPE_FINGERPRINT>
10049733 168 17203336559178942807
10066227 49 18411136927459599191
11408170 132 16298933266131013045
12838863 1 18042959884116178674
13533116 47 18342175574707132552
13617811 41 15936407832169534727
14202775 3 18261957471159197059
14216079 64 18409446986413534209
14251740 57 18129946647067008158
14347332 77 18339079289691653473
14919807 6 17750221523285639909
15152005 1 17980764840249065246
15475509 35 18059848450983684720
1754908 1 13470408907783554039
20165401 70 18272084985454599239
20621476 38 18413670201922629241
20721686 146 13119153447381555662
20771845 140 16415479333315731823
21360442 33 18187078426049315058
21360442 67 17822012046849827987
21792934 111 12967138207766135075
22224240 67 11312065353319088909
2835820 82 18339080385214431363
3014965 18 18411416198416486629
33532 11 18412261757898148307
34797466 226 17022904583388348005
397830 11 11167647837793949901
437795 160 13830122928856466717
439807 62 18334576841020052947
57828716 16 17418100889020188787
59682541 52 18334296478392431905
6025842 7 18334863853243940476
6438161 24 18335414664553562491

> <PUBCHEM_SHAPE_MULTIPOLES>
414.56
30.16
3.08
1.06
82.75
1.46
-0.12
20.75
-3.4
-8.27
0.1
-1.32
0.01
-1.06

> <PUBCHEM_SHAPE_SELFOVERLAP>
762.75

> <PUBCHEM_SHAPE_VOLUME>
263.9

> <PUBCHEM_COORDINATE_TYPE>
2
5
10

$$$$
