557564
  -OEChem-11012401193D

 27 28  0     1  0  0  0  0  0999 V2000
    1.0197   -2.1106    0.2516 O   0  0  0  0  0  0  0  0  0  0  0  0
   -1.6816   -0.1216   -0.1424 C   0  0  0  0  0  0  0  0  0  0  0  0
   -1.0063    0.9654    0.6515 C   0  0  1  0  0  0  0  0  0  0  0  0
   -0.5592   -0.4668    0.7977 C   0  0  2  0  0  0  0  0  0  0  0  0
   -0.0924    1.9418   -0.0173 C   0  0  0  0  0  0  0  0  0  0  0  0
    0.7411   -0.9165    0.2367 C   0  0  0  0  0  0  0  0  0  0  0  0
   -1.4662   -0.2329   -1.6144 C   0  0  0  0  0  0  0  0  0  0  0  0
   -3.0606   -0.5082    0.2761 C   0  0  0  0  0  0  0  0  0  0  0  0
    1.3655    1.5358    0.1812 C   0  0  0  0  0  0  0  0  0  0  0  0
    1.6347    0.1422   -0.3991 C   0  0  1  0  0  0  0  0  0  0  0  0
    3.1052   -0.2285   -0.2216 C   0  0  0  0  0  0  0  0  0  0  0  0
   -1.5364    1.4078    1.4869 H   0  0  0  0  0  0  0  0  0  0  0  0
   -0.8183   -0.9463    1.7378 H   0  0  0  0  0  0  0  0  0  0  0  0
   -0.2404    2.9272    0.4418 H   0  0  0  0  0  0  0  0  0  0  0  0
   -0.3217    2.0792   -1.0783 H   0  0  0  0  0  0  0  0  0  0  0  0
   -2.2520    0.3151   -2.1477 H   0  0  0  0  0  0  0  0  0  0  0  0
   -0.5224    0.1473   -1.9966 H   0  0  0  0  0  0  0  0  0  0  0  0
   -1.5364   -1.2825   -1.9227 H   0  0  0  0  0  0  0  0  0  0  0  0
   -3.8039    0.1446   -0.1942 H   0  0  0  0  0  0  0  0  0  0  0  0
   -3.2780   -1.5404   -0.0189 H   0  0  0  0  0  0  0  0  0  0  0  0
   -3.2031   -0.4392    1.3606 H   0  0  0  0  0  0  0  0  0  0  0  0
    2.0139    2.2766   -0.3012 H   0  0  0  0  0  0  0  0  0  0  0  0
    1.6041    1.5464    1.2530 H   0  0  0  0  0  0  0  0  0  0  0  0
    1.4394    0.1507   -1.4754 H   0  0  0  0  0  0  0  0  0  0  0  0
    3.7573    0.5230   -0.6790 H   0  0  0  0  0  0  0  0  0  0  0  0
    3.3679   -0.3107    0.8389 H   0  0  0  0  0  0  0  0  0  0  0  0
    3.3271   -1.1930   -0.6915 H   0  0  0  0  0  0  0  0  0  0  0  0
  1  6  2  0  0  0  0
  2  3  1  0  0  0  0
  2  4  1  0  0  0  0
  2  7  1  0  0  0  0
  2  8  1  0  0  0  0
  3  4  1  0  0  0  0
  3  5  1  0  0  0  0
  3 12  1  0  0  0  0
  4  6  1  0  0  0  0
  4 13  1  0  0  0  0
  5  9  1  0  0  0  0
  5 14  1  0  0  0  0
  5 15  1  0  0  0  0
  6 10  1  0  0  0  0
  7 16  1  0  0  0  0
  7 17  1  0  0  0  0
  7 18  1  0  0  0  0
  8 19  1  0  0  0  0
  8 20  1  0  0  0  0
  8 21  1  0  0  0  0
  9 10  1  0  0  0  0
  9 22  1  0  0  0  0
  9 23  1  0  0  0  0
 10 11  1  0  0  0  0
 10 24  1  0  0  0  0
 11 25  1  0  0  0  0
 11 26  1  0  0  0  0
 11 27  1  0  0  0  0
M  END
> <PUBCHEM_COMPOUND_CID>
557564

> <PUBCHEM_CONFORMER_RMSD>
0.4

> <PUBCHEM_CONFORMER_DIVERSEORDER>
1
2
5
4
3
6

> <PUBCHEM_MMFF94_PARTIAL_CHARGES>
11
1 -0.57
10 0.06
12 0.1
13 0.1
2 -0.19
3 -0.19
4 -0.1
5 0.09
6 0.51
7 0.09
8 0.09

> <PUBCHEM_EFFECTIVE_ROTOR_COUNT>
0.8

> <PUBCHEM_PHARMACOPHORE_FEATURES>
3
1 1 acceptor
3 2 7 8 hydrophobe
7 2 3 4 5 6 9 10 rings

> <PUBCHEM_HEAVY_ATOM_COUNT>
11

> <PUBCHEM_ATOM_DEF_STEREO_COUNT>
0

> <PUBCHEM_ATOM_UDEF_STEREO_COUNT>
3

> <PUBCHEM_BOND_DEF_STEREO_COUNT>
0

> <PUBCHEM_BOND_UDEF_STEREO_COUNT>
0

> <PUBCHEM_ISOTOPIC_ATOM_COUNT>
0

> <PUBCHEM_COMPONENT_COUNT>
1

> <PUBCHEM_CACTVS_TAUTO_COUNT>
3

> <PUBCHEM_CONFORMER_ID>
000881FC00000001

> <PUBCHEM_MMFF94_ENERGY>
25.4755

> <PUBCHEM_FEATURE_SELFOVERLAP>
15.223

> <PUBCHEM_SHAPE_FINGERPRINT>
10353120 184 18340499910243168116
12423570 1 11255861444667009752
12897270 3 18409165502182192311
13024252 1 17967827015313704300
137420 1 12099382542060412441
14128692 85 17846209029100764879
15557651 10 17459460216345739389
16945 1 18411134736239943985
18185500 45 18343016662146540086
20201158 50 18260550026073077915
20653085 51 15792015498264550620
21040471 1 17905610260666082280
23235685 24 18334576884059286280
23419403 2 15737036571159601816
23552423 10 18045229240958953874
241688 4 18192998106147483944
2748010 2 18048885383329919794
29004967 10 18409167722896529817
369184 2 18411420605015690696
5084963 1 17458346372475270134
528886 8 18411417332076447073
68250623 7 18051706446899450641

> <PUBCHEM_SHAPE_MULTIPOLES>
220.51
3.52
1.7
0.99
0.17
0.22
-0.32
-0.66
-0.24
0.53
0.2
-0.4
-0.06
-0.07

> <PUBCHEM_SHAPE_SELFOVERLAP>
454.797

> <PUBCHEM_SHAPE_VOLUME>
128.6

> <PUBCHEM_COORDINATE_TYPE>
2
5
10

$$$$
