136937
  -OEChem-11012400303D

 20 21  0     0  0  0  0  0  0999 V2000
    1.2171    1.2931   -0.0004 O   0  0  0  0  0  0  0  0  0  0  0  0
    1.5694   -0.9189    0.0001 N   0  0  0  0  0  0  0  0  0  0  0  0
    2.6071    1.1200    0.0003 N   0  0  0  0  0  0  0  0  0  0  0  0
   -0.7510   -0.0176    0.0001 C   0  0  0  0  0  0  0  0  0  0  0  0
    0.6905    0.0442   -0.0001 C   0  0  0  0  0  0  0  0  0  0  0  0
   -1.4994    1.1595    0.0002 C   0  0  0  0  0  0  0  0  0  0  0  0
   -1.3961   -1.2542    0.0002 C   0  0  0  0  0  0  0  0  0  0  0  0
    2.7354   -0.2102    0.0001 C   0  0  0  0  0  0  0  0  0  0  0  0
   -2.8930    1.0998    0.0000 C   0  0  0  0  0  0  0  0  0  0  0  0
   -2.7897   -1.3139    0.0000 C   0  0  0  0  0  0  0  0  0  0  0  0
   -3.5382   -0.1369   -0.0002 C   0  0  0  0  0  0  0  0  0  0  0  0
    4.0480   -0.8648   -0.0003 C   0  0  0  0  0  0  0  0  0  0  0  0
   -1.0338    2.1416    0.0002 H   0  0  0  0  0  0  0  0  0  0  0  0
   -0.8330   -2.1844    0.0002 H   0  0  0  0  0  0  0  0  0  0  0  0
   -3.4764    2.0160   -0.0001 H   0  0  0  0  0  0  0  0  0  0  0  0
   -3.2923   -2.2768   -0.0001 H   0  0  0  0  0  0  0  0  0  0  0  0
   -4.6233   -0.1833   -0.0004 H   0  0  0  0  0  0  0  0  0  0  0  0
    4.6219   -0.5818   -0.8884 H   0  0  0  0  0  0  0  0  0  0  0  0
    4.6228   -0.5810    0.8869 H   0  0  0  0  0  0  0  0  0  0  0  0
    3.9446   -1.9544    0.0003 H   0  0  0  0  0  0  0  0  0  0  0  0
  1  3  1  0  0  0  0
  1  5  1  0  0  0  0
  2  5  2  0  0  0  0
  2  8  1  0  0  0  0
  3  8  2  0  0  0  0
  4  5  1  0  0  0  0
  4  6  2  0  0  0  0
  4  7  1  0  0  0  0
  6  9  1  0  0  0  0
  6 13  1  0  0  0  0
  7 10  2  0  0  0  0
  7 14  1  0  0  0  0
  8 12  1  0  0  0  0
  9 11  2  0  0  0  0
  9 15  1  0  0  0  0
 10 11  1  0  0  0  0
 10 16  1  0  0  0  0
 11 17  1  0  0  0  0
 12 18  1  0  0  0  0
 12 19  1  0  0  0  0
 12 20  1  0  0  0  0
M  END
> <PUBCHEM_COMPOUND_CID>
136937

> <PUBCHEM_CONFORMER_RMSD>
0.4

> <PUBCHEM_CONFORMER_DIVERSEORDER>
1

> <PUBCHEM_MMFF94_PARTIAL_CHARGES>
17
1 -0.02
10 -0.15
11 -0.15
12 0.18
13 0.15
14 0.15
15 0.15
16 0.15
17 0.15
2 -0.57
3 -0.41
4 0.05
5 0.43
6 -0.15
7 -0.15
8 0.34
9 -0.15

> <PUBCHEM_EFFECTIVE_ROTOR_COUNT>
1

> <PUBCHEM_PHARMACOPHORE_FEATURES>
3
3 2 3 8 cation
5 1 2 3 5 8 rings
6 4 6 7 9 10 11 rings

> <PUBCHEM_HEAVY_ATOM_COUNT>
12

> <PUBCHEM_ATOM_DEF_STEREO_COUNT>
0

> <PUBCHEM_ATOM_UDEF_STEREO_COUNT>
0

> <PUBCHEM_BOND_DEF_STEREO_COUNT>
0

> <PUBCHEM_BOND_UDEF_STEREO_COUNT>
0

> <PUBCHEM_ISOTOPIC_ATOM_COUNT>
0

> <PUBCHEM_COMPONENT_COUNT>
1

> <PUBCHEM_CACTVS_TAUTO_COUNT>
1

> <PUBCHEM_CONFORMER_ID>
000216E900000001

> <PUBCHEM_MMFF94_ENERGY>
19.5133

> <PUBCHEM_FEATURE_SELFOVERLAP>
15.223

> <PUBCHEM_SHAPE_FINGERPRINT>
10130415 120 18341892974380041712
10608611 8 18411976979179399257
11062470 55 12751233696775850203
11769659 78 18411414046405600271
12032990 46 18410579491315530770
12932764 1 17385713690769276780
13024252 1 15574715790237259489
13380535 76 18412544280172081327
14144814 61 18409446968563739194
14325111 11 18410856576851456673
15775835 57 18114464448814605841
16945 1 18410856525538533541
18186145 218 17676481769806816391
200 152 17917700310668945063
20201158 50 18343021068857111695
20871998 184 18129386058850020031
21501502 16 18339082691199646109
21501925 9 18410564107270041482
23402539 116 18130779041551040645
23463225 33 18336827502883676078
23552423 10 18188490288877857799
23559900 14 18271239427232609010
2748010 2 18339077206610785709
369184 2 18412262856950742737
5104073 3 18411138056091383176
57812782 119 18272366468767224462
6333449 129 18411979152885999039
69090 78 18343858922919797567
7364860 26 18269275832245883880
8809292 202 18261679254437338667

> <PUBCHEM_SHAPE_MULTIPOLES>
231.12
6.44
1.43
0.59
2.76
0.04
0
-0.91
0
-0.38
0
-0.04
-0.01
0

> <PUBCHEM_SHAPE_SELFOVERLAP>
498.997

> <PUBCHEM_SHAPE_VOLUME>
129.4

> <PUBCHEM_COORDINATE_TYPE>
2
5
10

$$$$
