4166622
  -OEChem-11012400523D

 38 38  0     0  0  0  0  0  0999 V2000
   -0.0008   -0.0001   -1.3260 O   0  0  0  0  0  0  0  0  0  0  0  0
    1.8012   -2.1297   -0.6688 O   0  0  0  0  0  0  0  0  0  0  0  0
   -2.2316   -1.7554    0.4275 O   0  0  0  0  0  0  0  0  0  0  0  0
   -1.8013    2.1297   -0.6688 O   0  0  0  0  0  0  0  0  0  0  0  0
    2.2317    1.7555    0.4274 O   0  0  0  0  0  0  0  0  0  0  0  0
    3.7534   -2.7579    0.1804 O   0  5  0  0  0  0  0  0  0  0  0  0
   -2.8570   -3.7328   -0.3605 O   0  5  0  0  0  0  0  0  0  0  0  0
   -3.7535    2.7578    0.1804 O   0  5  0  0  0  0  0  0  0  0  0  0
    2.8571    3.7330   -0.3606 O   0  5  0  0  0  0  0  0  0  0  0  0
    3.4346   -2.9537   -2.0177 O   0  0  0  0  0  0  0  0  0  0  0  0
   -4.4330   -2.2305    0.1195 O   0  0  0  0  0  0  0  0  0  0  0  0
   -3.4347    2.9534   -2.0177 O   0  0  0  0  0  0  0  0  0  0  0  0
    4.4332    2.2305    0.1194 O   0  0  0  0  0  0  0  0  0  0  0  0
    3.1090   -2.6614   -0.8647 N   0  3  0  0  0  0  0  0  0  0  0  0
   -3.2740   -2.6419    0.0304 N   0  3  0  0  0  0  0  0  0  0  0  0
   -3.1091    2.6614   -0.8647 N   0  3  0  0  0  0  0  0  0  0  0  0
    3.2741    2.6419    0.0302 N   0  3  0  0  0  0  0  0  0  0  0  0
    0.0841   -1.2632    0.7481 C   0  0  0  0  0  0  0  0  0  0  0  0
   -0.0839    1.2633    0.7481 C   0  0  0  0  0  0  0  0  0  0  0  0
   -0.2551   -0.7190    2.1457 C   0  0  0  0  0  0  0  0  0  0  0  0
    0.2554    0.7191    2.1457 C   0  0  0  0  0  0  0  0  0  0  0  0
    0.0000    0.0000   -0.0997 C   0  0  0  0  0  0  0  0  0  0  0  0
    1.5067   -1.8206    0.6799 C   0  0  0  0  0  0  0  0  0  0  0  0
   -0.9336   -2.3048    0.2933 C   0  0  0  0  0  0  0  0  0  0  0  0
   -1.5067    1.8207    0.6799 C   0  0  0  0  0  0  0  0  0  0  0  0
    0.9337    2.3050    0.2934 C   0  0  0  0  0  0  0  0  0  0  0  0
    0.2147   -1.3058    2.9429 H   0  0  0  0  0  0  0  0  0  0  0  0
   -1.3306   -0.7129    2.3541 H   0  0  0  0  0  0  0  0  0  0  0  0
   -0.2144    1.3059    2.9428 H   0  0  0  0  0  0  0  0  0  0  0  0
    1.3308    0.7129    2.3540 H   0  0  0  0  0  0  0  0  0  0  0  0
    2.2205   -1.0729    1.0477 H   0  0  0  0  0  0  0  0  0  0  0  0
    1.5750   -2.7205    1.3053 H   0  0  0  0  0  0  0  0  0  0  0  0
   -0.7524   -2.5745   -0.7551 H   0  0  0  0  0  0  0  0  0  0  0  0
   -0.8388   -3.1990    0.9232 H   0  0  0  0  0  0  0  0  0  0  0  0
   -2.2204    1.0729    1.0479 H   0  0  0  0  0  0  0  0  0  0  0  0
   -1.5751    2.7205    1.3053 H   0  0  0  0  0  0  0  0  0  0  0  0
    0.7524    2.5747   -0.7551 H   0  0  0  0  0  0  0  0  0  0  0  0
    0.8389    3.1992    0.9234 H   0  0  0  0  0  0  0  0  0  0  0  0
  1 22  2  0  0  0  0
  2 14  1  0  0  0  0
  2 23  1  0  0  0  0
  3 15  1  0  0  0  0
  3 24  1  0  0  0  0
  4 16  1  0  0  0  0
  4 25  1  0  0  0  0
  5 17  1  0  0  0  0
  5 26  1  0  0  0  0
  6 14  1  0  0  0  0
  7 15  1  0  0  0  0
  8 16  1  0  0  0  0
  9 17  1  0  0  0  0
 10 14  2  0  0  0  0
 11 15  2  0  0  0  0
 12 16  2  0  0  0  0
 13 17  2  0  0  0  0
 18 20  1  0  0  0  0
 18 22  1  0  0  0  0
 18 23  1  0  0  0  0
 18 24  1  0  0  0  0
 19 21  1  0  0  0  0
 19 22  1  0  0  0  0
 19 25  1  0  0  0  0
 19 26  1  0  0  0  0
 20 21  1  0  0  0  0
 20 27  1  0  0  0  0
 20 28  1  0  0  0  0
 21 29  1  0  0  0  0
 21 30  1  0  0  0  0
 23 31  1  0  0  0  0
 23 32  1  0  0  0  0
 24 33  1  0  0  0  0
 24 34  1  0  0  0  0
 25 35  1  0  0  0  0
 25 36  1  0  0  0  0
 26 37  1  0  0  0  0
 26 38  1  0  0  0  0
M  CHG  8   6  -1   7  -1   8  -1   9  -1  14   1  15   1  16   1  17   1
M  END
> <PUBCHEM_COMPOUND_CID>
4166622

> <PUBCHEM_CONFORMER_RMSD>
1

> <PUBCHEM_CONFORMER_DIVERSEORDER>
1
3
5
11
10
8
7
2
4
6
12
9
13

> <PUBCHEM_MMFF94_PARTIAL_CHARGES>
24
1 -0.57
10 -0.52
11 -0.52
12 -0.52
13 -0.52
14 1.03
15 1.03
16 1.03
17 1.03
18 0.06
19 0.06
2 -0.27
22 0.45
23 0.28
24 0.28
25 0.28
26 0.28
3 -0.27
4 -0.27
5 -0.27
6 -0.52
7 -0.52
8 -0.52
9 -0.52

> <PUBCHEM_EFFECTIVE_ROTOR_COUNT>
12.8

> <PUBCHEM_PHARMACOPHORE_FEATURES>
10
1 1 acceptor
1 10 acceptor
1 11 acceptor
1 12 acceptor
1 13 acceptor
1 6 acceptor
1 7 acceptor
1 8 acceptor
1 9 acceptor
5 18 19 20 21 22 rings

> <PUBCHEM_HEAVY_ATOM_COUNT>
26

> <PUBCHEM_ATOM_DEF_STEREO_COUNT>
0

> <PUBCHEM_ATOM_UDEF_STEREO_COUNT>
0

> <PUBCHEM_BOND_DEF_STEREO_COUNT>
0

> <PUBCHEM_BOND_UDEF_STEREO_COUNT>
0

> <PUBCHEM_ISOTOPIC_ATOM_COUNT>
0

> <PUBCHEM_COMPONENT_COUNT>
1

> <PUBCHEM_CACTVS_TAUTO_COUNT>
1

> <PUBCHEM_CONFORMER_ID>
003F93DE00000001

> <PUBCHEM_MMFF94_ENERGY>
77.3159

> <PUBCHEM_FEATURE_SELFOVERLAP>
51.039

> <PUBCHEM_SHAPE_FINGERPRINT>
1100329 8 18194401095663485131
12788726 201 17828193625685844488
13149001 5 18267021652550292084
13911987 19 17759540879760887078
14289585 56 17619037957140451119
14713325 29 18263922305423688768
17492 54 17829335678747545189
20600515 1 17905574775888908914
20775438 99 18126824050306258934
21285901 2 17981334695970593980
21330990 113 18122347049363658037
23419403 2 17755622319083291992
23558518 356 18187362172683819344
23559900 14 18055349137913893690
23566358 2 18411417306306643213
266924 87 18265612263321997292
3027735 51 18196944472618063072
3084891 8 18194683897806195688
3250762 1 18410573989446418478
59554788 191 18340480076395840498
59755656 215 18191299584158116815

> <PUBCHEM_SHAPE_MULTIPOLES>
438.84
6.45
5.43
1.51
0
0
-0.13
0
2.44
0
1.75
0
0
1.79

> <PUBCHEM_SHAPE_SELFOVERLAP>
899.37

> <PUBCHEM_SHAPE_VOLUME>
254

> <PUBCHEM_COORDINATE_TYPE>
2
5
10

$$$$
