7379
  -OEChem-11012400483D

 28 28  0     0  0  0  0  0  0999 V2000
    3.4411   -0.7034   -0.0006 O   0  0  0  0  0  0  0  0  0  0  0  0
   -2.1459    0.0925    0.0000 C   0  0  0  0  0  0  0  0  0  0  0  0
   -0.6228   -0.1190   -0.0001 C   0  0  0  0  0  0  0  0  0  0  0  0
   -2.7601   -0.5559    1.2594 C   0  0  0  0  0  0  0  0  0  0  0  0
   -2.7610   -0.5584   -1.2578 C   0  0  0  0  0  0  0  0  0  0  0  0
   -2.5706    1.5786   -0.0015 C   0  0  0  0  0  0  0  0  0  0  0  0
    0.1888    0.9875   -0.0002 C   0  0  0  0  0  0  0  0  0  0  0  0
   -0.1446   -1.4053    0.0000 C   0  0  0  0  0  0  0  0  0  0  0  0
    1.5703    0.7950    0.0000 C   0  0  0  0  0  0  0  0  0  0  0  0
    1.2370   -1.5978    0.0002 C   0  0  0  0  0  0  0  0  0  0  0  0
    2.0943   -0.4977    0.0004 C   0  0  0  0  0  0  0  0  0  0  0  0
    2.4734    1.9840    0.0002 C   0  0  0  0  0  0  0  0  0  0  0  0
   -2.3174   -0.1411    2.1728 H   0  0  0  0  0  0  0  0  0  0  0  0
   -3.8416   -0.3815    1.3052 H   0  0  0  0  0  0  0  0  0  0  0  0
   -2.6124   -1.6411    1.2855 H   0  0  0  0  0  0  0  0  0  0  0  0
   -2.6137   -1.6436   -1.2818 H   0  0  0  0  0  0  0  0  0  0  0  0
   -3.8424   -0.3837   -1.3035 H   0  0  0  0  0  0  0  0  0  0  0  0
   -2.3185   -0.1456   -2.1723 H   0  0  0  0  0  0  0  0  0  0  0  0
   -3.6641    1.6696   -0.0017 H   0  0  0  0  0  0  0  0  0  0  0  0
   -2.2144    2.1089    0.8896 H   0  0  0  0  0  0  0  0  0  0  0  0
   -2.2141    2.1072   -0.8935 H   0  0  0  0  0  0  0  0  0  0  0  0
   -0.1801    2.0053   -0.0003 H   0  0  0  0  0  0  0  0  0  0  0  0
   -0.7919   -2.2754    0.0000 H   0  0  0  0  0  0  0  0  0  0  0  0
    1.6316   -2.6104    0.0002 H   0  0  0  0  0  0  0  0  0  0  0  0
    3.1078    1.9789    0.8927 H   0  0  0  0  0  0  0  0  0  0  0  0
    3.1088    1.9784   -0.8916 H   0  0  0  0  0  0  0  0  0  0  0  0
    1.9146    2.9260   -0.0004 H   0  0  0  0  0  0  0  0  0  0  0  0
    3.6161   -1.6601   -0.0006 H   0  0  0  0  0  0  0  0  0  0  0  0
  1 11  1  0  0  0  0
  1 28  1  0  0  0  0
  2  3  1  0  0  0  0
  2  4  1  0  0  0  0
  2  5  1  0  0  0  0
  2  6  1  0  0  0  0
  3  7  2  0  0  0  0
  3  8  1  0  0  0  0
  4 13  1  0  0  0  0
  4 14  1  0  0  0  0
  4 15  1  0  0  0  0
  5 16  1  0  0  0  0
  5 17  1  0  0  0  0
  5 18  1  0  0  0  0
  6 19  1  0  0  0  0
  6 20  1  0  0  0  0
  6 21  1  0  0  0  0
  7  9  1  0  0  0  0
  7 22  1  0  0  0  0
  8 10  2  0  0  0  0
  8 23  1  0  0  0  0
  9 11  2  0  0  0  0
  9 12  1  0  0  0  0
 10 11  1  0  0  0  0
 10 24  1  0  0  0  0
 12 25  1  0  0  0  0
 12 26  1  0  0  0  0
 12 27  1  0  0  0  0
M  END
> <PUBCHEM_COMPOUND_CID>
7379

> <PUBCHEM_CONFORMER_RMSD>
0.4

> <PUBCHEM_CONFORMER_DIVERSEORDER>
1
2

> <PUBCHEM_MMFF94_PARTIAL_CHARGES>
13
1 -0.53
10 -0.15
11 0.08
12 0.14
2 0.14
22 0.15
23 0.15
24 0.15
28 0.45
3 -0.14
7 -0.15
8 -0.15
9 -0.14

> <PUBCHEM_EFFECTIVE_ROTOR_COUNT>
1

> <PUBCHEM_PHARMACOPHORE_FEATURES>
3
1 1 donor
4 2 4 5 6 hydrophobe
6 3 7 8 9 10 11 rings

> <PUBCHEM_HEAVY_ATOM_COUNT>
12

> <PUBCHEM_ATOM_DEF_STEREO_COUNT>
0

> <PUBCHEM_ATOM_UDEF_STEREO_COUNT>
0

> <PUBCHEM_BOND_DEF_STEREO_COUNT>
0

> <PUBCHEM_BOND_UDEF_STEREO_COUNT>
0

> <PUBCHEM_ISOTOPIC_ATOM_COUNT>
0

> <PUBCHEM_COMPONENT_COUNT>
1

> <PUBCHEM_CACTVS_TAUTO_COUNT>
3

> <PUBCHEM_CONFORMER_ID>
00001CD300000001

> <PUBCHEM_MMFF94_ENERGY>
40.3909

> <PUBCHEM_FEATURE_SELFOVERLAP>
15.223

> <PUBCHEM_SHAPE_FINGERPRINT>
10608611 8 18334575724534472701
10857977 72 17313673749363420675
11471102 22 18263099793474470371
12032990 46 18338526218537253830
124424 183 17822280237407879642
12932764 1 17917714638258110953
13380535 21 18120951748002289414
13380535 76 18195519514301735408
14325111 11 18410855490208997472
15219456 202 18187367666120791393
15775835 57 18130511932696667849
16945 1 18410575076194729958
17844478 74 18114476633742358761
17990270 104 18338516313841327498
18186145 218 18059583520005031648
193761 8 14087119910971621030
19973954 147 18408045100034221409
20201158 50 18334574590525703203
20715346 28 17895192263475529381
21040471 1 18266740366884536260
23402655 69 18195794177671883413
23552423 10 18411413994992404943
2748010 2 18336266841999955180
3248919 1 18040149643146151981
369184 2 18343021116402178905
5084963 1 18059567009923704155
528886 8 18338230453760776699
63268167 104 18343300396292022233
8030462 33 18408887343104967621

> <PUBCHEM_SHAPE_MULTIPOLES>
241.09
4.86
1.79
0.88
0.16
0.4
0
0.47
0
0.69
0
-0.75
-0.14
0

> <PUBCHEM_SHAPE_SELFOVERLAP>
497.184

> <PUBCHEM_SHAPE_VOLUME>
141.3

> <PUBCHEM_COORDINATE_TYPE>
2
5
10

$$$$
