123542
  -OEChem-11012401253D

 30 32  0     0  0  0  0  0  0999 V2000
    1.7497    1.0172    0.0041 N   0  0  0  0  0  0  0  0  0  0  0  0
    1.6396   -1.2026   -0.0113 N   0  0  0  0  0  0  0  0  0  0  0  0
   -1.3722    2.5814    0.0071 N   0  0  0  0  0  0  0  0  0  0  0  0
    3.0515    0.5862    0.0043 C   0  0  0  0  0  0  0  0  0  0  0  0
    2.9561   -0.8028   -0.0053 C   0  0  0  0  0  0  0  0  0  0  0  0
    0.9443   -0.0875   -0.0055 C   0  0  0  0  0  0  0  0  0  0  0  0
    4.2672    1.2709    0.0117 C   0  0  0  0  0  0  0  0  0  0  0  0
   -0.4444    0.1270   -0.0070 C   0  0  0  0  0  0  0  0  0  0  0  0
    4.1333   -1.5700   -0.0076 C   0  0  0  0  0  0  0  0  0  0  0  0
   -1.4136   -0.8667   -0.0087 C   0  0  0  0  0  0  0  0  0  0  0  0
   -2.8598   -0.6030   -0.0036 C   0  0  0  0  0  0  0  0  0  0  0  0
    5.4287    0.4915    0.0091 C   0  0  0  0  0  0  0  0  0  0  0  0
    5.3651   -0.9037   -0.0003 C   0  0  0  0  0  0  0  0  0  0  0  0
   -3.5294   -0.4975    1.2068 C   0  0  0  0  0  0  0  0  0  0  0  0
   -3.5320   -0.4632   -1.2089 C   0  0  0  0  0  0  0  0  0  0  0  0
   -4.9017   -0.2468    1.2119 C   0  0  0  0  0  0  0  0  0  0  0  0
   -4.9041   -0.2122   -1.2039 C   0  0  0  0  0  0  0  0  0  0  0  0
   -5.5889   -0.1042    0.0066 C   0  0  0  0  0  0  0  0  0  0  0  0
   -0.9894    1.4859    0.0006 C   0  0  0  0  0  0  0  0  0  0  0  0
    1.4646    1.9879    0.0101 H   0  0  0  0  0  0  0  0  0  0  0  0
    4.3138    2.3540    0.0190 H   0  0  0  0  0  0  0  0  0  0  0  0
    4.0946   -2.6546   -0.0150 H   0  0  0  0  0  0  0  0  0  0  0  0
   -1.1249   -1.9148   -0.0111 H   0  0  0  0  0  0  0  0  0  0  0  0
    6.3990    0.9820    0.0146 H   0  0  0  0  0  0  0  0  0  0  0  0
    6.2853   -1.4824   -0.0021 H   0  0  0  0  0  0  0  0  0  0  0  0
   -3.0057   -0.6071    2.1529 H   0  0  0  0  0  0  0  0  0  0  0  0
   -3.0105   -0.5459   -2.1589 H   0  0  0  0  0  0  0  0  0  0  0  0
   -5.4349   -0.1626    2.1542 H   0  0  0  0  0  0  0  0  0  0  0  0
   -5.4394   -0.1012   -2.1424 H   0  0  0  0  0  0  0  0  0  0  0  0
   -6.6573    0.0912    0.0104 H   0  0  0  0  0  0  0  0  0  0  0  0
  1  4  1  0  0  0  0
  1  6  1  0  0  0  0
  1 20  1  0  0  0  0
  2  5  1  0  0  0  0
  2  6  2  0  0  0  0
  3 19  3  0  0  0  0
  4  5  1  0  0  0  0
  4  7  2  0  0  0  0
  5  9  2  0  0  0  0
  6  8  1  0  0  0  0
  7 12  1  0  0  0  0
  7 21  1  0  0  0  0
  8 10  2  3  0  0  0
  8 19  1  0  0  0  0
  9 13  1  0  0  0  0
  9 22  1  0  0  0  0
 10 11  1  0  0  0  0
 10 23  1  0  0  0  0
 11 14  2  0  0  0  0
 11 15  1  0  0  0  0
 12 13  2  0  0  0  0
 12 24  1  0  0  0  0
 13 25  1  0  0  0  0
 14 16  1  0  0  0  0
 14 26  1  0  0  0  0
 15 17  2  0  0  0  0
 15 27  1  0  0  0  0
 16 18  2  0  0  0  0
 16 28  1  0  0  0  0
 17 18  1  0  0  0  0
 17 29  1  0  0  0  0
 18 30  1  0  0  0  0
M  END
> <PUBCHEM_COMPOUND_CID>
123542

> <PUBCHEM_CONFORMER_RMSD>
0.6

> <PUBCHEM_CONFORMER_DIVERSEORDER>
1
3
2
4

> <PUBCHEM_MMFF94_PARTIAL_CHARGES>
30
1 0.03
10 -0.18
11 0.03
12 -0.15
13 -0.15
14 -0.15
15 -0.15
16 -0.15
17 -0.15
18 -0.15
19 0.49
2 -0.57
20 0.27
21 0.15
22 0.15
23 0.15
24 0.15
25 0.15
26 0.15
27 0.15
28 0.15
29 0.15
3 -0.56
30 0.15
4 -0.15
5 0.23
6 0.14
7 -0.15
8 0.11
9 -0.15

> <PUBCHEM_EFFECTIVE_ROTOR_COUNT>
2

> <PUBCHEM_PHARMACOPHORE_FEATURES>
6
1 1 donor
1 3 acceptor
3 1 2 6 cation
5 1 2 4 5 6 rings
6 11 14 15 16 17 18 rings
6 4 5 7 9 12 13 rings

> <PUBCHEM_HEAVY_ATOM_COUNT>
19

> <PUBCHEM_ATOM_DEF_STEREO_COUNT>
0

> <PUBCHEM_ATOM_UDEF_STEREO_COUNT>
0

> <PUBCHEM_BOND_DEF_STEREO_COUNT>
0

> <PUBCHEM_BOND_UDEF_STEREO_COUNT>
1

> <PUBCHEM_ISOTOPIC_ATOM_COUNT>
0

> <PUBCHEM_COMPONENT_COUNT>
1

> <PUBCHEM_CACTVS_TAUTO_COUNT>
1

> <PUBCHEM_CONFORMER_ID>
0001E29600000001

> <PUBCHEM_MMFF94_ENERGY>
48.8651

> <PUBCHEM_FEATURE_SELFOVERLAP>
30.553

> <PUBCHEM_SHAPE_FINGERPRINT>
10912923 1 17561083626462332363
11287383 113 16950567713507227636
12107183 9 16910899305278011707
12236239 1 17847062194600710295
12516196 113 18343299292844155737
12788726 201 18335694992953762673
13533116 47 17822565015636714106
13675066 3 17967535713578394979
13685833 64 18334862740461957683
13760787 5 18413671326607877487
13862211 1 18411414012146218598
1420 363 18114185228558711954
14251764 18 18272939319585692401
14386348 63 18040157326916536763
15196674 1 18410855421542359204
15788980 27 18040996262841528047
17834072 33 17274820285218288755
17844677 252 16950286212729279493
1813 80 18342190959301021069
19141452 34 18201719587087684935
19489759 90 16298102086352533231
200 152 18343016683806057813
20645477 70 18409727327276785926
21033648 29 18114727309456232133
21236236 1 18341050710262123241
21267235 1 18411144602497442502
21641784 216 18188226320515771204
23175994 123 18186523220148593029
23402539 116 18272084998518056391
23559900 14 18261392299614867728
23569914 152 17113229171816290559
26918003 58 18040436607117304507
2871803 45 18261391122693523842
29717793 49 17703794708599247790
300161 21 17847057791853043522
34797466 226 16371020602232481398
3545911 37 18260831518604015638
5104073 3 18339356341479173808
5283173 99 17968367940865288493
5374978 207 18409443692010075184
542803 24 17489591168568842363
59755656 215 18335706001445675726
7495541 125 14490480819329040070

> <PUBCHEM_SHAPE_MULTIPOLES>
376.07
13.4
1.53
0.92
0.85
0.7
0
-2.04
0.03
0.88
0
-1.35
-0.11
0.03

> <PUBCHEM_SHAPE_SELFOVERLAP>
834.346

> <PUBCHEM_SHAPE_VOLUME>
199.9

> <PUBCHEM_COORDINATE_TYPE>
2
5
10

$$$$
