12492872
  -OEChem-10312420142D

 23 22  0     0  0  0  0  0  0999 V2000
    0.0000    3.2512    0.0000 Ni  0  0  0  0  0  0  0  0  0  0  0  0
    3.8987    2.0404    0.0000 C   0  0  0  0  0  0  0  0  0  0  0  0
    3.8987    6.5416    0.0000 C   0  0  0  0  0  0  0  0  0  0  0  0
    3.0896    1.4526    0.0000 C   0  0  0  0  0  0  0  0  0  0  0  0
    4.7077    1.4526    0.0000 C   0  0  0  0  0  0  0  0  0  0  0  0
    3.0896    5.9538    0.0000 C   0  0  0  0  0  0  0  0  0  0  0  0
    4.7077    5.9538    0.0000 C   0  0  0  0  0  0  0  0  0  0  0  0
    3.3987    0.5016    0.0000 C   0  0  0  0  0  0  0  0  0  0  0  0
    4.3987    0.5016    0.0000 C   0  0  0  0  0  0  0  0  0  0  0  0
    3.3987    5.0028    0.0000 C   0  0  0  0  0  0  0  0  0  0  0  0
    4.3987    5.0028    0.0000 C   0  0  0  0  0  0  0  0  0  0  0  0
    4.3135    2.5012    0.0000 H   0  0  0  0  0  0  0  0  0  0  0  0
    3.4838    2.5012    0.0000 H   0  0  0  0  0  0  0  0  0  0  0  0
    4.3135    7.0024    0.0000 H   0  0  0  0  0  0  0  0  0  0  0  0
    3.4838    7.0024    0.0000 H   0  0  0  0  0  0  0  0  0  0  0  0
    2.5000    1.6442    0.0000 H   0  0  0  0  0  0  0  0  0  0  0  0
    5.2973    1.6442    0.0000 H   0  0  0  0  0  0  0  0  0  0  0  0
    2.5000    6.1454    0.0000 H   0  0  0  0  0  0  0  0  0  0  0  0
    5.2973    6.1454    0.0000 H   0  0  0  0  0  0  0  0  0  0  0  0
    3.0342    0.0000    0.0000 H   0  0  0  0  0  0  0  0  0  0  0  0
    4.7631    0.0000    0.0000 H   0  0  0  0  0  0  0  0  0  0  0  0
    3.0342    4.5012    0.0000 H   0  0  0  0  0  0  0  0  0  0  0  0
    4.7631    4.5012    0.0000 H   0  0  0  0  0  0  0  0  0  0  0  0
  2  4  1  0  0  0  0
  2  5  1  0  0  0  0
  2 12  1  0  0  0  0
  2 13  1  0  0  0  0
  3  6  1  0  0  0  0
  3  7  1  0  0  0  0
  3 14  1  0  0  0  0
  3 15  1  0  0  0  0
  4  8  2  0  0  0  0
  4 16  1  0  0  0  0
  5  9  2  0  0  0  0
  5 17  1  0  0  0  0
  6 10  2  0  0  0  0
  6 18  1  0  0  0  0
  7 11  2  0  0  0  0
  7 19  1  0  0  0  0
  8  9  1  0  0  0  0
  8 20  1  0  0  0  0
  9 21  1  0  0  0  0
 10 11  1  0  0  0  0
 10 22  1  0  0  0  0
 11 23  1  0  0  0  0
M  END
> <PUBCHEM_COMPOUND_CID>
12492872

> <PUBCHEM_COMPOUND_CANONICALIZED>
1

> <PUBCHEM_CACTVS_COMPLEXITY>
58.1

> <PUBCHEM_CACTVS_HBOND_ACCEPTOR>
0

> <PUBCHEM_CACTVS_HBOND_DONOR>
0

> <PUBCHEM_CACTVS_ROTATABLE_BOND>
0

> <PUBCHEM_CACTVS_SUBSKEYS>
AAADccBwAAAAAAAIAAAAAAAAAAAAAQIAAAAAAAAAAAAAAAAAAAAAGAAAAAAACACAAAAAAAAAAACAACBCAAAAAAAgAAAICAAAAAgIAAAAAQAAAAAAAAAIgAIAAAAAAAAAAAAAAAAAAAAAAAAAAAAAAAAAAA==

> <PUBCHEM_IUPAC_OPENEYE_NAME>
cyclopenta-1,3-diene;nickel

> <PUBCHEM_IUPAC_CAS_NAME>
cyclopenta-1,3-diene;nickel

> <PUBCHEM_IUPAC_NAME_MARKUP>
cyclopenta-1,3-diene;nickel

> <PUBCHEM_IUPAC_NAME>
cyclopenta-1,3-diene;nickel

> <PUBCHEM_IUPAC_SYSTEMATIC_NAME>
cyclopenta-1,3-diene;nickel

> <PUBCHEM_IUPAC_TRADITIONAL_NAME>
cyclopenta-1,3-diene;nickel

> <PUBCHEM_IUPAC_INCHI>
InChI=1S/2C5H6.Ni/c2*1-2-4-5-3-1;/h2*1-4H,5H2;

> <PUBCHEM_IUPAC_INCHIKEY>
LAXIOTUSRGRRNA-UHFFFAOYSA-N

> <PUBCHEM_EXACT_MASS>
190.029242

> <PUBCHEM_MOLECULAR_FORMULA>
C10H12Ni

> <PUBCHEM_MOLECULAR_WEIGHT>
190.90

> <PUBCHEM_OPENEYE_CAN_SMILES>
C1C=CC=C1.C1C=CC=C1.[Ni]

> <PUBCHEM_OPENEYE_ISO_SMILES>
C1C=CC=C1.C1C=CC=C1.[Ni]

> <PUBCHEM_CACTVS_TPSA>
0

> <PUBCHEM_MONOISOTOPIC_WEIGHT>
190.029242

> <PUBCHEM_TOTAL_CHARGE>
0

> <PUBCHEM_HEAVY_ATOM_COUNT>
11

> <PUBCHEM_ATOM_DEF_STEREO_COUNT>
0

> <PUBCHEM_ATOM_UDEF_STEREO_COUNT>
0

> <PUBCHEM_BOND_DEF_STEREO_COUNT>
0

> <PUBCHEM_BOND_UDEF_STEREO_COUNT>
0

> <PUBCHEM_ISOTOPIC_ATOM_COUNT>
0

> <PUBCHEM_COMPONENT_COUNT>
3

> <PUBCHEM_CACTVS_TAUTO_COUNT>
-1

> <PUBCHEM_COORDINATE_TYPE>
1
5
255

$$$$
