10106225
  -OEChem-11012400343D

 30 30  0     0  0  0  0  0  0999 V2000
    2.2317   -0.4504    0.7232 O   0  0  0  0  0  0  0  0  0  0  0  0
    2.3050    2.2405    0.0306 O   0  0  0  0  0  0  0  0  0  0  0  0
    4.4828   -2.8048   -0.7786 O   0  0  0  0  0  0  0  0  0  0  0  0
    4.8953   -0.9901    0.5345 O   0  0  0  0  0  0  0  0  0  0  0  0
   -5.9807   -0.2019    0.6372 O   0  0  0  0  0  0  0  0  0  0  0  0
   -5.0983   -1.9171   -0.5810 O   0  0  0  0  0  0  0  0  0  0  0  0
    1.0919    0.2032    0.3630 C   0  0  0  0  0  0  0  0  0  0  0  0
   -1.2927    0.1689   -0.0236 C   0  0  0  0  0  0  0  0  0  0  0  0
    1.1288    1.5535    0.0156 C   0  0  0  0  0  0  0  0  0  0  0  0
   -0.1188   -0.4891    0.3434 C   0  0  0  0  0  0  0  0  0  0  0  0
   -1.2557    1.5194   -0.3709 C   0  0  0  0  0  0  0  0  0  0  0  0
   -0.0451    2.2117   -0.3512 C   0  0  0  0  0  0  0  0  0  0  0  0
   -2.5552   -0.5529   -0.0439 C   0  0  0  0  0  0  0  0  0  0  0  0
    2.6152   -1.5708   -0.0717 C   0  0  0  0  0  0  0  0  0  0  0  0
   -3.7808    0.0154   -0.0008 C   0  0  0  0  0  0  0  0  0  0  0  0
    2.2561    3.6175   -0.3379 C   0  0  0  0  0  0  0  0  0  0  0  0
    4.1109   -1.7225   -0.0495 C   0  0  0  0  0  0  0  0  0  0  0  0
   -4.9906   -0.8305   -0.0384 C   0  0  0  0  0  0  0  0  0  0  0  0
   -0.1452   -1.5398    0.6244 H   0  0  0  0  0  0  0  0  0  0  0  0
   -2.1418    2.0658   -0.6814 H   0  0  0  0  0  0  0  0  0  0  0  0
   -0.0908    3.2570   -0.6369 H   0  0  0  0  0  0  0  0  0  0  0  0
   -2.4770   -1.6365   -0.1070 H   0  0  0  0  0  0  0  0  0  0  0  0
    2.1637   -2.4739    0.3516 H   0  0  0  0  0  0  0  0  0  0  0  0
    2.3029   -1.4344   -1.1141 H   0  0  0  0  0  0  0  0  0  0  0  0
   -3.9345    1.0828    0.1098 H   0  0  0  0  0  0  0  0  0  0  0  0
    1.6469    4.2011    0.3607 H   0  0  0  0  0  0  0  0  0  0  0  0
    1.9368    3.7459   -1.3777 H   0  0  0  0  0  0  0  0  0  0  0  0
    3.2777    4.0058   -0.2693 H   0  0  0  0  0  0  0  0  0  0  0  0
    5.4561   -2.9279   -0.7806 H   0  0  0  0  0  0  0  0  0  0  0  0
   -6.8108   -0.7247    0.6430 H   0  0  0  0  0  0  0  0  0  0  0  0
  1  7  1  0  0  0  0
  1 14  1  0  0  0  0
  2  9  1  0  0  0  0
  2 16  1  0  0  0  0
  3 17  1  0  0  0  0
  3 29  1  0  0  0  0
  4 17  2  0  0  0  0
  5 18  1  0  0  0  0
  5 30  1  0  0  0  0
  6 18  2  0  0  0  0
  7  9  2  0  0  0  0
  7 10  1  0  0  0  0
  8 10  2  0  0  0  0
  8 11  1  0  0  0  0
  8 13  1  0  0  0  0
  9 12  1  0  0  0  0
 10 19  1  0  0  0  0
 11 12  2  0  0  0  0
 11 20  1  0  0  0  0
 12 21  1  0  0  0  0
 13 15  2  0  0  0  0
 13 22  1  0  0  0  0
 14 17  1  0  0  0  0
 14 23  1  0  0  0  0
 14 24  1  0  0  0  0
 15 18  1  0  0  0  0
 15 25  1  0  0  0  0
 16 26  1  0  0  0  0
 16 27  1  0  0  0  0
 16 28  1  0  0  0  0
M  END
> <PUBCHEM_COMPOUND_CID>
10106225

> <PUBCHEM_CONFORMER_RMSD>
0.8

> <PUBCHEM_CONFORMER_DIVERSEORDER>
3
8
23
12
20
21
15
10
6
13
2
19
11
9
17
4
5
16
14
22
18
7
1

> <PUBCHEM_MMFF94_PARTIAL_CHARGES>
25
1 -0.36
10 -0.15
11 -0.15
12 -0.15
13 -0.18
14 0.34
15 -0.14
16 0.28
17 0.66
18 0.71
19 0.15
2 -0.36
20 0.15
21 0.15
22 0.15
25 0.15
29 0.5
3 -0.65
30 0.5
4 -0.57
5 -0.65
6 -0.57
7 0.08
8 0.03
9 0.08

> <PUBCHEM_EFFECTIVE_ROTOR_COUNT>
6

> <PUBCHEM_PHARMACOPHORE_FEATURES>
9
1 1 acceptor
1 2 acceptor
1 3 acceptor
1 4 acceptor
1 5 acceptor
1 6 acceptor
3 3 4 17 anion
3 5 6 18 anion
6 7 8 9 10 11 12 rings

> <PUBCHEM_HEAVY_ATOM_COUNT>
18

> <PUBCHEM_ATOM_DEF_STEREO_COUNT>
0

> <PUBCHEM_ATOM_UDEF_STEREO_COUNT>
0

> <PUBCHEM_BOND_DEF_STEREO_COUNT>
1

> <PUBCHEM_BOND_UDEF_STEREO_COUNT>
0

> <PUBCHEM_ISOTOPIC_ATOM_COUNT>
0

> <PUBCHEM_COMPONENT_COUNT>
1

> <PUBCHEM_CACTVS_TAUTO_COUNT>
1

> <PUBCHEM_CONFORMER_ID>
009A357100000003

> <PUBCHEM_MMFF94_ENERGY>
59.3602

> <PUBCHEM_FEATURE_SELFOVERLAP>
45.797

> <PUBCHEM_SHAPE_FINGERPRINT>
10989021 7 18410011022619381904
11680986 33 18116440421417601915
11806522 49 18408039598333771240
12032990 46 18410571743183842883
12107183 9 18270128890550625529
12553582 1 18336531729818841091
12841375 25 18408602535122774252
13009979 54 18059307478167251857
13533116 47 18270678813873635763
13740256 8 18409167705600999143
13862211 1 18335133168192394091
13955234 65 18268148832447450048
14178000 29 18412826863139350734
14739800 52 17274536658521648849
15042514 8 17978227154188132146
15342816 4 18263082115938121438
17492 89 18267022950448898471
1813 80 18271257014469558670
18186145 218 17531239591651465579
18222031 100 18412537687186175011
19141452 34 18131908256793275871
20388580 30 18411142424468780732
20645477 70 18262793085902511819
20871998 22 18411695461516460928
20871999 31 18115587015689722404
21041028 32 18342174436424962073
21267235 1 18410018706046888139
21296965 67 18339077086604837536
221490 88 18262523731223641243
22182313 1 18115564020350995469
22950370 63 18339366257799257510
23557571 272 18198628722979796854
23559900 14 18410566306277414363
23566358 27 18338795753003274015
25147074 1 18268731474879053945
2748010 2 18193252149463818060
3071541 250 18409169896329751788
3071541 37 18190184670725123132
3421961 26 18411698802832134272
42630746 31 18340485690049809296
4416823 128 18409165480728552245
465052 167 18341900696831999375
5104073 3 17984973813856460290
7364860 26 18338796822872578112
77188 2 18339080394020312492
8863177 126 17750814310087066923
9709674 26 18188772893895386075
9841814 1 18113886174381118688

> <PUBCHEM_SHAPE_MULTIPOLES>
335.22
10.61
3.17
0.72
9.78
2.06
0.01
-8.68
-0.05
-4.34
0.7
-0.05
-0.09
0.05

> <PUBCHEM_SHAPE_SELFOVERLAP>
695.072

> <PUBCHEM_SHAPE_VOLUME>
190.8

> <PUBCHEM_COORDINATE_TYPE>
2
5
10

$$$$
