76915
  -OEChem-11012401193D

 36 36  0     0  0  0  0  0  0999 V2000
    2.3281    1.7370    0.0061 O   0  0  0  0  0  0  0  0  0  0  0  0
    0.1452    3.2816   -0.0058 O   0  0  0  0  0  0  0  0  0  0  0  0
    2.2684   -1.1367   -0.0008 C   0  0  0  0  0  0  0  0  0  0  0  0
   -2.7101   -0.6394    0.0010 C   0  0  0  0  0  0  0  0  0  0  0  0
    1.0466   -0.2766   -0.0002 C   0  0  0  0  0  0  0  0  0  0  0  0
   -1.3926    0.0781   -0.0006 C   0  0  0  0  0  0  0  0  0  0  0  0
   -0.2061   -0.7555   -0.0012 C   0  0  0  0  0  0  0  0  0  0  0  0
    3.1049   -0.8403    1.2553 C   0  0  0  0  0  0  0  0  0  0  0  0
    3.1144   -0.8475   -1.2537 C   0  0  0  0  0  0  0  0  0  0  0  0
    1.8655   -2.6223   -0.0031 C   0  0  0  0  0  0  0  0  0  0  0  0
   -2.8074   -1.5179    1.2573 C   0  0  0  0  0  0  0  0  0  0  0  0
   -2.8221   -1.5231   -1.2517 C   0  0  0  0  0  0  0  0  0  0  0  0
   -3.8584    0.3825    0.0007 C   0  0  0  0  0  0  0  0  0  0  0  0
    1.2325    1.1958    0.0011 C   0  0  0  0  0  0  0  0  0  0  0  0
   -1.3159    1.4163   -0.0015 C   0  0  0  0  0  0  0  0  0  0  0  0
    0.0069    2.0681   -0.0028 C   0  0  0  0  0  0  0  0  0  0  0  0
   -0.3895   -1.8208   -0.0040 H   0  0  0  0  0  0  0  0  0  0  0  0
    2.4997   -0.9214    2.1663 H   0  0  0  0  0  0  0  0  0  0  0  0
    3.9252   -1.5628    1.3480 H   0  0  0  0  0  0  0  0  0  0  0  0
    3.5706    0.1492    1.2500 H   0  0  0  0  0  0  0  0  0  0  0  0
    3.5707    0.1464   -1.2540 H   0  0  0  0  0  0  0  0  0  0  0  0
    2.5160   -0.9411   -2.1680 H   0  0  0  0  0  0  0  0  0  0  0  0
    3.9408   -1.5645   -1.3327 H   0  0  0  0  0  0  0  0  0  0  0  0
    1.3000   -2.9035   -0.8997 H   0  0  0  0  0  0  0  0  0  0  0  0
    1.2976   -2.9053    0.8916 H   0  0  0  0  0  0  0  0  0  0  0  0
    2.7625   -3.2552   -0.0020 H   0  0  0  0  0  0  0  0  0  0  0  0
   -2.6401   -0.9324    2.1695 H   0  0  0  0  0  0  0  0  0  0  0  0
   -3.8065   -1.9632    1.3380 H   0  0  0  0  0  0  0  0  0  0  0  0
   -2.0971   -2.3514    1.2601 H   0  0  0  0  0  0  0  0  0  0  0  0
   -2.1090   -2.3542   -1.2598 H   0  0  0  0  0  0  0  0  0  0  0  0
   -2.6660   -0.9399   -2.1673 H   0  0  0  0  0  0  0  0  0  0  0  0
   -3.8211   -1.9710   -1.3188 H   0  0  0  0  0  0  0  0  0  0  0  0
   -3.8630    1.0136   -0.8963 H   0  0  0  0  0  0  0  0  0  0  0  0
   -3.8606    1.0162    0.8959 H   0  0  0  0  0  0  0  0  0  0  0  0
   -4.8239   -0.1404    0.0032 H   0  0  0  0  0  0  0  0  0  0  0  0
   -2.1520    2.1022   -0.0016 H   0  0  0  0  0  0  0  0  0  0  0  0
  1 14  2  0  0  0  0
  2 16  2  0  0  0  0
  3  5  1  0  0  0  0
  3  8  1  0  0  0  0
  3  9  1  0  0  0  0
  3 10  1  0  0  0  0
  4  6  1  0  0  0  0
  4 11  1  0  0  0  0
  4 12  1  0  0  0  0
  4 13  1  0  0  0  0
  5  7  2  0  0  0  0
  5 14  1  0  0  0  0
  6  7  1  0  0  0  0
  6 15  2  0  0  0  0
  7 17  1  0  0  0  0
  8 18  1  0  0  0  0
  8 19  1  0  0  0  0
  8 20  1  0  0  0  0
  9 21  1  0  0  0  0
  9 22  1  0  0  0  0
  9 23  1  0  0  0  0
 10 24  1  0  0  0  0
 10 25  1  0  0  0  0
 10 26  1  0  0  0  0
 11 27  1  0  0  0  0
 11 28  1  0  0  0  0
 11 29  1  0  0  0  0
 12 30  1  0  0  0  0
 12 31  1  0  0  0  0
 12 32  1  0  0  0  0
 13 33  1  0  0  0  0
 13 34  1  0  0  0  0
 13 35  1  0  0  0  0
 14 16  1  0  0  0  0
 15 16  1  0  0  0  0
 15 36  1  0  0  0  0
M  END
> <PUBCHEM_COMPOUND_CID>
76915

> <PUBCHEM_CONFORMER_RMSD>
0.6

> <PUBCHEM_CONFORMER_DIVERSEORDER>
1
2

> <PUBCHEM_MMFF94_PARTIAL_CHARGES>
12
1 -0.57
14 0.56
15 -0.14
16 0.56
17 0.15
2 -0.57
3 0.14
36 0.15
4 0.14
5 -0.12
6 -0.14
7 -0.15

> <PUBCHEM_EFFECTIVE_ROTOR_COUNT>
2

> <PUBCHEM_PHARMACOPHORE_FEATURES>
5
1 1 acceptor
1 2 acceptor
4 3 8 9 10 hydrophobe
4 4 11 12 13 hydrophobe
6 5 6 7 14 15 16 rings

> <PUBCHEM_HEAVY_ATOM_COUNT>
16

> <PUBCHEM_ATOM_DEF_STEREO_COUNT>
0

> <PUBCHEM_ATOM_UDEF_STEREO_COUNT>
0

> <PUBCHEM_BOND_DEF_STEREO_COUNT>
0

> <PUBCHEM_BOND_UDEF_STEREO_COUNT>
0

> <PUBCHEM_ISOTOPIC_ATOM_COUNT>
0

> <PUBCHEM_COMPONENT_COUNT>
1

> <PUBCHEM_CACTVS_TAUTO_COUNT>
1

> <PUBCHEM_CONFORMER_ID>
00012C7300000001

> <PUBCHEM_MMFF94_ENERGY>
48.7622

> <PUBCHEM_FEATURE_SELFOVERLAP>
25.379

> <PUBCHEM_SHAPE_FINGERPRINT>
10130415 120 18333730195850019147
10618630 7 18338235968562250590
10967382 1 18410856572598609447
10980938 120 18339645671212505253
11578080 2 17488152990517797417
116883 192 18197215836904103645
12553582 1 18410857633492864167
13140716 1 18410573955134484593
13296908 3 18336267928874750291
14022347 108 18191320277183837867
14115302 16 17676778569427624087
15490181 7 17544760487331809392
15490181 8 17691403435460059620
15848700 24 18341886360193644389
16945 1 18194682566508979460
17990270 104 18337670939949977715
19591789 44 17471306513769283424
20201158 50 18335136479632946851
20361792 2 18413387639876185183
20645476 183 17254299829442664166
20645477 70 18266170828789270055
20871998 184 18055912087149078407
20871998 22 18341614772131539014
21501502 16 18338231665295092365
21524375 3 17333088027827949936
2255824 54 18266178520484476663
22721475 48 18338519642409222938
22802520 49 17625541190292473798
2334 1 18410575127665772249
23388829 49 18342164596564540556
23402539 116 18413101763096261214
23419403 2 17611977821042561204
23463225 33 18410854347826668609
23552423 10 18268428130239328845
23557571 272 18127408948112007666
23559900 14 18123463879043616750
23598291 2 18131075973772132311
2748010 2 18411411817338783180
33824 294 17688032328963230947
34934 24 18339071601710073867
352729 6 17258216268059274953
5902787 121 18259980500377079147
6338986 31 18339629062621580903
6992083 37 18130234774441430787
7364860 26 18198907091898801161
74978 22 18339643442604650023
7832392 63 18413671314224226289
81228 2 18121219783567733064
8809292 202 18187651279806930627

> <PUBCHEM_SHAPE_MULTIPOLES>
317.53
5.55
2.73
1.01
1.51
1.47
0
-2.49
0.01
-0.57
0.01
-0.08
-0.47
0

> <PUBCHEM_SHAPE_SELFOVERLAP>
658.171

> <PUBCHEM_SHAPE_VOLUME>
184.7

> <PUBCHEM_COORDINATE_TYPE>
2
5
10

$$$$
