136674
  -OEChem-11012401283D

 22 23  0     1  0  0  0  0  0999 V2000
    0.1010   -0.9864   -0.3252 C   0  0  2  0  0  0  0  0  0  0  0  0
   -0.8178    1.0423   -0.3200 C   0  0  2  0  0  0  0  0  0  0  0  0
    1.0913   -0.1641    0.5339 C   0  0  2  0  0  0  0  0  0  0  0  0
   -0.3668    0.0291   -1.3699 C   0  0  0  0  0  0  0  0  0  0  0  0
    0.4754    1.2510    0.4890 C   0  0  0  0  0  0  0  0  0  0  0  0
   -1.1895   -1.1924    0.4897 C   0  0  0  0  0  0  0  0  0  0  0  0
   -1.8081    0.2134    0.5154 C   0  0  0  0  0  0  0  0  0  0  0  0
    2.5144   -0.1930   -0.0128 C   0  0  0  0  0  0  0  0  0  0  0  0
    0.5135   -1.9155   -0.7243 H   0  0  0  0  0  0  0  0  0  0  0  0
   -1.2427    1.9692   -0.7101 H   0  0  0  0  0  0  0  0  0  0  0  0
    1.1147   -0.5372    1.5651 H   0  0  0  0  0  0  0  0  0  0  0  0
   -1.1886   -0.3408   -1.9924 H   0  0  0  0  0  0  0  0  0  0  0  0
    0.4361    0.4013   -2.0134 H   0  0  0  0  0  0  0  0  0  0  0  0
    1.1347    1.9625   -0.0215 H   0  0  0  0  0  0  0  0  0  0  0  0
    0.2741    1.6368    1.4938 H   0  0  0  0  0  0  0  0  0  0  0  0
   -0.9984   -1.5775    1.4962 H   0  0  0  0  0  0  0  0  0  0  0  0
   -1.8632   -1.8910   -0.0197 H   0  0  0  0  0  0  0  0  0  0  0  0
   -2.7978    0.1972    0.0454 H   0  0  0  0  0  0  0  0  0  0  0  0
   -1.9199    0.5956    1.5350 H   0  0  0  0  0  0  0  0  0  0  0  0
    3.1732    0.4291    0.6021 H   0  0  0  0  0  0  0  0  0  0  0  0
    2.9080   -1.2147   -0.0017 H   0  0  0  0  0  0  0  0  0  0  0  0
    2.5687    0.1764   -1.0418 H   0  0  0  0  0  0  0  0  0  0  0  0
  1  3  1  0  0  0  0
  1  4  1  0  0  0  0
  1  6  1  0  0  0  0
  1  9  1  0  0  0  0
  2  4  1  0  0  0  0
  2  5  1  0  0  0  0
  2  7  1  0  0  0  0
  2 10  1  0  0  0  0
  3  5  1  0  0  0  0
  3  8  1  0  0  0  0
  3 11  1  0  0  0  0
  4 12  1  0  0  0  0
  4 13  1  0  0  0  0
  5 14  1  0  0  0  0
  5 15  1  0  0  0  0
  6  7  1  0  0  0  0
  6 16  1  0  0  0  0
  6 17  1  0  0  0  0
  7 18  1  0  0  0  0
  7 19  1  0  0  0  0
  8 20  1  0  0  0  0
  8 21  1  0  0  0  0
  8 22  1  0  0  0  0
M  END
> <PUBCHEM_COMPOUND_CID>
136674

> <PUBCHEM_CONFORMER_RMSD>
0.4

> <PUBCHEM_CONFORMER_DIVERSEORDER>
2
3
1
4

> <PUBCHEM_MMFF94_PARTIAL_CHARGES>
0

> <PUBCHEM_EFFECTIVE_ROTOR_COUNT>
1

> <PUBCHEM_PHARMACOPHORE_FEATURES>
1
7 1 2 3 4 5 6 7 rings

> <PUBCHEM_HEAVY_ATOM_COUNT>
8

> <PUBCHEM_ATOM_DEF_STEREO_COUNT>
0

> <PUBCHEM_ATOM_UDEF_STEREO_COUNT>
3

> <PUBCHEM_BOND_DEF_STEREO_COUNT>
0

> <PUBCHEM_BOND_UDEF_STEREO_COUNT>
0

> <PUBCHEM_ISOTOPIC_ATOM_COUNT>
0

> <PUBCHEM_COMPONENT_COUNT>
1

> <PUBCHEM_CACTVS_TAUTO_COUNT>
1

> <PUBCHEM_CONFORMER_ID>
000215E200000002

> <PUBCHEM_MMFF94_ENERGY>
24.9264

> <PUBCHEM_FEATURE_SELFOVERLAP>
5.074

> <PUBCHEM_SHAPE_FINGERPRINT>
12423570 1 16744774548792961463
13024252 1 12829494709938010878
137420 1 9349446056079949989
16945 1 18333455326232355217
21040471 1 18192987119425909656
23552423 10 18186806842366410394
29004967 10 18272938223688556258
369184 2 18337941329795471514
5084963 1 17632856451394182531
5943 1 16034577482783773077

> <PUBCHEM_SHAPE_MULTIPOLES>
164.64
2.27
1.26
1.01
1.14
0.05
-0.26
-0.18
0.33
-0.21
0.1
-0.14
0.01
0.13

> <PUBCHEM_SHAPE_SELFOVERLAP>
343.837

> <PUBCHEM_SHAPE_VOLUME>
93.4

> <PUBCHEM_COORDINATE_TYPE>
2
5
10

$$$$
