5344191
  -OEChem-11012401033D

 30 32  0     0  0  0  0  0  0999 V2000
    5.6327    0.5771    2.1727 Cl  0  0  0  0  0  0  0  0  0  0  0  0
   -2.0950   -1.0664    0.1105 N   0  0  0  0  0  0  0  0  0  0  0  0
   -1.8223    1.1257   -0.1356 N   0  0  0  0  0  0  0  0  0  0  0  0
    0.9150   -2.8402    0.1428 N   0  0  0  0  0  0  0  0  0  0  0  0
   -3.3600   -0.5369    0.1189 C   0  0  0  0  0  0  0  0  0  0  0  0
   -3.1631    0.8325   -0.0360 C   0  0  0  0  0  0  0  0  0  0  0  0
   -1.2117   -0.0343   -0.0442 C   0  0  0  0  0  0  0  0  0  0  0  0
    0.1556   -0.3573   -0.0817 C   0  0  0  0  0  0  0  0  0  0  0  0
   -4.6211   -1.1204    0.2452 C   0  0  0  0  0  0  0  0  0  0  0  0
   -4.2792    1.6854   -0.0693 C   0  0  0  0  0  0  0  0  0  0  0  0
    2.5376    0.4754   -0.3419 C   0  0  0  0  0  0  0  0  0  0  0  0
    1.0770    0.6303   -0.2695 C   0  0  0  0  0  0  0  0  0  0  0  0
   -5.7207   -0.2567    0.2100 C   0  0  0  0  0  0  0  0  0  0  0  0
   -5.5552    1.1217    0.0555 C   0  0  0  0  0  0  0  0  0  0  0  0
    3.2936    0.5892    0.8155 C   0  0  0  0  0  0  0  0  0  0  0  0
    3.1352    0.2164   -1.5665 C   0  0  0  0  0  0  0  0  0  0  0  0
    4.6789    0.4408    0.7464 C   0  0  0  0  0  0  0  0  0  0  0  0
    4.5203    0.0680   -1.6354 C   0  0  0  0  0  0  0  0  0  0  0  0
    5.2922    0.1800   -0.4790 C   0  0  0  0  0  0  0  0  0  0  0  0
    0.5902   -1.7305    0.0417 C   0  0  0  0  0  0  0  0  0  0  0  0
   -1.8829   -2.0512    0.2037 H   0  0  0  0  0  0  0  0  0  0  0  0
   -4.7471   -2.1905    0.3649 H   0  0  0  0  0  0  0  0  0  0  0  0
   -4.1610    2.7576   -0.1888 H   0  0  0  0  0  0  0  0  0  0  0  0
    0.7538    1.6654   -0.3750 H   0  0  0  0  0  0  0  0  0  0  0  0
   -6.7231   -0.6669    0.3046 H   0  0  0  0  0  0  0  0  0  0  0  0
   -6.4291    1.7675    0.0318 H   0  0  0  0  0  0  0  0  0  0  0  0
    2.8137    0.7923    1.7703 H   0  0  0  0  0  0  0  0  0  0  0  0
    2.5451    0.1270   -2.4749 H   0  0  0  0  0  0  0  0  0  0  0  0
    4.9978   -0.1350   -2.5895 H   0  0  0  0  0  0  0  0  0  0  0  0
    6.3705    0.0617   -0.5480 H   0  0  0  0  0  0  0  0  0  0  0  0
  1 17  1  0  0  0  0
  2  5  1  0  0  0  0
  2  7  1  0  0  0  0
  2 21  1  0  0  0  0
  3  6  1  0  0  0  0
  3  7  2  0  0  0  0
  4 20  3  0  0  0  0
  5  6  1  0  0  0  0
  5  9  2  0  0  0  0
  6 10  2  0  0  0  0
  7  8  1  0  0  0  0
  8 12  2  0  0  0  0
  8 20  1  0  0  0  0
  9 13  1  0  0  0  0
  9 22  1  0  0  0  0
 10 14  1  0  0  0  0
 10 23  1  0  0  0  0
 11 12  1  0  0  0  0
 11 15  2  0  0  0  0
 11 16  1  0  0  0  0
 12 24  1  0  0  0  0
 13 14  2  0  0  0  0
 13 25  1  0  0  0  0
 14 26  1  0  0  0  0
 15 17  1  0  0  0  0
 15 27  1  0  0  0  0
 16 18  2  0  0  0  0
 16 28  1  0  0  0  0
 17 19  2  0  0  0  0
 18 19  1  0  0  0  0
 18 29  1  0  0  0  0
 19 30  1  0  0  0  0
M  END
> <PUBCHEM_COMPOUND_CID>
5344191

> <PUBCHEM_CONFORMER_RMSD>
0.6

> <PUBCHEM_CONFORMER_DIVERSEORDER>
2
9
12
6
11
1
10
5
7
4
8
3

> <PUBCHEM_MMFF94_PARTIAL_CHARGES>
30
1 -0.18
10 -0.15
11 0.03
12 -0.18
13 -0.15
14 -0.15
15 -0.15
16 -0.15
17 0.18
18 -0.15
19 -0.15
2 0.03
20 0.49
21 0.27
22 0.15
23 0.15
24 0.15
25 0.15
26 0.15
27 0.15
28 0.15
29 0.15
3 -0.57
30 0.15
4 -0.56
5 -0.15
6 0.23
7 0.14
8 0.11
9 -0.15

> <PUBCHEM_EFFECTIVE_ROTOR_COUNT>
2

> <PUBCHEM_PHARMACOPHORE_FEATURES>
6
1 2 donor
1 4 acceptor
3 2 3 7 cation
5 2 3 5 6 7 rings
6 11 15 16 17 18 19 rings
6 5 6 9 10 13 14 rings

> <PUBCHEM_HEAVY_ATOM_COUNT>
20

> <PUBCHEM_ATOM_DEF_STEREO_COUNT>
0

> <PUBCHEM_ATOM_UDEF_STEREO_COUNT>
0

> <PUBCHEM_BOND_DEF_STEREO_COUNT>
1

> <PUBCHEM_BOND_UDEF_STEREO_COUNT>
0

> <PUBCHEM_ISOTOPIC_ATOM_COUNT>
0

> <PUBCHEM_COMPONENT_COUNT>
1

> <PUBCHEM_CACTVS_TAUTO_COUNT>
1

> <PUBCHEM_CONFORMER_ID>
00518BBF00000002

> <PUBCHEM_MMFF94_ENERGY>
45.9501

> <PUBCHEM_FEATURE_SELFOVERLAP>
30.553

> <PUBCHEM_SHAPE_FINGERPRINT>
10912923 1 17386009493757023364
11287383 113 16845292765008247926
11646440 116 18131078146809527473
11963148 33 18188208822856398027
12107183 9 16375482244018576945
12236239 1 17458344156209043260
12403259 415 18131353024816554696
12616971 3 17095238142028211734
12633257 1 16588020217116284978
12730499 353 17489875951171557214
12839892 36 18260257564443807138
12916748 109 18343023293797831720
13533116 47 17917152698286908950
13760787 5 16443063919461110876
13914758 101 16009296640282220949
14251764 18 17822007627781562712
14341114 176 14562533972471062660
14341114 328 17458346338010063025
14466204 15 18409161087077787696
16079462 125 17774713208079603456
17349148 13 17822297902771697103
17844677 252 16702031854475731953
19489759 90 18408886239688768953
200 152 15410900630218838221
20645477 70 16487267534399332620
21033648 144 16951412207151640319
21033648 29 17489295365571034153
21267235 1 18336558204814300867
220451 1 16370732542817236946
22956985 138 17679573442334772018
23402539 116 18412822508258563293
23559900 14 18340218383959244662
23569914 152 16334140495672727189
2916195 48 17989197183593792480
300161 21 18410570644584883661
3004659 81 18040722463583259868
345986 75 16661183881603919952
34797466 226 16917069970854537493
3545911 37 18410016512025169789
4072396 5 18186795868513654234
465052 167 16950004738037333706
495365 180 17418089928232383094
4990 188 18060428996964579862
5104073 3 18264493893252370067
542803 24 17530970189289877285
59755656 215 18339648845562966350
633830 44 18343579668061358100
8272917 22 16805322167749519722

> <PUBCHEM_SHAPE_MULTIPOLES>
398.52
14.34
1.59
1.23
2.27
0.89
0.13
-3.75
2.31
1.02
0.15
-2.74
-0.2
0.65

> <PUBCHEM_SHAPE_SELFOVERLAP>
873.851

> <PUBCHEM_SHAPE_VOLUME>
215.2

> <PUBCHEM_COORDINATE_TYPE>
2
5
10

$$$$
