643836
  -OEChem-11012401183D

 21 20  0     0  0  0  0  0  0999 V2000
   -0.9260   -0.1860    0.3010 C   0  0  0  0  0  0  0  0  0  0  0  0
   -2.2261   -0.0098   -0.4875 C   0  0  0  0  0  0  0  0  0  0  0  0
    0.2191   -0.7492   -0.5465 C   0  0  0  0  0  0  0  0  0  0  0  0
   -3.3382    0.5387    0.3933 C   0  0  0  0  0  0  0  0  0  0  0  0
    1.4866   -0.9428    0.2347 C   0  0  0  0  0  0  0  0  0  0  0  0
    2.4348   -0.0033    0.3618 C   0  0  0  0  0  0  0  0  0  0  0  0
    2.3498    1.3525   -0.2570 C   0  0  0  0  0  0  0  0  0  0  0  0
   -0.6294    0.7827    0.7230 H   0  0  0  0  0  0  0  0  0  0  0  0
   -1.1087   -0.8551    1.1520 H   0  0  0  0  0  0  0  0  0  0  0  0
   -2.0598    0.6732   -1.3284 H   0  0  0  0  0  0  0  0  0  0  0  0
   -2.5389   -0.9729   -0.9069 H   0  0  0  0  0  0  0  0  0  0  0  0
    0.3827   -0.1247   -1.4320 H   0  0  0  0  0  0  0  0  0  0  0  0
   -0.0782   -1.7288   -0.9432 H   0  0  0  0  0  0  0  0  0  0  0  0
   -3.5486   -0.1386    1.2271 H   0  0  0  0  0  0  0  0  0  0  0  0
   -3.0671    1.5164    0.8041 H   0  0  0  0  0  0  0  0  0  0  0  0
   -4.2578    0.6577   -0.1881 H   0  0  0  0  0  0  0  0  0  0  0  0
    1.6263   -1.8994    0.7312 H   0  0  0  0  0  0  0  0  0  0  0  0
    3.3240   -0.2308    0.9431 H   0  0  0  0  0  0  0  0  0  0  0  0
    3.0745    1.4337   -1.0730 H   0  0  0  0  0  0  0  0  0  0  0  0
    2.6074    2.1058    0.4952 H   0  0  0  0  0  0  0  0  0  0  0  0
    1.3638    1.6183   -0.6429 H   0  0  0  0  0  0  0  0  0  0  0  0
  1  2  1  0  0  0  0
  1  3  1  0  0  0  0
  1  8  1  0  0  0  0
  1  9  1  0  0  0  0
  2  4  1  0  0  0  0
  2 10  1  0  0  0  0
  2 11  1  0  0  0  0
  3  5  1  0  0  0  0
  3 12  1  0  0  0  0
  3 13  1  0  0  0  0
  4 14  1  0  0  0  0
  4 15  1  0  0  0  0
  4 16  1  0  0  0  0
  5  6  2  0  0  0  0
  5 17  1  0  0  0  0
  6  7  1  0  0  0  0
  6 18  1  0  0  0  0
  7 19  1  0  0  0  0
  7 20  1  0  0  0  0
  7 21  1  0  0  0  0
M  END
> <PUBCHEM_COMPOUND_CID>
643836

> <PUBCHEM_CONFORMER_RMSD>
0.4

> <PUBCHEM_CONFORMER_DIVERSEORDER>
4
24
13
21
19
14
23
25
9
20
3
22
1
11
5
7
10
12
6
16
17
15
8
18
2

> <PUBCHEM_MMFF94_PARTIAL_CHARGES>
6
17 0.15
18 0.15
3 0.14
5 -0.29
6 -0.29
7 0.14

> <PUBCHEM_EFFECTIVE_ROTOR_COUNT>
3

> <PUBCHEM_PHARMACOPHORE_FEATURES>
3
1 4 hydrophobe
1 7 hydrophobe
4 1 2 3 5 hydrophobe

> <PUBCHEM_HEAVY_ATOM_COUNT>
7

> <PUBCHEM_ATOM_DEF_STEREO_COUNT>
0

> <PUBCHEM_ATOM_UDEF_STEREO_COUNT>
0

> <PUBCHEM_BOND_DEF_STEREO_COUNT>
1

> <PUBCHEM_BOND_UDEF_STEREO_COUNT>
0

> <PUBCHEM_ISOTOPIC_ATOM_COUNT>
0

> <PUBCHEM_COMPONENT_COUNT>
1

> <PUBCHEM_CACTVS_TAUTO_COUNT>
1

> <PUBCHEM_CONFORMER_ID>
0009D2FC00000004

> <PUBCHEM_MMFF94_ENERGY>
-0.7662

> <PUBCHEM_FEATURE_SELFOVERLAP>
15.223

> <PUBCHEM_SHAPE_FINGERPRINT>
10149128 111 18201447969018642569
10857977 72 16081091484899760021
12897270 3 14620797106406241437
12932764 1 17676482822285047343
14325111 11 18412544323121390383
14390081 3 18272930544160469377
20096714 4 18338513161809865022
21040471 1 18201431540895264214
29004967 10 10592041379812054726
3248919 1 18202274784698853375
5460574 1 9727629518709812395

> <PUBCHEM_SHAPE_MULTIPOLES>
144.06
5
1.13
0.76
2.62
0.2
0.02
1.59
-0.49
-0.68
0.06
0.07
-0.02
-0.25

> <PUBCHEM_SHAPE_SELFOVERLAP>
250.468

> <PUBCHEM_SHAPE_VOLUME>
96

> <PUBCHEM_COORDINATE_TYPE>
2
5
10

$$$$
