12502931
  -OEChem-11012401243D

 25 26  0     1  0  0  0  0  0999 V2000
    1.1177   -0.6052   -0.4457 C   0  0  1  0  0  0  0  0  0  0  0  0
    1.1167    0.6061    0.4456 C   0  0  1  0  0  0  0  0  0  0  0  0
    2.4209    0.0011    0.0006 C   0  0  0  0  0  0  0  0  0  0  0  0
    0.4892   -1.8280    0.1234 C   0  0  0  0  0  0  0  0  0  0  0  0
    0.4874    1.8283   -0.1241 C   0  0  0  0  0  0  0  0  0  0  0  0
   -1.0245   -1.8373   -0.1290 C   0  0  0  0  0  0  0  0  0  0  0  0
   -1.0262    1.8367    0.1288 C   0  0  0  0  0  0  0  0  0  0  0  0
   -1.7903   -0.6317    0.4448 C   0  0  0  0  0  0  0  0  0  0  0  0
   -1.7911    0.6301   -0.4443 C   0  0  0  0  0  0  0  0  0  0  0  0
    0.8995   -0.4982   -1.5034 H   0  0  0  0  0  0  0  0  0  0  0  0
    0.8979    0.4991    1.5030 H   0  0  0  0  0  0  0  0  0  0  0  0
    3.0068   -0.5387    0.7344 H   0  0  0  0  0  0  0  0  0  0  0  0
    3.0071    0.5413   -0.7327 H   0  0  0  0  0  0  0  0  0  0  0  0
    0.6841   -1.9121    1.1994 H   0  0  0  0  0  0  0  0  0  0  0  0
    0.9350   -2.7118   -0.3472 H   0  0  0  0  0  0  0  0  0  0  0  0
    0.6820    1.9119   -1.2002 H   0  0  0  0  0  0  0  0  0  0  0  0
    0.9327    2.7126    0.3461 H   0  0  0  0  0  0  0  0  0  0  0  0
   -1.4269   -2.7486    0.3314 H   0  0  0  0  0  0  0  0  0  0  0  0
   -1.2238   -1.9220   -1.2044 H   0  0  0  0  0  0  0  0  0  0  0  0
   -1.4295    2.7474   -0.3318 H   0  0  0  0  0  0  0  0  0  0  0  0
   -1.2252    1.9215    1.2043 H   0  0  0  0  0  0  0  0  0  0  0  0
   -1.4533   -0.4105    1.4637 H   0  0  0  0  0  0  0  0  0  0  0  0
   -2.8373   -0.9501    0.5414 H   0  0  0  0  0  0  0  0  0  0  0  0
   -1.4546    0.4091   -1.4633 H   0  0  0  0  0  0  0  0  0  0  0  0
   -2.8385    0.9474   -0.5402 H   0  0  0  0  0  0  0  0  0  0  0  0
  1  2  1  0  0  0  0
  1  3  1  0  0  0  0
  1  4  1  0  0  0  0
  1 10  1  0  0  0  0
  2  3  1  0  0  0  0
  2  5  1  0  0  0  0
  2 11  1  0  0  0  0
  3 12  1  0  0  0  0
  3 13  1  0  0  0  0
  4  6  1  0  0  0  0
  4 14  1  0  0  0  0
  4 15  1  0  0  0  0
  5  7  1  0  0  0  0
  5 16  1  0  0  0  0
  5 17  1  0  0  0  0
  6  8  1  0  0  0  0
  6 18  1  0  0  0  0
  6 19  1  0  0  0  0
  7  9  1  0  0  0  0
  7 20  1  0  0  0  0
  7 21  1  0  0  0  0
  8  9  1  0  0  0  0
  8 22  1  0  0  0  0
  8 23  1  0  0  0  0
  9 24  1  0  0  0  0
  9 25  1  0  0  0  0
M  END
> <PUBCHEM_COMPOUND_CID>
12502931

> <PUBCHEM_CONFORMER_RMSD>
0.4

> <PUBCHEM_CONFORMER_DIVERSEORDER>
1
3
2

> <PUBCHEM_MMFF94_PARTIAL_CHARGES>
9
1 -0.19
10 0.1
11 0.1
12 0.1
13 0.1
2 -0.19
3 -0.2
4 0.09
5 0.09

> <PUBCHEM_EFFECTIVE_ROTOR_COUNT>
1.4

> <PUBCHEM_PHARMACOPHORE_FEATURES>
0

> <PUBCHEM_HEAVY_ATOM_COUNT>
9

> <PUBCHEM_ATOM_DEF_STEREO_COUNT>
2

> <PUBCHEM_ATOM_UDEF_STEREO_COUNT>
0

> <PUBCHEM_BOND_DEF_STEREO_COUNT>
0

> <PUBCHEM_BOND_UDEF_STEREO_COUNT>
0

> <PUBCHEM_ISOTOPIC_ATOM_COUNT>
0

> <PUBCHEM_COMPONENT_COUNT>
1

> <PUBCHEM_CACTVS_TAUTO_COUNT>
1

> <PUBCHEM_CONFORMER_ID>
00BEC79300000001

> <PUBCHEM_MMFF94_ENERGY>
19.049

> <PUBCHEM_FEATURE_SELFOVERLAP>
0

> <PUBCHEM_SHAPE_FINGERPRINT>
16945 1 18411982463984017798
18185500 45 16898771086443302439
21040471 1 18266458707034308340
21922407 69 15502676904465047159
23235685 24 18337386033173370485
241688 4 17689715264252140345
2748010 2 18194685856385181175
5084963 1 18057606670764594410
66348 1 18266459789318542181

> <PUBCHEM_SHAPE_MULTIPOLES>
185.22
2.54
2.28
0.71
0.4
0
0
0
0
-0.47
0
-0.03
0
0.1

> <PUBCHEM_SHAPE_SELFOVERLAP>
363.431

> <PUBCHEM_SHAPE_VOLUME>
110.4

> <PUBCHEM_COORDINATE_TYPE>
2
5
10

$$$$
