7656
  -OEChem-11012400363D

 30 31  0     0  0  0  0  0  0999 V2000
   -0.0051    0.0444   -0.5150 N   0  0  0  0  0  0  0  0  0  0  0  0
   -1.1964    0.0548   -1.3253 C   0  0  0  0  0  0  0  0  0  0  0  0
    1.2036    0.0698   -1.3377 C   0  0  0  0  0  0  0  0  0  0  0  0
   -2.4410    0.0189   -0.5038 C   0  0  0  0  0  0  0  0  0  0  0  0
    2.4516    0.0265   -0.5043 C   0  0  0  0  0  0  0  0  0  0  0  0
   -3.0106   -1.2053   -0.1538 C   0  0  0  0  0  0  0  0  0  0  0  0
    3.0321    1.2136   -0.0730 C   0  0  0  0  0  0  0  0  0  0  0  0
   -3.0354    1.2096   -0.0859 C   0  0  0  0  0  0  0  0  0  0  0  0
    3.0147   -1.2003   -0.1723 C   0  0  0  0  0  0  0  0  0  0  0  0
   -4.1745   -1.2387    0.6143 C   0  0  0  0  0  0  0  0  0  0  0  0
    4.1918    1.1733    0.7011 C   0  0  0  0  0  0  0  0  0  0  0  0
   -4.1992    1.1761    0.6824 C   0  0  0  0  0  0  0  0  0  0  0  0
    4.1742   -1.2406    0.6020 C   0  0  0  0  0  0  0  0  0  0  0  0
   -4.7688   -0.0481    1.0325 C   0  0  0  0  0  0  0  0  0  0  0  0
    4.7628   -0.0538    1.0388 C   0  0  0  0  0  0  0  0  0  0  0  0
   -1.2010   -0.8046   -2.0091 H   0  0  0  0  0  0  0  0  0  0  0  0
   -1.2189    0.9447   -1.9687 H   0  0  0  0  0  0  0  0  0  0  0  0
    1.2195    0.9704   -1.9658 H   0  0  0  0  0  0  0  0  0  0  0  0
    1.2089   -0.7834   -2.0289 H   0  0  0  0  0  0  0  0  0  0  0  0
   -0.0041    0.8567    0.1026 H   0  0  0  0  0  0  0  0  0  0  0  0
   -2.5568   -2.1405   -0.4714 H   0  0  0  0  0  0  0  0  0  0  0  0
    2.5950    2.1750   -0.3284 H   0  0  0  0  0  0  0  0  0  0  0  0
   -2.6008    2.1701   -0.3503 H   0  0  0  0  0  0  0  0  0  0  0  0
    2.5641   -2.1312   -0.5055 H   0  0  0  0  0  0  0  0  0  0  0  0
   -4.6179   -2.1919    0.8873 H   0  0  0  0  0  0  0  0  0  0  0  0
    4.6499    2.0973    1.0416 H   0  0  0  0  0  0  0  0  0  0  0  0
   -4.6617    2.1032    1.0084 H   0  0  0  0  0  0  0  0  0  0  0  0
    4.6187   -2.1960    0.8653 H   0  0  0  0  0  0  0  0  0  0  0  0
   -5.6748   -0.0742    1.6308 H   0  0  0  0  0  0  0  0  0  0  0  0
    5.6655   -0.0851    1.6418 H   0  0  0  0  0  0  0  0  0  0  0  0
  1  2  1  0  0  0  0
  1  3  1  0  0  0  0
  1 20  1  0  0  0  0
  2  4  1  0  0  0  0
  2 16  1  0  0  0  0
  2 17  1  0  0  0  0
  3  5  1  0  0  0  0
  3 18  1  0  0  0  0
  3 19  1  0  0  0  0
  4  6  2  0  0  0  0
  4  8  1  0  0  0  0
  5  7  2  0  0  0  0
  5  9  1  0  0  0  0
  6 10  1  0  0  0  0
  6 21  1  0  0  0  0
  7 11  1  0  0  0  0
  7 22  1  0  0  0  0
  8 12  2  0  0  0  0
  8 23  1  0  0  0  0
  9 13  2  0  0  0  0
  9 24  1  0  0  0  0
 10 14  2  0  0  0  0
 10 25  1  0  0  0  0
 11 15  2  0  0  0  0
 11 26  1  0  0  0  0
 12 14  1  0  0  0  0
 12 27  1  0  0  0  0
 13 15  1  0  0  0  0
 13 28  1  0  0  0  0
 14 29  1  0  0  0  0
 15 30  1  0  0  0  0
M  END
> <PUBCHEM_COMPOUND_CID>
7656

> <PUBCHEM_CONFORMER_RMSD>
0.6

> <PUBCHEM_CONFORMER_DIVERSEORDER>
1
8
6
7
2
5
3
4

> <PUBCHEM_MMFF94_PARTIAL_CHARGES>
26
1 -0.9
10 -0.15
11 -0.15
12 -0.15
13 -0.15
14 -0.15
15 -0.15
2 0.41
20 0.36
21 0.15
22 0.15
23 0.15
24 0.15
25 0.15
26 0.15
27 0.15
28 0.15
29 0.15
3 0.41
30 0.15
4 -0.14
5 -0.14
6 -0.15
7 -0.15
8 -0.15
9 -0.15

> <PUBCHEM_EFFECTIVE_ROTOR_COUNT>
4

> <PUBCHEM_PHARMACOPHORE_FEATURES>
4
1 1 cation
1 1 donor
6 4 6 8 10 12 14 rings
6 5 7 9 11 13 15 rings

> <PUBCHEM_HEAVY_ATOM_COUNT>
15

> <PUBCHEM_ATOM_DEF_STEREO_COUNT>
0

> <PUBCHEM_ATOM_UDEF_STEREO_COUNT>
0

> <PUBCHEM_BOND_DEF_STEREO_COUNT>
0

> <PUBCHEM_BOND_UDEF_STEREO_COUNT>
0

> <PUBCHEM_ISOTOPIC_ATOM_COUNT>
0

> <PUBCHEM_COMPONENT_COUNT>
1

> <PUBCHEM_CACTVS_TAUTO_COUNT>
1

> <PUBCHEM_CONFORMER_ID>
00001DE800000001

> <PUBCHEM_MMFF94_ENERGY>
35.4163

> <PUBCHEM_FEATURE_SELFOVERLAP>
20.297

> <PUBCHEM_SHAPE_FINGERPRINT>
10014705 185 15123504805310498161
10354089 29 18201719570276820864
10498660 4 13110964201849108907
11543360 7 9079108960170029957
12363563 72 15574716889031521436
12596602 18 18411419522483394784
12707595 3 14779551200963395756
12892183 10 18411419509593217429
13675066 3 18410856529585581301
14123260 362 14405188386911446927
1420 369 16805323301161949819
14252887 29 17603299350257958536
14341114 176 18411985745597663824
14576447 43 12324238339756383984
15188451 53 17968653925805313267
15239191 94 16081088173137102870
17870717 6 12035443918123269881
1798214 20 12612749120936731168
1813 80 16588031190404415446
18915474 69 12035457137705604592
19050596 39 18411418427293146420
193927 3 15791737377451543440
200 152 13262394462180026805
20281475 54 17531535372589401935
20300324 65 9871746893182562747
20432913 95 17458345234161250346
204376 136 16558751213216139063
20671657 53 14056723456517811623
20871999 31 8790882982507947469
21065199 12 18411138017436631044
212847 35 15051737473784140478
22646028 1 15864069875166219125
22646028 28 16008467637714595703
23402655 69 10087644818800838054
23403322 49 13695867039106689921
23503953 91 18410009948576598197
23557571 272 13038612020336271565
23559900 14 18127717970576361223
23596394 208 11097858514267594526
26918003 58 18335133176702609496
2838139 119 14043453554658087122
312423 11 15502668073927845998
314173 85 16877941628981816661
32948 21 7853586694302241719
351380 3 15936129655400555858
4028521 119 12679467465056623435
42 15 18260550008734693246
4259306 186 14129051508883176864
4990 188 9583520923519460748
5104073 3 18411138034621782283
5281201 14 9871748018168530402
5924683 9 18271239534464944831
90127 26 17846789493862266892
960060 61 11530482246210021650

> <PUBCHEM_SHAPE_MULTIPOLES>
303.71
11.92
1.4
1.16
0.04
0.03
-0.12
0.2
5.21
0
0.2
-0.01
-0.02
0.01

> <PUBCHEM_SHAPE_SELFOVERLAP>
639.89

> <PUBCHEM_SHAPE_VOLUME>
170.8

> <PUBCHEM_COORDINATE_TYPE>
2
5
10

$$$$
