15186554
  -OEChem-11012401273D

 55 54  0     0  0  0  0  0  0999 V2000
   -1.2861   -0.4814    0.0437 C   0  0  0  0  0  0  0  0  0  0  0  0
   -0.0095    0.3618    0.0345 C   0  0  0  0  0  0  0  0  0  0  0  0
   -2.5341    0.4036    0.0753 C   0  0  0  0  0  0  0  0  0  0  0  0
    1.2732   -0.4732   -0.0295 C   0  0  0  0  0  0  0  0  0  0  0  0
   -3.8120   -0.4366    0.0516 C   0  0  0  0  0  0  0  0  0  0  0  0
    2.5867    0.3116    0.0447 C   0  0  0  0  0  0  0  0  0  0  0  0
   -5.0598    0.4482    0.0486 C   0  0  0  0  0  0  0  0  0  0  0  0
    3.8310   -0.5801    0.0390 C   0  0  0  0  0  0  0  0  0  0  0  0
   -6.3377   -0.3920   -0.0084 C   0  0  0  0  0  0  0  0  0  0  0  0
    5.1114    0.2590    0.0234 C   0  0  0  0  0  0  0  0  0  0  0  0
   -7.5848    0.4942    0.0219 C   0  0  0  0  0  0  0  0  0  0  0  0
    6.3904   -0.5826   -0.0091 C   0  0  0  0  0  0  0  0  0  0  0  0
   -8.8956   -0.2974   -0.0016 C   0  0  0  0  0  0  0  0  0  0  0  0
    7.6714    0.2550    0.0009 C   0  0  0  0  0  0  0  0  0  0  0  0
  -10.1407    0.5892   -0.0451 C   0  0  0  0  0  0  0  0  0  0  0  0
    8.9152   -0.6351   -0.0203 C   0  0  0  0  0  0  0  0  0  0  0  0
  -11.4109   -0.2426   -0.1405 C   0  0  0  0  0  0  0  0  0  0  0  0
   10.1433    0.1714   -0.0516 C   0  0  0  0  0  0  0  0  0  0  0  0
   11.1487    0.8271   -0.0774 C   0  0  0  0  0  0  0  0  0  0  0  0
   -1.2816   -1.1461    0.9158 H   0  0  0  0  0  0  0  0  0  0  0  0
   -1.3081   -1.1182   -0.8488 H   0  0  0  0  0  0  0  0  0  0  0  0
   -0.0283    1.0468   -0.8221 H   0  0  0  0  0  0  0  0  0  0  0  0
    0.0162    0.9850    0.9370 H   0  0  0  0  0  0  0  0  0  0  0  0
   -2.5204    1.0284    0.9765 H   0  0  0  0  0  0  0  0  0  0  0  0
   -2.5250    1.0804   -0.7878 H   0  0  0  0  0  0  0  0  0  0  0  0
    1.2648   -1.0609   -0.9564 H   0  0  0  0  0  0  0  0  0  0  0  0
    1.2568   -1.1979    0.7947 H   0  0  0  0  0  0  0  0  0  0  0  0
   -3.8326   -1.1004    0.9245 H   0  0  0  0  0  0  0  0  0  0  0  0
   -3.8143   -1.0750   -0.8403 H   0  0  0  0  0  0  0  0  0  0  0  0
    2.5870    0.9247    0.9543 H   0  0  0  0  0  0  0  0  0  0  0  0
    2.6291    1.0052   -0.8042 H   0  0  0  0  0  0  0  0  0  0  0  0
   -5.0294    1.1262   -0.8130 H   0  0  0  0  0  0  0  0  0  0  0  0
   -5.0679    1.0717    0.9509 H   0  0  0  0  0  0  0  0  0  0  0  0
    3.8237   -1.2298    0.9222 H   0  0  0  0  0  0  0  0  0  0  0  0
    3.8114   -1.2314   -0.8430 H   0  0  0  0  0  0  0  0  0  0  0  0
   -6.3411   -1.0000   -0.9210 H   0  0  0  0  0  0  0  0  0  0  0  0
   -6.3619   -1.0840    0.8421 H   0  0  0  0  0  0  0  0  0  0  0  0
    5.1002    0.9224   -0.8504 H   0  0  0  0  0  0  0  0  0  0  0  0
    5.1297    0.9044    0.9104 H   0  0  0  0  0  0  0  0  0  0  0  0
   -7.5649    1.1215    0.9217 H   0  0  0  0  0  0  0  0  0  0  0  0
   -7.5615    1.1746   -0.8386 H   0  0  0  0  0  0  0  0  0  0  0  0
    6.3785   -1.2160   -0.9048 H   0  0  0  0  0  0  0  0  0  0  0  0
    6.3946   -1.2577    0.8557 H   0  0  0  0  0  0  0  0  0  0  0  0
   -8.9408   -0.9458    0.8823 H   0  0  0  0  0  0  0  0  0  0  0  0
   -8.8944   -0.9578   -0.8779 H   0  0  0  0  0  0  0  0  0  0  0  0
    7.6863    0.8945    0.8925 H   0  0  0  0  0  0  0  0  0  0  0  0
    7.6760    0.9248   -0.8685 H   0  0  0  0  0  0  0  0  0  0  0  0
  -10.1814    1.2153    0.8535 H   0  0  0  0  0  0  0  0  0  0  0  0
  -10.0874    1.2625   -0.9085 H   0  0  0  0  0  0  0  0  0  0  0  0
    8.8884   -1.2906   -0.8986 H   0  0  0  0  0  0  0  0  0  0  0  0
    8.9238   -1.2827    0.8642 H   0  0  0  0  0  0  0  0  0  0  0  0
  -11.4131   -0.8532   -1.0490 H   0  0  0  0  0  0  0  0  0  0  0  0
  -12.2894    0.4095   -0.1674 H   0  0  0  0  0  0  0  0  0  0  0  0
  -11.5087   -0.9091    0.7224 H   0  0  0  0  0  0  0  0  0  0  0  0
   12.0403    1.4089   -0.1003 H   0  0  0  0  0  0  0  0  0  0  0  0
  1  2  1  0  0  0  0
  1  3  1  0  0  0  0
  1 20  1  0  0  0  0
  1 21  1  0  0  0  0
  2  4  1  0  0  0  0
  2 22  1  0  0  0  0
  2 23  1  0  0  0  0
  3  5  1  0  0  0  0
  3 24  1  0  0  0  0
  3 25  1  0  0  0  0
  4  6  1  0  0  0  0
  4 26  1  0  0  0  0
  4 27  1  0  0  0  0
  5  7  1  0  0  0  0
  5 28  1  0  0  0  0
  5 29  1  0  0  0  0
  6  8  1  0  0  0  0
  6 30  1  0  0  0  0
  6 31  1  0  0  0  0
  7  9  1  0  0  0  0
  7 32  1  0  0  0  0
  7 33  1  0  0  0  0
  8 10  1  0  0  0  0
  8 34  1  0  0  0  0
  8 35  1  0  0  0  0
  9 11  1  0  0  0  0
  9 36  1  0  0  0  0
  9 37  1  0  0  0  0
 10 12  1  0  0  0  0
 10 38  1  0  0  0  0
 10 39  1  0  0  0  0
 11 13  1  0  0  0  0
 11 40  1  0  0  0  0
 11 41  1  0  0  0  0
 12 14  1  0  0  0  0
 12 42  1  0  0  0  0
 12 43  1  0  0  0  0
 13 15  1  0  0  0  0
 13 44  1  0  0  0  0
 13 45  1  0  0  0  0
 14 16  1  0  0  0  0
 14 46  1  0  0  0  0
 14 47  1  0  0  0  0
 15 17  1  0  0  0  0
 15 48  1  0  0  0  0
 15 49  1  0  0  0  0
 16 18  1  0  0  0  0
 16 50  1  0  0  0  0
 16 51  1  0  0  0  0
 17 52  1  0  0  0  0
 17 53  1  0  0  0  0
 17 54  1  0  0  0  0
 18 19  3  0  0  0  0
 19 55  1  0  0  0  0
M  END
> <PUBCHEM_COMPOUND_CID>
15186554

> <PUBCHEM_CONFORMER_RMSD>
1.4

> <PUBCHEM_CONFORMER_DIVERSEORDER>
1
20
37
15
26
23
46
63
2
44
10
11
49
16
67
40
34
53
19
58
5
60
39
52
12
55
50
71
69
32
73
31
68
18
22
6
14
75
24
9
36
57
62
64
27
70
76
35
48
28
54
25
38
17
8
29
72
41
30
51
45
13
47
3
59
42
66
7
74
4
21
61
33
65
43
56

> <PUBCHEM_MMFF94_PARTIAL_CHARGES>
4
16 0.2
18 -0.2
19 -0.18
55 0.18

> <PUBCHEM_EFFECTIVE_ROTOR_COUNT>
15

> <PUBCHEM_PHARMACOPHORE_FEATURES>
2
1 17 hydrophobe
1 19 hydrophobe

> <PUBCHEM_HEAVY_ATOM_COUNT>
19

> <PUBCHEM_ATOM_DEF_STEREO_COUNT>
0

> <PUBCHEM_ATOM_UDEF_STEREO_COUNT>
0

> <PUBCHEM_BOND_DEF_STEREO_COUNT>
0

> <PUBCHEM_BOND_UDEF_STEREO_COUNT>
0

> <PUBCHEM_ISOTOPIC_ATOM_COUNT>
0

> <PUBCHEM_COMPONENT_COUNT>
1

> <PUBCHEM_CACTVS_TAUTO_COUNT>
1

> <PUBCHEM_CONFORMER_ID>
00E7BA7A00000001

> <PUBCHEM_MMFF94_ENERGY>
-3.386

> <PUBCHEM_FEATURE_SELFOVERLAP>
10.149

> <PUBCHEM_SHAPE_FINGERPRINT>
14251764 46 18411418410113270611
14251920 1 18410856555350110026
14344974 52 18343299309738980521
15061470 23 17821726122671866877
15510794 2 18408608054124770323
155225 1 18410575084663085408
21362267 2 17968648436663835604
232437 2 18201719552537866903
23521765 1 18341895186056051298
23528940 14 18200314447228515111
23581129 1 18409448089539575814
33684 2 18410573985151457634
59520647 119 18201156637599332382
67123 10 18410856563934756871
8209 1 18410856559639796066
9663363 56 16370724833319344276

> <PUBCHEM_SHAPE_MULTIPOLES>
391.01
48.7
0.83
0.62
3.54
0.01
0
4.52
1.84
-0.32
0
0.01
0
-0.05

> <PUBCHEM_SHAPE_SELFOVERLAP>
704.503

> <PUBCHEM_SHAPE_VOLUME>
250.9

> <PUBCHEM_COORDINATE_TYPE>
2
5
10

$$$$
