141205
  -OEChem-11012400463D

 54 56  0     0  0  0  0  0  0999 V2000
   -2.4774   -3.8120    0.4905 O   0  0  0  0  0  0  0  0  0  0  0  0
   -1.6920   -0.7497    0.5208 C   0  0  0  0  0  0  0  0  0  0  0  0
   -3.0939   -0.2897    0.9312 C   0  0  0  0  0  0  0  0  0  0  0  0
   -1.0830   -1.9040    1.3534 C   0  0  0  0  0  0  0  0  0  0  0  0
   -1.6233   -1.7455   -0.6628 C   0  0  0  0  0  0  0  0  0  0  0  0
   -3.8461    0.3819   -0.2188 C   0  0  0  0  0  0  0  0  0  0  0  0
   -3.2126    1.6645   -0.7692 C   0  0  0  0  0  0  0  0  0  0  0  0
   -1.9197   -2.7310    0.4260 C   0  0  0  0  0  0  0  0  0  0  0  0
   -3.0499    2.7666    0.2804 C   0  0  0  0  0  0  0  0  0  0  0  0
   -2.3835    4.0071   -0.3200 C   0  0  0  0  0  0  0  0  0  0  0  0
    0.2437   -2.1625    1.4834 C   0  0  0  0  0  0  0  0  0  0  0  0
   -0.5479   -1.9302   -1.4711 C   0  0  0  0  0  0  0  0  0  0  0  0
   -0.9523    3.7568   -0.8056 C   0  0  0  0  0  0  0  0  0  0  0  0
    1.2236   -1.8902    0.3907 C   0  0  0  0  0  0  0  0  0  0  0  0
    0.8554   -1.7823   -0.9839 C   0  0  0  0  0  0  0  0  0  0  0  0
    0.0297    3.2339    0.2475 C   0  0  0  0  0  0  0  0  0  0  0  0
    1.4247    2.9440   -0.3099 C   0  0  0  0  0  0  0  0  0  0  0  0
    2.3859    2.5128    0.8000 C   0  0  0  0  0  0  0  0  0  0  0  0
    2.5759   -1.7860    0.7479 C   0  0  0  0  0  0  0  0  0  0  0  0
    1.8540   -1.5747   -1.9463 C   0  0  0  0  0  0  0  0  0  0  0  0
    3.7898    2.2585    0.2515 C   0  0  0  0  0  0  0  0  0  0  0  0
    3.5514   -1.5672   -0.2254 C   0  0  0  0  0  0  0  0  0  0  0  0
    3.1920   -1.4621   -1.5668 C   0  0  0  0  0  0  0  0  0  0  0  0
    4.7557    1.8609    1.3563 C   0  0  0  0  0  0  0  0  0  0  0  0
   -1.0396    0.1280    0.4189 H   0  0  0  0  0  0  0  0  0  0  0  0
   -3.7091   -1.1318    1.2759 H   0  0  0  0  0  0  0  0  0  0  0  0
   -3.0221    0.3832    1.7931 H   0  0  0  0  0  0  0  0  0  0  0  0
   -4.8587    0.6207    0.1306 H   0  0  0  0  0  0  0  0  0  0  0  0
   -3.9721   -0.3263   -1.0466 H   0  0  0  0  0  0  0  0  0  0  0  0
   -3.8407    2.0377   -1.5877 H   0  0  0  0  0  0  0  0  0  0  0  0
   -2.2479    1.4037   -1.2145 H   0  0  0  0  0  0  0  0  0  0  0  0
   -4.0412    3.0493    0.6556 H   0  0  0  0  0  0  0  0  0  0  0  0
   -2.4810    2.4194    1.1466 H   0  0  0  0  0  0  0  0  0  0  0  0
   -2.3669    4.7973    0.4405 H   0  0  0  0  0  0  0  0  0  0  0  0
   -2.9860    4.3859   -1.1542 H   0  0  0  0  0  0  0  0  0  0  0  0
    0.5407   -2.9460    2.1764 H   0  0  0  0  0  0  0  0  0  0  0  0
   -0.6659   -2.5904   -2.3269 H   0  0  0  0  0  0  0  0  0  0  0  0
   -0.5629    4.7073   -1.1935 H   0  0  0  0  0  0  0  0  0  0  0  0
   -0.9616    3.0770   -1.6650 H   0  0  0  0  0  0  0  0  0  0  0  0
    0.1036    3.9725    1.0554 H   0  0  0  0  0  0  0  0  0  0  0  0
   -0.3515    2.3130    0.6973 H   0  0  0  0  0  0  0  0  0  0  0  0
    1.8138    3.8426   -0.8038 H   0  0  0  0  0  0  0  0  0  0  0  0
    1.3597    2.1573   -1.0713 H   0  0  0  0  0  0  0  0  0  0  0  0
    2.0074    1.6028    1.2813 H   0  0  0  0  0  0  0  0  0  0  0  0
    2.4299    3.2919    1.5709 H   0  0  0  0  0  0  0  0  0  0  0  0
    2.8835   -1.8713    1.7879 H   0  0  0  0  0  0  0  0  0  0  0  0
    1.6003   -1.4968   -3.0014 H   0  0  0  0  0  0  0  0  0  0  0  0
    3.7582    1.4705   -0.5080 H   0  0  0  0  0  0  0  0  0  0  0  0
    4.1651    3.1634   -0.2406 H   0  0  0  0  0  0  0  0  0  0  0  0
    4.5949   -1.4820    0.0642 H   0  0  0  0  0  0  0  0  0  0  0  0
    3.9561   -1.2957   -2.3207 H   0  0  0  0  0  0  0  0  0  0  0  0
    4.4222    0.9484    1.8604 H   0  0  0  0  0  0  0  0  0  0  0  0
    5.7510    1.6753    0.9407 H   0  0  0  0  0  0  0  0  0  0  0  0
    4.8428    2.6545    2.1053 H   0  0  0  0  0  0  0  0  0  0  0  0
  1  8  2  0  0  0  0
  2  3  1  0  0  0  0
  2  4  1  0  0  0  0
  2  5  1  0  0  0  0
  2 25  1  0  0  0  0
  3  6  1  0  0  0  0
  3 26  1  0  0  0  0
  3 27  1  0  0  0  0
  4  8  1  0  0  0  0
  4 11  2  0  0  0  0
  5  8  1  0  0  0  0
  5 12  2  0  0  0  0
  6  7  1  0  0  0  0
  6 28  1  0  0  0  0
  6 29  1  0  0  0  0
  7  9  1  0  0  0  0
  7 30  1  0  0  0  0
  7 31  1  0  0  0  0
  9 10  1  0  0  0  0
  9 32  1  0  0  0  0
  9 33  1  0  0  0  0
 10 13  1  0  0  0  0
 10 34  1  0  0  0  0
 10 35  1  0  0  0  0
 11 14  1  0  0  0  0
 11 36  1  0  0  0  0
 12 15  1  0  0  0  0
 12 37  1  0  0  0  0
 13 16  1  0  0  0  0
 13 38  1  0  0  0  0
 13 39  1  0  0  0  0
 14 15  1  0  0  0  0
 14 19  2  0  0  0  0
 15 20  2  0  0  0  0
 16 17  1  0  0  0  0
 16 40  1  0  0  0  0
 16 41  1  0  0  0  0
 17 18  1  0  0  0  0
 17 42  1  0  0  0  0
 17 43  1  0  0  0  0
 18 21  1  0  0  0  0
 18 44  1  0  0  0  0
 18 45  1  0  0  0  0
 19 22  1  0  0  0  0
 19 46  1  0  0  0  0
 20 23  1  0  0  0  0
 20 47  1  0  0  0  0
 21 24  1  0  0  0  0
 21 48  1  0  0  0  0
 21 49  1  0  0  0  0
 22 23  2  0  0  0  0
 22 50  1  0  0  0  0
 23 51  1  0  0  0  0
 24 52  1  0  0  0  0
 24 53  1  0  0  0  0
 24 54  1  0  0  0  0
M  END
> <PUBCHEM_COMPOUND_CID>
141205

> <PUBCHEM_CONFORMER_RMSD>
1.2

> <PUBCHEM_CONFORMER_DIVERSEORDER>
3
136
96
97
98
125
19
115
107
47
9
129
71
11
58
6
80
116
127
1
72
134
140
145
60
30
105
133
103
14
48
93
92
142
94
35
132
141
44
65
135
32
81
84
5
128
67
52
33
43
74
95
100
122
15
64
8
79
7
62
20
144
29
42
113
4
77
66
143
108
139
138
89
61
17
110
31
102
51
22
83
63
36
146
2
112
82
119
111
28
121
69
124
91
26
21
101
126
106
53
117
87
54
41
120
12
18
78
76
137
24
88
130
16
46
56
85
131
75
57
118
25
38
13
10
37
70
123
59
73
23
27
90
86
114
109
104
45
68
99
50
55
39
34
49
40

> <PUBCHEM_MMFF94_PARTIAL_CHARGES>
19
1 -0.57
11 -0.15
12 -0.15
14 0.03
15 0.03
19 -0.15
2 0.28
20 -0.15
22 -0.15
23 -0.15
36 0.15
37 0.15
4 -0.24
46 0.15
47 0.15
5 -0.24
50 0.15
51 0.15
8 0.71

> <PUBCHEM_EFFECTIVE_ROTOR_COUNT>
10.2

> <PUBCHEM_PHARMACOPHORE_FEATURES>
5
1 1 acceptor
1 24 hydrophobe
4 2 4 5 8 rings
6 14 15 19 20 22 23 rings
8 2 4 5 8 11 12 14 15 rings

> <PUBCHEM_HEAVY_ATOM_COUNT>
24

> <PUBCHEM_ATOM_DEF_STEREO_COUNT>
0

> <PUBCHEM_ATOM_UDEF_STEREO_COUNT>
0

> <PUBCHEM_BOND_DEF_STEREO_COUNT>
0

> <PUBCHEM_BOND_UDEF_STEREO_COUNT>
0

> <PUBCHEM_ISOTOPIC_ATOM_COUNT>
0

> <PUBCHEM_COMPONENT_COUNT>
1

> <PUBCHEM_CACTVS_TAUTO_COUNT>
1

> <PUBCHEM_CONFORMER_ID>
0002279500000003

> <PUBCHEM_MMFF94_ENERGY>
113.8319

> <PUBCHEM_FEATURE_SELFOVERLAP>
28.732

> <PUBCHEM_SHAPE_FINGERPRINT>
10498660 4 17690844463052828749
10675989 125 15236086700177639156
11221954 11 18412541007422436148
11578080 2 17315323008062696063
11725454 13 17412704407714075482
12539773 59 16042558305050602729
13122387 1 17690281508435441212
13402501 40 18412544276003785916
14114211 68 17038706498425691133
14647877 51 18270115700553162600
14725015 67 18193550060995482025
19930381 70 16895672658344475795
20764821 26 18336264539903272380
20905425 154 18340496667527074300
21141583 151 17693666913495635716
23227448 37 18339358664550305347
238918 7 18272079548532053640
469060 322 17831052064361088881
9862522 239 18128520747493680688

> <PUBCHEM_SHAPE_MULTIPOLES>
488.04
6.76
5.88
1.47
2.02
3.67
-0.25
3.64
0.37
-1.32
0.46
0.8
-0.68
1.85

> <PUBCHEM_SHAPE_SELFOVERLAP>
1011.143

> <PUBCHEM_SHAPE_VOLUME>
276.3

> <PUBCHEM_COORDINATE_TYPE>
2
5
10

$$$$
