2723734
  -OEChem-10312420442D

 26 24  0     0  0  0  0  0  0999 V2000
    6.2089    4.3100    0.0000 S   0  0  0  0  0  0  0  0  0  0  0  0
    6.2089    5.3100    0.0000 O   0  0  0  0  0  0  0  0  0  0  0  0
    6.2089    0.3100    0.0000 O   0  0  0  0  0  0  0  0  0  0  0  0
    7.2089    4.3100    0.0000 O   0  0  0  0  0  0  0  0  0  0  0  0
    5.2089    4.3100    0.0000 O   0  0  0  0  0  0  0  0  0  0  0  0
    3.6108    1.8100    0.0000 O   0  0  0  0  0  0  0  0  0  0  0  0
    4.4768    0.3100    0.0000 O   0  0  0  0  0  0  0  0  0  0  0  0
    0.5369    3.8100    0.0000 O   0  0  0  0  0  0  0  0  0  0  0  0
    5.3429    7.6200    0.0000 O   0  0  0  0  0  0  0  0  0  0  0  0
    6.2089    3.3100    0.0000 C   0  0  0  0  0  0  0  0  0  0  0  0
    5.3429    2.8100    0.0000 C   0  0  0  0  0  0  0  0  0  0  0  0
    5.3429    1.8100    0.0000 C   0  0  0  0  0  0  0  0  0  0  0  0
    7.0749    2.8100    0.0000 C   0  0  0  0  0  0  0  0  0  0  0  0
    6.2089    1.3100    0.0000 C   0  0  0  0  0  0  0  0  0  0  0  0
    7.0749    1.8100    0.0000 C   0  0  0  0  0  0  0  0  0  0  0  0
    4.4768    1.3100    0.0000 C   0  0  0  0  0  0  0  0  0  0  0  0
    4.8059    3.1200    0.0000 H   0  0  0  0  0  0  0  0  0  0  0  0
    7.6118    3.1200    0.0000 H   0  0  0  0  0  0  0  0  0  0  0  0
    7.6118    1.5000    0.0000 H   0  0  0  0  0  0  0  0  0  0  0  0
    6.7458    5.6200    0.0000 H   0  0  0  0  0  0  0  0  0  0  0  0
    6.7458    0.0000    0.0000 H   0  0  0  0  0  0  0  0  0  0  0  0
    3.0739    1.5000    0.0000 H   0  0  0  0  0  0  0  0  0  0  0  0
    1.0739    4.1200    0.0000 H   0  0  0  0  0  0  0  0  0  0  0  0
    0.0000    4.1200    0.0000 H   0  0  0  0  0  0  0  0  0  0  0  0
    5.8798    7.9300    0.0000 H   0  0  0  0  0  0  0  0  0  0  0  0
    4.8059    7.9300    0.0000 H   0  0  0  0  0  0  0  0  0  0  0  0
  1  2  1  0  0  0  0
  1  4  2  0  0  0  0
  1  5  2  0  0  0  0
  1 10  1  0  0  0  0
  2 20  1  0  0  0  0
  3 14  1  0  0  0  0
  3 21  1  0  0  0  0
  6 16  1  0  0  0  0
  6 22  1  0  0  0  0
  7 16  2  0  0  0  0
  8 23  1  0  0  0  0
  8 24  1  0  0  0  0
  9 25  1  0  0  0  0
  9 26  1  0  0  0  0
 10 11  2  0  0  0  0
 10 13  1  0  0  0  0
 11 12  1  0  0  0  0
 11 17  1  0  0  0  0
 12 14  2  0  0  0  0
 12 16  1  0  0  0  0
 13 15  2  0  0  0  0
 13 18  1  0  0  0  0
 14 15  1  0  0  0  0
 15 19  1  0  0  0  0
M  END
> <PUBCHEM_COMPOUND_CID>
2723734

> <PUBCHEM_COMPOUND_CANONICALIZED>
1

> <PUBCHEM_CACTVS_COMPLEXITY>
316

> <PUBCHEM_CACTVS_HBOND_ACCEPTOR>
8

> <PUBCHEM_CACTVS_HBOND_DONOR>
5

> <PUBCHEM_CACTVS_ROTATABLE_BOND>
2

> <PUBCHEM_CACTVS_SUBSKEYS>
AAADccBgPABAAAAAAAAAAAAAAAAAAAAAAAAwAAAAAAAAAAABAAAAGgQACAAADASA2AAwD4AAAoKIAiDSCHBCAEAkIAAIiBkGCMgIJzaCFRKAcUAl4BEImYeIyCCOAIAAgAAIAAABAAEAABAAAAAAAAAAAA==

> <PUBCHEM_IUPAC_OPENEYE_NAME>
2-hydroxy-5-sulfo-benzoic acid;dihydrate

> <PUBCHEM_IUPAC_CAS_NAME>
2-hydroxy-5-sulfobenzoic acid;dihydrate

> <PUBCHEM_IUPAC_NAME_MARKUP>
2-hydroxy-5-sulfobenzoic acid;dihydrate

> <PUBCHEM_IUPAC_NAME>
2-hydroxy-5-sulfobenzoic acid;dihydrate

> <PUBCHEM_IUPAC_SYSTEMATIC_NAME>
2-oxidanyl-5-sulfo-benzoic acid;dihydrate

> <PUBCHEM_IUPAC_TRADITIONAL_NAME>
2-hydroxy-5-sulfo-benzoic acid;dihydrate

> <PUBCHEM_IUPAC_INCHI>
InChI=1S/C7H6O6S.2H2O/c8-6-2-1-4(14(11,12)13)3-5(6)7(9)10;;/h1-3,8H,(H,9,10)(H,11,12,13);2*1H2

> <PUBCHEM_IUPAC_INCHIKEY>
BHDKTFQBRFWJKR-UHFFFAOYSA-N

> <PUBCHEM_EXACT_MASS>
254.00963845

> <PUBCHEM_MOLECULAR_FORMULA>
C7H10O8S

> <PUBCHEM_MOLECULAR_WEIGHT>
254.22

> <PUBCHEM_OPENEYE_CAN_SMILES>
C1=CC(=C(C=C1S(=O)(=O)O)C(=O)O)O.O.O

> <PUBCHEM_OPENEYE_ISO_SMILES>
C1=CC(=C(C=C1S(=O)(=O)O)C(=O)O)O.O.O

> <PUBCHEM_CACTVS_TPSA>
122

> <PUBCHEM_MONOISOTOPIC_WEIGHT>
254.00963845

> <PUBCHEM_TOTAL_CHARGE>
0

> <PUBCHEM_HEAVY_ATOM_COUNT>
16

> <PUBCHEM_ATOM_DEF_STEREO_COUNT>
0

> <PUBCHEM_ATOM_UDEF_STEREO_COUNT>
0

> <PUBCHEM_BOND_DEF_STEREO_COUNT>
0

> <PUBCHEM_BOND_UDEF_STEREO_COUNT>
0

> <PUBCHEM_ISOTOPIC_ATOM_COUNT>
0

> <PUBCHEM_COMPONENT_COUNT>
3

> <PUBCHEM_CACTVS_TAUTO_COUNT>
-1

> <PUBCHEM_COORDINATE_TYPE>
1
5
255

> <PUBCHEM_BONDANNOTATIONS>
10  11  8
10  13  8
11  12  8
12  14  8
13  15  8
14  15  8

$$$$
