69319
  -OEChem-11012400423D

 14 14  0     0  0  0  0  0  0999 V2000
    1.5033   -0.0001   -0.8850 N   0  0  0  0  0  0  0  0  0  0  0  0
    2.3238    0.0000    0.0588 N   0  3  0  0  0  0  0  0  0  0  0  0
    3.0775    0.0002    0.9158 N   0  5  0  0  0  0  0  0  0  0  0  0
    0.1747    0.0000   -0.4494 C   0  0  0  0  0  0  0  0  0  0  0  0
   -0.4881    1.2079   -0.2323 C   0  0  0  0  0  0  0  0  0  0  0  0
   -0.4880   -1.2080   -0.2321 C   0  0  0  0  0  0  0  0  0  0  0  0
   -1.8135    1.2080    0.2023 C   0  0  0  0  0  0  0  0  0  0  0  0
   -1.8135   -1.2080    0.2024 C   0  0  0  0  0  0  0  0  0  0  0  0
   -2.4762    0.0000    0.4195 C   0  0  0  0  0  0  0  0  0  0  0  0
    0.0190    2.1546   -0.3996 H   0  0  0  0  0  0  0  0  0  0  0  0
    0.0191   -2.1547   -0.3992 H   0  0  0  0  0  0  0  0  0  0  0  0
   -2.3297    2.1485    0.3712 H   0  0  0  0  0  0  0  0  0  0  0  0
   -2.3296   -2.1485    0.3714 H   0  0  0  0  0  0  0  0  0  0  0  0
   -3.5083    0.0000    0.7577 H   0  0  0  0  0  0  0  0  0  0  0  0
  1  2  2  0  0  0  0
  1  4  1  0  0  0  0
  2  3  2  0  0  0  0
  4  5  2  0  0  0  0
  4  6  1  0  0  0  0
  5  7  1  0  0  0  0
  5 10  1  0  0  0  0
  6  8  2  0  0  0  0
  6 11  1  0  0  0  0
  7  9  2  0  0  0  0
  7 12  1  0  0  0  0
  8  9  1  0  0  0  0
  8 13  1  0  0  0  0
  9 14  1  0  0  0  0
M  CHG  2   2   1   3  -1
M  END
> <PUBCHEM_COMPOUND_CID>
69319

> <PUBCHEM_CONFORMER_RMSD>
0.4

> <PUBCHEM_CONFORMER_DIVERSEORDER>
1
2
3

> <PUBCHEM_MMFF94_PARTIAL_CHARGES>
14
1 -0.5
10 0.15
11 0.15
12 0.15
13 0.15
14 0.15
2 0.69
3 -0.37
4 0.18
5 -0.15
6 -0.15
7 -0.15
8 -0.15
9 -0.15

> <PUBCHEM_EFFECTIVE_ROTOR_COUNT>
1

> <PUBCHEM_PHARMACOPHORE_FEATURES>
1
6 4 5 6 7 8 9 rings

> <PUBCHEM_HEAVY_ATOM_COUNT>
9

> <PUBCHEM_ATOM_DEF_STEREO_COUNT>
0

> <PUBCHEM_ATOM_UDEF_STEREO_COUNT>
0

> <PUBCHEM_BOND_DEF_STEREO_COUNT>
0

> <PUBCHEM_BOND_UDEF_STEREO_COUNT>
0

> <PUBCHEM_ISOTOPIC_ATOM_COUNT>
0

> <PUBCHEM_COMPONENT_COUNT>
1

> <PUBCHEM_CACTVS_TAUTO_COUNT>
1

> <PUBCHEM_CONFORMER_ID>
00010EC700000001

> <PUBCHEM_MMFF94_ENERGY>
19.5077

> <PUBCHEM_FEATURE_SELFOVERLAP>
5.074

> <PUBCHEM_SHAPE_FINGERPRINT>
10857977 72 18342458179059339993
15310529 11 16515978058985044789
16945 1 18338529589927806079
20645464 45 17917993862851111678
20653085 51 14620251692867626049
20871998 184 18201162173194244319
21040471 1 18194137226058505077
23552423 10 17682691962015503373
2748010 2 18049177570361183767
29004967 10 16773807982163391007
369184 2 18411694387505429722
5084963 1 18198644162579968023

> <PUBCHEM_SHAPE_MULTIPOLES>
170.27
3.71
1.29
0.8
2.46
0
-0.02
0
-1.12
-0.74
0.02
0.28
0
0

> <PUBCHEM_SHAPE_SELFOVERLAP>
353.058

> <PUBCHEM_SHAPE_VOLUME>
96.9

> <PUBCHEM_COORDINATE_TYPE>
2
5
10

$$$$
