143464
  -OEChem-11012400523D

 23 22  0     0  0  0  0  0  0999 V2000
   -2.6841   -1.3218    1.3508 Cl  0  0  0  0  0  0  0  0  0  0  0  0
   -3.9174    0.9989    0.1173 Cl  0  0  0  0  0  0  0  0  0  0  0  0
   -2.7092   -1.0366   -1.5630 Cl  0  0  0  0  0  0  0  0  0  0  0  0
   -0.2189   -0.3522   -0.0443 O   0  0  0  0  0  0  0  0  0  0  0  0
   -1.1258    1.7481    0.1670 O   0  0  0  0  0  0  0  0  0  0  0  0
    3.5668   -0.4385   -0.0583 C   0  0  0  0  0  0  0  0  0  0  0  0
    2.1071   -0.9171   -0.1156 C   0  0  0  0  0  0  0  0  0  0  0  0
    1.0871    0.2090    0.0013 C   0  0  0  0  0  0  0  0  0  0  0  0
    3.8295    0.5645   -1.1842 C   0  0  0  0  0  0  0  0  0  0  0  0
    3.9204    0.1930    1.2888 C   0  0  0  0  0  0  0  0  0  0  0  0
   -1.2621    0.5359    0.0497 C   0  0  0  0  0  0  0  0  0  0  0  0
   -2.5935   -0.1832   -0.0094 C   0  0  0  0  0  0  0  0  0  0  0  0
    4.2130   -1.3119   -0.2104 H   0  0  0  0  0  0  0  0  0  0  0  0
    1.9275   -1.6512    0.6805 H   0  0  0  0  0  0  0  0  0  0  0  0
    1.9324   -1.4605   -1.0535 H   0  0  0  0  0  0  0  0  0  0  0  0
    1.2061    0.7434    0.9494 H   0  0  0  0  0  0  0  0  0  0  0  0
    1.1869    0.9152   -0.8291 H   0  0  0  0  0  0  0  0  0  0  0  0
    4.9030    0.7727   -1.2573 H   0  0  0  0  0  0  0  0  0  0  0  0
    3.3283    1.5230   -1.0169 H   0  0  0  0  0  0  0  0  0  0  0  0
    3.5059    0.1662   -2.1516 H   0  0  0  0  0  0  0  0  0  0  0  0
    3.3853    1.1322    1.4602 H   0  0  0  0  0  0  0  0  0  0  0  0
    4.9925    0.4137    1.3354 H   0  0  0  0  0  0  0  0  0  0  0  0
    3.6855   -0.4904    2.1114 H   0  0  0  0  0  0  0  0  0  0  0  0
  1 12  1  0  0  0  0
  2 12  1  0  0  0  0
  3 12  1  0  0  0  0
  4  8  1  0  0  0  0
  4 11  1  0  0  0  0
  5 11  2  0  0  0  0
  6  7  1  0  0  0  0
  6  9  1  0  0  0  0
  6 10  1  0  0  0  0
  6 13  1  0  0  0  0
  7  8  1  0  0  0  0
  7 14  1  0  0  0  0
  7 15  1  0  0  0  0
  8 16  1  0  0  0  0
  8 17  1  0  0  0  0
  9 18  1  0  0  0  0
  9 19  1  0  0  0  0
  9 20  1  0  0  0  0
 10 21  1  0  0  0  0
 10 22  1  0  0  0  0
 10 23  1  0  0  0  0
 11 12  1  0  0  0  0
M  END
> <PUBCHEM_COMPOUND_CID>
143464

> <PUBCHEM_CONFORMER_RMSD>
0.6

> <PUBCHEM_CONFORMER_DIVERSEORDER>
1
23
25
10
9
24
27
32
6
7
11
35
17
8
14
34
16
19
29
2
13
15
22
21
28
3
20
26
4
30
18
5
31
33
12

> <PUBCHEM_MMFF94_PARTIAL_CHARGES>
8
1 -0.29
11 0.66
12 0.93
2 -0.29
3 -0.29
4 -0.43
5 -0.57
8 0.28

> <PUBCHEM_EFFECTIVE_ROTOR_COUNT>
5

> <PUBCHEM_PHARMACOPHORE_FEATURES>
2
1 5 acceptor
3 6 9 10 hydrophobe

> <PUBCHEM_HEAVY_ATOM_COUNT>
12

> <PUBCHEM_ATOM_DEF_STEREO_COUNT>
0

> <PUBCHEM_ATOM_UDEF_STEREO_COUNT>
0

> <PUBCHEM_BOND_DEF_STEREO_COUNT>
0

> <PUBCHEM_BOND_UDEF_STEREO_COUNT>
0

> <PUBCHEM_ISOTOPIC_ATOM_COUNT>
0

> <PUBCHEM_COMPONENT_COUNT>
1

> <PUBCHEM_CACTVS_TAUTO_COUNT>
1

> <PUBCHEM_CONFORMER_ID>
0002306800000001

> <PUBCHEM_MMFF94_ENERGY>
15.8817

> <PUBCHEM_FEATURE_SELFOVERLAP>
10.148

> <PUBCHEM_SHAPE_FINGERPRINT>
10680689 15 18060424624614006110
11062470 55 18260268525241926981
11132069 177 17846493751167677222
12932764 1 17917713483186117430
13024252 1 11314031271133781231
13214271 11 18410298021039897839
14577589 140 18202004322229156391
15775835 57 17989485199515674223
17834074 16 15913332403043632470
18186145 218 17167864162456213342
190213 19 18334576837025564598
19050596 39 18261109664838556304
20279233 1 17632574929278404638
20281407 28 18060139842554662530
20528008 55 17346591963409850987
20645477 70 17845374349594314054
22169311 21 16950555606221449018
22485316 2 17774997986028245078
22959321 105 17313386772238334646
23380061 127 12757150182130741423
23402539 116 18409160013699356206
23559900 14 18334298617935050026
3248919 1 18186801361882418210

> <PUBCHEM_SHAPE_MULTIPOLES>
240.83
8.32
1.31
1.27
4.58
0.02
-0.29
0.32
0.22
-0.88
0.23
-0.17
-0.23
-0.33

> <PUBCHEM_SHAPE_SELFOVERLAP>
428.88

> <PUBCHEM_SHAPE_VOLUME>
157.5

> <PUBCHEM_COORDINATE_TYPE>
2
5
10

$$$$
