7117
  -OEChem-11012400363D

 23 24  0     0  0  0  0  0  0999 V2000
   -3.2783   -0.2049    0.0789 S   0  0  0  0  0  0  0  0  0  0  0  0
   -3.7205   -0.3140   -1.4912 O   0  0  0  0  0  0  0  0  0  0  0  0
    4.8167    0.2869   -0.0442 O   0  0  0  0  0  0  0  0  0  0  0  0
   -3.4425   -1.5295    0.6593 O   0  0  0  0  0  0  0  0  0  0  0  0
   -3.9503    0.9477    0.6584 O   0  0  0  0  0  0  0  0  0  0  0  0
    0.7413   -0.5924    0.0249 C   0  0  0  0  0  0  0  0  0  0  0  0
    1.1738    0.7549    0.0030 C   0  0  0  0  0  0  0  0  0  0  0  0
   -1.5714    0.1630    0.0497 C   0  0  0  0  0  0  0  0  0  0  0  0
   -0.6350   -0.8714    0.0480 C   0  0  0  0  0  0  0  0  0  0  0  0
    0.2175    1.7835    0.0045 C   0  0  0  0  0  0  0  0  0  0  0  0
   -1.1459    1.4880    0.0278 C   0  0  0  0  0  0  0  0  0  0  0  0
    1.6976   -1.6208    0.0229 C   0  0  0  0  0  0  0  0  0  0  0  0
    2.5499    1.0342   -0.0204 C   0  0  0  0  0  0  0  0  0  0  0  0
    3.4863   -0.0001   -0.0216 C   0  0  0  0  0  0  0  0  0  0  0  0
    3.0609   -1.3251   -0.0001 C   0  0  0  0  0  0  0  0  0  0  0  0
   -0.9671   -1.9077    0.0571 H   0  0  0  0  0  0  0  0  0  0  0  0
    0.5274    2.8263   -0.0141 H   0  0  0  0  0  0  0  0  0  0  0  0
   -1.8564    2.3098    0.0204 H   0  0  0  0  0  0  0  0  0  0  0  0
    1.3881   -2.6637    0.0395 H   0  0  0  0  0  0  0  0  0  0  0  0
    2.8990    2.0651   -0.0375 H   0  0  0  0  0  0  0  0  0  0  0  0
    3.7804   -2.1396   -0.0010 H   0  0  0  0  0  0  0  0  0  0  0  0
   -3.2741   -1.0257   -2.0076 H   0  0  0  0  0  0  0  0  0  0  0  0
    5.3191   -0.5459   -0.0416 H   0  0  0  0  0  0  0  0  0  0  0  0
  1  2  1  0  0  0  0
  1  4  2  0  0  0  0
  1  5  2  0  0  0  0
  1  8  1  0  0  0  0
  2 22  1  0  0  0  0
  3 14  1  0  0  0  0
  3 23  1  0  0  0  0
  6  7  2  0  0  0  0
  6  9  1  0  0  0  0
  6 12  1  0  0  0  0
  7 10  1  0  0  0  0
  7 13  1  0  0  0  0
  8  9  2  0  0  0  0
  8 11  1  0  0  0  0
  9 16  1  0  0  0  0
 10 11  2  0  0  0  0
 10 17  1  0  0  0  0
 11 18  1  0  0  0  0
 12 15  2  0  0  0  0
 12 19  1  0  0  0  0
 13 14  2  0  0  0  0
 13 20  1  0  0  0  0
 14 15  1  0  0  0  0
 15 21  1  0  0  0  0
M  END
> <PUBCHEM_COMPOUND_CID>
7117

> <PUBCHEM_CONFORMER_RMSD>
0.4

> <PUBCHEM_CONFORMER_DIVERSEORDER>
1
2

> <PUBCHEM_MMFF94_PARTIAL_CHARGES>
21
1 1.49
10 -0.15
11 -0.15
12 -0.15
13 -0.15
14 0.08
15 -0.15
16 0.15
17 0.15
18 0.15
19 0.15
2 -0.68
20 0.15
21 0.15
22 0.5
23 0.45
3 -0.53
4 -0.65
5 -0.65
8 -0.01
9 -0.15

> <PUBCHEM_EFFECTIVE_ROTOR_COUNT>
1

> <PUBCHEM_PHARMACOPHORE_FEATURES>
7
1 2 acceptor
1 3 donor
1 4 acceptor
1 5 acceptor
4 1 2 4 5 anion
6 6 7 12 13 14 15 rings
6 6 7 8 9 10 11 rings

> <PUBCHEM_HEAVY_ATOM_COUNT>
15

> <PUBCHEM_ATOM_DEF_STEREO_COUNT>
0

> <PUBCHEM_ATOM_UDEF_STEREO_COUNT>
0

> <PUBCHEM_BOND_DEF_STEREO_COUNT>
0

> <PUBCHEM_BOND_UDEF_STEREO_COUNT>
0

> <PUBCHEM_ISOTOPIC_ATOM_COUNT>
0

> <PUBCHEM_COMPONENT_COUNT>
1

> <PUBCHEM_CACTVS_TAUTO_COUNT>
3

> <PUBCHEM_CONFORMER_ID>
00001BCD00000001

> <PUBCHEM_MMFF94_ENERGY>
32.1967

> <PUBCHEM_FEATURE_SELFOVERLAP>
35.604

> <PUBCHEM_SHAPE_FINGERPRINT>
10967382 1 18410294705188118738
11132069 177 18411135831366855856
11401426 45 18413101766726317133
11471102 20 18409726253307504460
11806522 49 18411417349235327495
12032990 46 18410299115982284226
13214271 11 18412826889109393663
13221675 6 18412262839549457462
13296908 3 18335143106962500995
13380535 76 18408887347658728898
13760787 5 18335138674371407884
14144814 61 18411983550542295515
14251717 144 18412539929153601422
14252887 29 17988656189586995534
14289901 80 16271930406365057907
14576447 43 18200859790448573327
14993402 34 18130781278580090487
15196674 1 18410577270980936618
15536298 74 18271810077719545982
16945 1 18410009953045768712
17844478 74 18040156193076741125
18186145 218 17967253074486296435
19026448 4 16008749099922487944
19107657 46 18410014351045027935
200 152 18202275909974743877
20201158 50 18334858311633140179
20281475 54 18408605855127277843
20645477 70 18339355258551737967
21267235 1 18339371837003986003
21501502 16 18194964045965156952
21501925 9 18335972070300446410
221490 88 18046912846748740395
23402539 116 18272364270013033436
23402655 69 18341326691500570997
23463225 33 18409451371063472980
23559900 14 18334294228557646914
2748010 2 18194960747446123948
2871803 45 18335417933319222950
3312278 4 18409732850435319465
34934 24 18409725123868249107
5104073 3 18411982434051291922
528886 8 18411415133459496786
53655031 270 18412267216073743848
57096353 35 18411140242567417940
581208 293 18413102879460365984
8809292 202 18114187496449417051

> <PUBCHEM_SHAPE_MULTIPOLES>
289.07
7.42
1.67
0.76
0.42
0.06
0.14
-0.84
0.15
-0.1
-0.11
0.58
-0.05
-0.05

> <PUBCHEM_SHAPE_SELFOVERLAP>
620.18

> <PUBCHEM_SHAPE_VOLUME>
160.2

> <PUBCHEM_COORDINATE_TYPE>
2
5
10

$$$$
