79150
  -OEChem-11012401283D

 23 25  0     1  0  0  0  0  0999 V2000
    1.1769    2.6805    0.0399 O   0  0  0  0  0  0  0  0  0  0  0  0
    1.1769   -2.6804    0.0402 O   0  0  0  0  0  0  0  0  0  0  0  0
   -1.3283    1.1174    0.3106 C   0  0  2  0  0  0  0  0  0  0  0  0
   -1.3284   -1.1174    0.3103 C   0  0  1  0  0  0  0  0  0  0  0  0
   -0.1264    0.7775   -0.6127 C   0  0  2  0  0  0  0  0  0  0  0  0
   -0.1264   -0.7775   -0.6130 C   0  0  1  0  0  0  0  0  0  0  0  0
   -1.2396   -0.0002    1.3549 C   0  0  0  0  0  0  0  0  0  0  0  0
   -2.5891    0.6707   -0.3936 C   0  0  0  0  0  0  0  0  0  0  0  0
   -2.5891   -0.6705   -0.3940 C   0  0  0  0  0  0  0  0  0  0  0  0
    1.1344    1.4614   -0.1296 C   0  0  0  0  0  0  0  0  0  0  0  0
    1.1344   -1.4614   -0.1297 C   0  0  0  0  0  0  0  0  0  0  0  0
    2.3524    0.6656    0.1085 C   0  0  0  0  0  0  0  0  0  0  0  0
    2.3524   -0.6657    0.1083 C   0  0  0  0  0  0  0  0  0  0  0  0
   -1.3682    2.1240    0.7294 H   0  0  0  0  0  0  0  0  0  0  0  0
   -1.3684   -2.1241    0.7288 H   0  0  0  0  0  0  0  0  0  0  0  0
   -0.3015    1.1432   -1.6339 H   0  0  0  0  0  0  0  0  0  0  0  0
   -0.3015   -1.1430   -1.6342 H   0  0  0  0  0  0  0  0  0  0  0  0
   -0.3015   -0.0003    1.9198 H   0  0  0  0  0  0  0  0  0  0  0  0
   -2.0770   -0.0003    2.0649 H   0  0  0  0  0  0  0  0  0  0  0  0
   -3.3205    1.3122   -0.8583 H   0  0  0  0  0  0  0  0  0  0  0  0
   -3.3205   -1.3118   -0.8590 H   0  0  0  0  0  0  0  0  0  0  0  0
    3.2668    1.2116    0.3159 H   0  0  0  0  0  0  0  0  0  0  0  0
    3.2668   -1.2117    0.3156 H   0  0  0  0  0  0  0  0  0  0  0  0
  1 10  2  0  0  0  0
  2 11  2  0  0  0  0
  3  5  1  0  0  0  0
  3  7  1  0  0  0  0
  3  8  1  0  0  0  0
  3 14  1  0  0  0  0
  4  6  1  0  0  0  0
  4  7  1  0  0  0  0
  4  9  1  0  0  0  0
  4 15  1  0  0  0  0
  5  6  1  0  0  0  0
  5 10  1  0  0  0  0
  5 16  1  0  0  0  0
  6 11  1  0  0  0  0
  6 17  1  0  0  0  0
  7 18  1  0  0  0  0
  7 19  1  0  0  0  0
  8  9  2  0  0  0  0
  8 20  1  0  0  0  0
  9 21  1  0  0  0  0
 10 12  1  0  0  0  0
 11 13  1  0  0  0  0
 12 13  2  0  0  0  0
 12 22  1  0  0  0  0
 13 23  1  0  0  0  0
M  END
> <PUBCHEM_COMPOUND_CID>
79150

> <PUBCHEM_CONFORMER_RMSD>
0.4

> <PUBCHEM_CONFORMER_DIVERSEORDER>
1
3
4
2

> <PUBCHEM_MMFF94_PARTIAL_CHARGES>
16
1 -0.57
10 0.49
11 0.49
12 -0.14
13 -0.14
2 -0.57
20 0.15
21 0.15
22 0.15
23 0.15
3 0.14
4 0.14
5 0.06
6 0.06
8 -0.29
9 -0.29

> <PUBCHEM_EFFECTIVE_ROTOR_COUNT>
0.2

> <PUBCHEM_PHARMACOPHORE_FEATURES>
4
1 1 acceptor
1 2 acceptor
6 5 6 10 11 12 13 rings
7 3 4 5 6 7 8 9 rings

> <PUBCHEM_HEAVY_ATOM_COUNT>
13

> <PUBCHEM_ATOM_DEF_STEREO_COUNT>
0

> <PUBCHEM_ATOM_UDEF_STEREO_COUNT>
4

> <PUBCHEM_BOND_DEF_STEREO_COUNT>
0

> <PUBCHEM_BOND_UDEF_STEREO_COUNT>
0

> <PUBCHEM_ISOTOPIC_ATOM_COUNT>
0

> <PUBCHEM_COMPONENT_COUNT>
1

> <PUBCHEM_CACTVS_TAUTO_COUNT>
1

> <PUBCHEM_CONFORMER_ID>
0001352E00000001

> <PUBCHEM_MMFF94_ENERGY>
46.0958

> <PUBCHEM_FEATURE_SELFOVERLAP>
20.321

> <PUBCHEM_SHAPE_FINGERPRINT>
12423570 1 14236959538453882116
12524768 44 18054515703166236103
13024252 1 16812385249657039647
15775835 57 18269282433172547196
16945 1 18410854365154139925
17990270 104 18409165497987542706
20201158 50 18334852775420269543
21501502 16 18408604777396454653
2334 1 17978229687949804909
23419403 2 14066767396585081427
23552423 10 18411698811611933959
241688 4 17906452130079798970
2748010 2 18120659298983223989
369184 2 18409729543305259083
5084963 1 18059299875821656872
528886 8 18410565206269966185
63268167 104 18411984654475406576

> <PUBCHEM_SHAPE_MULTIPOLES>
255.8
3.34
2.21
0.86
0.41
0
-0.16
0
0.09
-1.13
0.03
0.27
0
0

> <PUBCHEM_SHAPE_SELFOVERLAP>
573.752

> <PUBCHEM_SHAPE_VOLUME>
138.1

> <PUBCHEM_COORDINATE_TYPE>
2
5
10

$$$$
