61975
  -OEChem-11012401093D

 24 23  0     0  0  0  0  0  0999 V2000
    5.3552   -0.7209   -0.0420 O   0  0  0  0  0  0  0  0  0  0  0  0
   -5.3562    0.7096   -0.0535 O   0  0  0  0  0  0  0  0  0  0  0  0
    4.2969    1.2896   -0.0450 O   0  0  0  0  0  0  0  0  0  0  0  0
   -4.2929   -1.2982   -0.0379 O   0  0  0  0  0  0  0  0  0  0  0  0
    1.8442    0.2140    0.0221 N   0  0  0  0  0  0  0  0  0  0  0  0
   -1.8486   -0.2116    0.0320 N   0  0  0  0  0  0  0  0  0  0  0  0
    0.5824   -0.4749    0.0231 C   0  0  0  0  0  0  0  0  0  0  0  0
   -0.5806    0.5055    0.0605 C   0  0  0  0  0  0  0  0  0  0  0  0
    2.9699   -0.7212    0.0307 C   0  0  0  0  0  0  0  0  0  0  0  0
   -2.9712    0.7163    0.0292 C   0  0  0  0  0  0  0  0  0  0  0  0
    4.2502    0.0666   -0.0090 C   0  0  0  0  0  0  0  0  0  0  0  0
   -4.2493   -0.0749   -0.0102 C   0  0  0  0  0  0  0  0  0  0  0  0
    0.4979   -1.0978   -0.8768 H   0  0  0  0  0  0  0  0  0  0  0  0
    0.5168   -1.1443    0.8908 H   0  0  0  0  0  0  0  0  0  0  0  0
   -0.5174    1.1214    0.9667 H   0  0  0  0  0  0  0  0  0  0  0  0
   -0.5146    1.1772   -0.8049 H   0  0  0  0  0  0  0  0  0  0  0  0
    1.9058    0.8246    0.8369 H   0  0  0  0  0  0  0  0  0  0  0  0
   -1.9102   -0.8235    0.8458 H   0  0  0  0  0  0  0  0  0  0  0  0
    2.9391   -1.3647   -0.8549 H   0  0  0  0  0  0  0  0  0  0  0  0
    2.9642   -1.3286    0.9418 H   0  0  0  0  0  0  0  0  0  0  0  0
   -2.9406    1.3548   -0.8600 H   0  0  0  0  0  0  0  0  0  0  0  0
   -2.9740    1.3306    0.9359 H   0  0  0  0  0  0  0  0  0  0  0  0
    6.1802   -0.1920   -0.0862 H   0  0  0  0  0  0  0  0  0  0  0  0
   -6.1797    0.1784   -0.0974 H   0  0  0  0  0  0  0  0  0  0  0  0
  1 11  1  0  0  0  0
  1 23  1  0  0  0  0
  2 12  1  0  0  0  0
  2 24  1  0  0  0  0
  3 11  2  0  0  0  0
  4 12  2  0  0  0  0
  5  7  1  0  0  0  0
  5  9  1  0  0  0  0
  5 17  1  0  0  0  0
  6  8  1  0  0  0  0
  6 10  1  0  0  0  0
  6 18  1  0  0  0  0
  7  8  1  0  0  0  0
  7 13  1  0  0  0  0
  7 14  1  0  0  0  0
  8 15  1  0  0  0  0
  8 16  1  0  0  0  0
  9 11  1  0  0  0  0
  9 19  1  0  0  0  0
  9 20  1  0  0  0  0
 10 12  1  0  0  0  0
 10 21  1  0  0  0  0
 10 22  1  0  0  0  0
M  END
> <PUBCHEM_COMPOUND_CID>
61975

> <PUBCHEM_CONFORMER_RMSD>
0.8

> <PUBCHEM_CONFORMER_DIVERSEORDER>
1
21
6
32
7
13
17
4
23
16
29
24
8
25
5
20
30
15
33
18
2
22
28
11
3
31
10
9
26
14
19
34
12
27

> <PUBCHEM_MMFF94_PARTIAL_CHARGES>
16
1 -0.65
10 0.33
11 0.66
12 0.66
17 0.36
18 0.36
2 -0.65
23 0.5
24 0.5
3 -0.57
4 -0.57
5 -0.9
6 -0.9
7 0.27
8 0.27
9 0.33

> <PUBCHEM_EFFECTIVE_ROTOR_COUNT>
7

> <PUBCHEM_PHARMACOPHORE_FEATURES>
10
1 1 acceptor
1 2 acceptor
1 3 acceptor
1 4 acceptor
1 5 cation
1 5 donor
1 6 cation
1 6 donor
3 1 3 11 anion
3 2 4 12 anion

> <PUBCHEM_HEAVY_ATOM_COUNT>
12

> <PUBCHEM_ATOM_DEF_STEREO_COUNT>
0

> <PUBCHEM_ATOM_UDEF_STEREO_COUNT>
0

> <PUBCHEM_BOND_DEF_STEREO_COUNT>
0

> <PUBCHEM_BOND_UDEF_STEREO_COUNT>
0

> <PUBCHEM_ISOTOPIC_ATOM_COUNT>
0

> <PUBCHEM_COMPONENT_COUNT>
1

> <PUBCHEM_CACTVS_TAUTO_COUNT>
1

> <PUBCHEM_CONFORMER_ID>
0000F21700000001

> <PUBCHEM_MMFF94_ENERGY>
4.2123

> <PUBCHEM_FEATURE_SELFOVERLAP>
50.862

> <PUBCHEM_SHAPE_FINGERPRINT>
11287383 113 18411138064871175506
11401426 45 18040433291761189461
14123238 8 18410575093253013581
17834072 33 18341612658859806524
17834076 25 16443067187920563024
20645477 70 18270965631452254102
20719005 15 18411138030648574058
20828058 44 18342176678560920711
22485316 2 18408038503069839371
23402539 116 18407754837717667887
42788 4 18410293605660471777
57483677 66 18409727344319349042

> <PUBCHEM_SHAPE_MULTIPOLES>
213.52
12.81
1.02
0.57
0.01
0
0
0.05
0.3
0
0.01
0
0
-0.02

> <PUBCHEM_SHAPE_SELFOVERLAP>
399.997

> <PUBCHEM_SHAPE_VOLUME>
132.3

> <PUBCHEM_COORDINATE_TYPE>
2
5
10

$$$$
