11357712
  -OEChem-11012400343D

 38 39  0     0  0  0  0  0  0999 V2000
   -1.7677   -1.4274    0.1446 O   0  0  0  0  0  0  0  0  0  0  0  0
    1.7670   -1.4275   -0.1447 O   0  0  0  0  0  0  0  0  0  0  0  0
   -0.3568    0.9695    0.5146 N   0  0  0  0  0  0  0  0  0  0  0  0
    0.3564    0.9693   -0.5156 N   0  0  0  0  0  0  0  0  0  0  0  0
   -2.3982   -0.2307   -0.0211 C   0  0  0  0  0  0  0  0  0  0  0  0
    2.3976   -0.2308    0.0210 C   0  0  0  0  0  0  0  0  0  0  0  0
   -1.7106    0.9696    0.1579 C   0  0  0  0  0  0  0  0  0  0  0  0
    1.7153    0.9695   -0.1571 C   0  0  0  0  0  0  0  0  0  0  0  0
   -3.7475   -0.2156   -0.3746 C   0  0  0  0  0  0  0  0  0  0  0  0
    3.7467   -0.2157    0.3750 C   0  0  0  0  0  0  0  0  0  0  0  0
   -2.3723    2.1851   -0.0164 C   0  0  0  0  0  0  0  0  0  0  0  0
    2.3719    2.1850    0.0160 C   0  0  0  0  0  0  0  0  0  0  0  0
   -2.2866   -2.2995    1.1464 C   0  0  0  0  0  0  0  0  0  0  0  0
    2.2862   -2.2999   -1.1463 C   0  0  0  0  0  0  0  0  0  0  0  0
   -4.4091    0.9999   -0.5490 C   0  0  0  0  0  0  0  0  0  0  0  0
    4.4085    0.9998    0.5494 C   0  0  0  0  0  0  0  0  0  0  0  0
   -3.7216    2.2002   -0.3699 C   0  0  0  0  0  0  0  0  0  0  0  0
    3.7210    2.2001    0.3699 C   0  0  0  0  0  0  0  0  0  0  0  0
   -1.1592   -3.1503    1.6916 C   0  0  0  0  0  0  0  0  0  0  0  0
    1.1590   -3.1506   -1.6916 C   0  0  0  0  0  0  0  0  0  0  0  0
   -4.2944   -1.1421   -0.5263 H   0  0  0  0  0  0  0  0  0  0  0  0
    4.2936   -1.1422    0.5271 H   0  0  0  0  0  0  0  0  0  0  0  0
   -1.8461    3.1261    0.1219 H   0  0  0  0  0  0  0  0  0  0  0  0
    1.8449    3.1253   -0.1227 H   0  0  0  0  0  0  0  0  0  0  0  0
   -2.7340   -1.7276    1.9689 H   0  0  0  0  0  0  0  0  0  0  0  0
   -3.0558   -2.9398    0.7013 H   0  0  0  0  0  0  0  0  0  0  0  0
    2.7341   -1.7281   -1.9687 H   0  0  0  0  0  0  0  0  0  0  0  0
    3.0552   -2.9401   -0.7007 H   0  0  0  0  0  0  0  0  0  0  0  0
   -5.4592    1.0119   -0.8262 H   0  0  0  0  0  0  0  0  0  0  0  0
    5.4584    1.0117    0.8269 H   0  0  0  0  0  0  0  0  0  0  0  0
   -4.2368    3.1466   -0.5059 H   0  0  0  0  0  0  0  0  0  0  0  0
    4.2362    3.1465    0.5059 H   0  0  0  0  0  0  0  0  0  0  0  0
   -1.5160   -3.8026    2.4936 H   0  0  0  0  0  0  0  0  0  0  0  0
   -0.7314   -3.7738    0.9017 H   0  0  0  0  0  0  0  0  0  0  0  0
   -0.3505   -2.5214    2.0783 H   0  0  0  0  0  0  0  0  0  0  0  0
    1.5160   -3.8031   -2.4935 H   0  0  0  0  0  0  0  0  0  0  0  0
    0.7310   -3.7740   -0.9018 H   0  0  0  0  0  0  0  0  0  0  0  0
    0.3505   -2.5217   -2.0787 H   0  0  0  0  0  0  0  0  0  0  0  0
  1  5  1  0  0  0  0
  1 13  1  0  0  0  0
  2  6  1  0  0  0  0
  2 14  1  0  0  0  0
  3  4  2  0  0  0  0
  3  7  1  0  0  0  0
  4  8  1  0  0  0  0
  5  7  1  0  0  0  0
  5  9  2  0  0  0  0
  6  8  1  0  0  0  0
  6 10  2  0  0  0  0
  7 11  2  0  0  0  0
  8 12  2  0  0  0  0
  9 15  1  0  0  0  0
  9 21  1  0  0  0  0
 10 16  1  0  0  0  0
 10 22  1  0  0  0  0
 11 17  1  0  0  0  0
 11 23  1  0  0  0  0
 12 18  1  0  0  0  0
 12 24  1  0  0  0  0
 13 19  1  0  0  0  0
 13 25  1  0  0  0  0
 13 26  1  0  0  0  0
 14 20  1  0  0  0  0
 14 27  1  0  0  0  0
 14 28  1  0  0  0  0
 15 17  2  0  0  0  0
 15 29  1  0  0  0  0
 16 18  2  0  0  0  0
 16 30  1  0  0  0  0
 17 31  1  0  0  0  0
 18 32  1  0  0  0  0
 19 33  1  0  0  0  0
 19 34  1  0  0  0  0
 19 35  1  0  0  0  0
 20 36  1  0  0  0  0
 20 37  1  0  0  0  0
 20 38  1  0  0  0  0
M  END
> <PUBCHEM_COMPOUND_CID>
11357712

> <PUBCHEM_CONFORMER_RMSD>
0.8

> <PUBCHEM_CONFORMER_DIVERSEORDER>
1
25
27
16
21
24
20
8
12
14
22
9
26
3
13
19
28
17
4
15
6
11
10
5
29
2
7
23
18

> <PUBCHEM_MMFF94_PARTIAL_CHARGES>
26
1 -0.36
10 -0.15
11 -0.15
12 -0.15
13 0.28
14 0.28
15 -0.15
16 -0.15
17 -0.15
18 -0.15
2 -0.36
21 0.15
22 0.15
23 0.15
24 0.15
29 0.15
3 -0.18
30 0.15
31 0.15
32 0.15
4 -0.18
5 0.08
6 0.08
7 0.18
8 0.18
9 -0.15

> <PUBCHEM_EFFECTIVE_ROTOR_COUNT>
6

> <PUBCHEM_PHARMACOPHORE_FEATURES>
4
1 1 acceptor
1 2 acceptor
6 5 7 9 11 15 17 rings
6 6 8 10 12 16 18 rings

> <PUBCHEM_HEAVY_ATOM_COUNT>
20

> <PUBCHEM_ATOM_DEF_STEREO_COUNT>
0

> <PUBCHEM_ATOM_UDEF_STEREO_COUNT>
0

> <PUBCHEM_BOND_DEF_STEREO_COUNT>
0

> <PUBCHEM_BOND_UDEF_STEREO_COUNT>
0

> <PUBCHEM_ISOTOPIC_ATOM_COUNT>
0

> <PUBCHEM_COMPONENT_COUNT>
1

> <PUBCHEM_CACTVS_TAUTO_COUNT>
1

> <PUBCHEM_CONFORMER_ID>
00AD4E1000000001

> <PUBCHEM_MMFF94_ENERGY>
63.3677

> <PUBCHEM_FEATURE_SELFOVERLAP>
20.297

> <PUBCHEM_SHAPE_FINGERPRINT>
10366900 7 18201998871383258736
10616163 171 18338799038637456726
108634 29 18261399983116714307
11370993 70 18410567388087095665
12500047 106 18334288786143057769
12633257 1 18115292398487671506
13140716 1 17977111485078362489
13380535 76 18410852161593323936
138480 1 17689147911889201459
15375358 24 18410853261104925728
18186145 218 18191024500193014789
18681886 176 18342449392311198224
200 152 17917985088191176149
20261772 1 17766570423091978530
20645477 70 18341608166287189253
20832881 197 17691134738216769887
22182313 1 18198645365851643830
23402539 116 18337096952363557877
23558518 356 18197510523501247961
23559900 14 18199743653086517120
2748010 2 18269006421710553366
495365 180 18059557097208062368
5104073 3 18410007741011381969
5262128 65 17627801816090054543
633830 44 18195802969401223373
6438718 38 16839955925010315118
69090 78 18335133185625126313
7364860 26 18200594688050380668
8272917 22 18129944472763848501
8809292 202 18334858363214802960
9709674 26 18411984654443985527
9981440 41 18343010129643974530

> <PUBCHEM_SHAPE_MULTIPOLES>
389.89
8.05
3.66
1.13
0
2.46
0
-4.24
0
0
0
0
1.2
1.82

> <PUBCHEM_SHAPE_SELFOVERLAP>
818.706

> <PUBCHEM_SHAPE_VOLUME>
220.6

> <PUBCHEM_COORDINATE_TYPE>
2
5
10

$$$$
