5463372
  -OEChem-11012401023D

 24 23  0     0  0  0  0  0  0999 V2000
    1.0538   -0.3288    0.1386 O   0  0  0  0  0  0  0  0  0  0  0  0
    0.0698    1.7209   -0.2721 O   0  0  0  0  0  0  0  0  0  0  0  0
    3.3969   -0.8551    0.0819 C   0  0  0  0  0  0  0  0  0  0  0  0
    2.3493    0.2334   -0.0955 C   0  0  0  0  0  0  0  0  0  0  0  0
    4.8032   -0.3266   -0.1372 C   0  0  0  0  0  0  0  0  0  0  0  0
   -3.7217   -0.2873    0.5075 C   0  0  0  0  0  0  0  0  0  0  0  0
   -2.4168    0.4023    0.2349 C   0  0  0  0  0  0  0  0  0  0  0  0
    0.0108    0.5356    0.0141 C   0  0  0  0  0  0  0  0  0  0  0  0
   -1.2308   -0.2183    0.2908 C   0  0  0  0  0  0  0  0  0  0  0  0
   -4.3145   -0.8762   -0.7631 C   0  0  0  0  0  0  0  0  0  0  0  0
    3.3135   -1.2855    1.0870 H   0  0  0  0  0  0  0  0  0  0  0  0
    3.1946   -1.6772   -0.6151 H   0  0  0  0  0  0  0  0  0  0  0  0
    2.5247    1.0458    0.6195 H   0  0  0  0  0  0  0  0  0  0  0  0
    2.3909    0.6343   -1.1150 H   0  0  0  0  0  0  0  0  0  0  0  0
    5.0387    0.4694    0.5763 H   0  0  0  0  0  0  0  0  0  0  0  0
    5.5351   -1.1294   -0.0041 H   0  0  0  0  0  0  0  0  0  0  0  0
    4.9185    0.0737   -1.1495 H   0  0  0  0  0  0  0  0  0  0  0  0
   -3.5841   -1.0849    1.2475 H   0  0  0  0  0  0  0  0  0  0  0  0
   -4.4207    0.4316    0.9496 H   0  0  0  0  0  0  0  0  0  0  0  0
   -2.4775    1.4545   -0.0311 H   0  0  0  0  0  0  0  0  0  0  0  0
   -1.1566   -1.2703    0.5451 H   0  0  0  0  0  0  0  0  0  0  0  0
   -4.4903   -0.0992   -1.5149 H   0  0  0  0  0  0  0  0  0  0  0  0
   -5.2731   -1.3572   -0.5442 H   0  0  0  0  0  0  0  0  0  0  0  0
   -3.6511   -1.6301   -1.2002 H   0  0  0  0  0  0  0  0  0  0  0  0
  1  4  1  0  0  0  0
  1  8  1  0  0  0  0
  2  8  2  0  0  0  0
  3  4  1  0  0  0  0
  3  5  1  0  0  0  0
  3 11  1  0  0  0  0
  3 12  1  0  0  0  0
  4 13  1  0  0  0  0
  4 14  1  0  0  0  0
  5 15  1  0  0  0  0
  5 16  1  0  0  0  0
  5 17  1  0  0  0  0
  6  7  1  0  0  0  0
  6 10  1  0  0  0  0
  6 18  1  0  0  0  0
  6 19  1  0  0  0  0
  7  9  2  0  0  0  0
  7 20  1  0  0  0  0
  8  9  1  0  0  0  0
  9 21  1  0  0  0  0
 10 22  1  0  0  0  0
 10 23  1  0  0  0  0
 10 24  1  0  0  0  0
M  END
> <PUBCHEM_COMPOUND_CID>
5463372

> <PUBCHEM_CONFORMER_RMSD>
0.6

> <PUBCHEM_CONFORMER_DIVERSEORDER>
1
84
13
78
62
5
67
55
60
7
2
76
21
53
59
3
80
32
47
16
72
56
57
12
8
43
19
73
70
38
54
51
14
26
41
31
45
40
27
58
77
22
83
29
39
35
25
69
37
42
6
34
66
63
81
71
28
20
68
74
52
75
18
36
9
50
10
82
44
4
64
48
46
23
24
15
30
61
17
11
65
79
49
33

> <PUBCHEM_MMFF94_PARTIAL_CHARGES>
9
1 -0.43
2 -0.57
20 0.15
21 0.15
4 0.28
6 0.14
7 -0.29
8 0.71
9 -0.14

> <PUBCHEM_EFFECTIVE_ROTOR_COUNT>
5

> <PUBCHEM_PHARMACOPHORE_FEATURES>
3
1 10 hydrophobe
1 2 acceptor
1 5 hydrophobe

> <PUBCHEM_HEAVY_ATOM_COUNT>
10

> <PUBCHEM_ATOM_DEF_STEREO_COUNT>
0

> <PUBCHEM_ATOM_UDEF_STEREO_COUNT>
0

> <PUBCHEM_BOND_DEF_STEREO_COUNT>
1

> <PUBCHEM_BOND_UDEF_STEREO_COUNT>
0

> <PUBCHEM_ISOTOPIC_ATOM_COUNT>
0

> <PUBCHEM_COMPONENT_COUNT>
1

> <PUBCHEM_CACTVS_TAUTO_COUNT>
1

> <PUBCHEM_CONFORMER_ID>
00535D4C00000001

> <PUBCHEM_MMFF94_ENERGY>
5.7932

> <PUBCHEM_FEATURE_SELFOVERLAP>
15.223

> <PUBCHEM_SHAPE_FINGERPRINT>
11062470 55 13406797726824173970
114248 4 15864075385646332587
12032990 46 18335426767755630027
13690532 89 18411980286747107975
14123238 8 18060419127377666030
14252887 29 18060430092503266190
14993402 34 18408882953653756583
17834072 33 17846215613623369484
18342897 14 9583518719964088502
187816 3 17313106345412830000
20211469 26 18342458136093803801
20711985 327 18343309175263457253
20719005 15 18413389834773187306
20724930 69 11386363729650477887
20767249 13 18187079559841260706
20828058 44 17203610388981242855
21119208 17 15502376724916474314
21293036 1 17748827418795774506
22485316 2 18412542085216653802
23402539 116 18410851036354051629
449060 50 15339115749793485312

> <PUBCHEM_SHAPE_MULTIPOLES>
194.06
9.16
1.07
0.71
2.53
0.27
-0.02
-3.36
-0.73
-0.09
-0.12
-0.36
-0.05
-0.29

> <PUBCHEM_SHAPE_SELFOVERLAP>
356.274

> <PUBCHEM_SHAPE_VOLUME>
123.2

> <PUBCHEM_COORDINATE_TYPE>
2
5
10

$$$$
