88754
  -OEChem-11012400383D

 24 25  0     1  0  0  0  0  0999 V2000
   -2.3894   -0.0483    1.2575 O   0  0  0  0  0  0  0  0  0  0  0  0
   -1.3511    2.2385    0.1155 O   0  0  0  0  0  0  0  0  0  0  0  0
   -2.2236    0.0070   -0.1593 C   0  0  1  0  0  0  0  0  0  0  0  0
   -1.1106    0.9935   -0.5357 C   0  0  2  0  0  0  0  0  0  0  0  0
   -1.8892   -1.3870   -0.6759 C   0  0  0  0  0  0  0  0  0  0  0  0
   -0.5928   -1.9094   -0.0539 C   0  0  0  0  0  0  0  0  0  0  0  0
    0.2808    0.4815   -0.2262 C   0  0  0  0  0  0  0  0  0  0  0  0
    0.5237   -0.8941   -0.0407 C   0  0  0  0  0  0  0  0  0  0  0  0
    1.3660    1.3738   -0.1995 C   0  0  0  0  0  0  0  0  0  0  0  0
    1.8312   -1.3376    0.2153 C   0  0  0  0  0  0  0  0  0  0  0  0
    2.6615    0.9184    0.0457 C   0  0  0  0  0  0  0  0  0  0  0  0
    2.8934   -0.4364    0.2572 C   0  0  0  0  0  0  0  0  0  0  0  0
   -3.1791    0.3461   -0.5752 H   0  0  0  0  0  0  0  0  0  0  0  0
   -1.1473    1.1736   -1.6181 H   0  0  0  0  0  0  0  0  0  0  0  0
   -1.7935   -1.3601   -1.7686 H   0  0  0  0  0  0  0  0  0  0  0  0
   -2.6985   -2.0863   -0.4349 H   0  0  0  0  0  0  0  0  0  0  0  0
   -0.2761   -2.8017   -0.6075 H   0  0  0  0  0  0  0  0  0  0  0  0
   -0.7832   -2.2182    0.9818 H   0  0  0  0  0  0  0  0  0  0  0  0
    1.2105    2.4359   -0.3738 H   0  0  0  0  0  0  0  0  0  0  0  0
    2.0274   -2.3942    0.3815 H   0  0  0  0  0  0  0  0  0  0  0  0
   -2.5563    0.8587    1.5658 H   0  0  0  0  0  0  0  0  0  0  0  0
   -2.2304    2.5486   -0.1610 H   0  0  0  0  0  0  0  0  0  0  0  0
    3.4886    1.6219    0.0689 H   0  0  0  0  0  0  0  0  0  0  0  0
    3.9008   -0.7924    0.4515 H   0  0  0  0  0  0  0  0  0  0  0  0
  1  3  1  0  0  0  0
  1 21  1  0  0  0  0
  2  4  1  0  0  0  0
  2 22  1  0  0  0  0
  3  4  1  0  0  0  0
  3  5  1  0  0  0  0
  3 13  1  0  0  0  0
  4  7  1  0  0  0  0
  4 14  1  0  0  0  0
  5  6  1  0  0  0  0
  5 15  1  0  0  0  0
  5 16  1  0  0  0  0
  6  8  1  0  0  0  0
  6 17  1  0  0  0  0
  6 18  1  0  0  0  0
  7  8  1  0  0  0  0
  7  9  2  0  0  0  0
  8 10  2  0  0  0  0
  9 11  1  0  0  0  0
  9 19  1  0  0  0  0
 10 12  1  0  0  0  0
 10 20  1  0  0  0  0
 11 12  2  0  0  0  0
 11 23  1  0  0  0  0
 12 24  1  0  0  0  0
M  END
> <PUBCHEM_COMPOUND_CID>
88754

> <PUBCHEM_CONFORMER_RMSD>
0.4

> <PUBCHEM_CONFORMER_DIVERSEORDER>
1
2

> <PUBCHEM_MMFF94_PARTIAL_CHARGES>
17
1 -0.68
10 -0.15
11 -0.15
12 -0.15
19 0.15
2 -0.68
20 0.15
21 0.4
22 0.4
23 0.15
24 0.15
3 0.28
4 0.42
6 0.14
7 -0.14
8 -0.14
9 -0.15

> <PUBCHEM_EFFECTIVE_ROTOR_COUNT>
0.8

> <PUBCHEM_PHARMACOPHORE_FEATURES>
6
1 1 acceptor
1 1 donor
1 2 acceptor
1 2 donor
6 3 4 5 6 7 8 rings
6 7 8 9 10 11 12 rings

> <PUBCHEM_HEAVY_ATOM_COUNT>
12

> <PUBCHEM_ATOM_DEF_STEREO_COUNT>
2

> <PUBCHEM_ATOM_UDEF_STEREO_COUNT>
0

> <PUBCHEM_BOND_DEF_STEREO_COUNT>
0

> <PUBCHEM_BOND_UDEF_STEREO_COUNT>
0

> <PUBCHEM_ISOTOPIC_ATOM_COUNT>
0

> <PUBCHEM_COMPONENT_COUNT>
1

> <PUBCHEM_CACTVS_TAUTO_COUNT>
1

> <PUBCHEM_CONFORMER_ID>
00015AB200000001

> <PUBCHEM_MMFF94_ENERGY>
27.8129

> <PUBCHEM_FEATURE_SELFOVERLAP>
30.476

> <PUBCHEM_SHAPE_FINGERPRINT>
12382932 28 18339922739568471266
12423570 1 8087879423852048725
12524768 44 18411984680171623838
12696612 119 18335708238701123956
13024252 1 17894343393375617407
13380535 76 18047745997458168645
15775835 57 18342463663674645672
16945 1 18410291423811869214
17844478 74 18040726873923627489
18185500 45 18122621918659594495
193761 8 15097046840114699006
19973954 147 18410290281345202780
20871998 184 18201720707952823543
21040471 1 18338793408304564340
2334 1 17832986426993268478
23552423 10 18189048858028005862
23559900 14 17983297020439368462
241688 4 18194675088954898219
2748010 2 18050003298950646566
369184 2 18412538833920986615
5084963 1 18202273702061055154
528886 8 18338791324865786522
63268167 104 18338230569635268258
66348 1 17546444479615664574

> <PUBCHEM_SHAPE_MULTIPOLES>
235.22
3.79
1.98
0.78
1.08
0.19
0.09
-0.03
0.39
-0.31
-0.07
-0.32
-0.02
-0.24

> <PUBCHEM_SHAPE_SELFOVERLAP>
500.931

> <PUBCHEM_SHAPE_VOLUME>
129.9

> <PUBCHEM_COORDINATE_TYPE>
2
5
10

$$$$
