16303
  -OEChem-11012400403D

 25 25  0     0  0  0  0  0  0999 V2000
    2.6469    1.6074    0.0020 O   0  0  0  0  0  0  0  0  0  0  0  0
    1.6040   -0.5065   -0.0003 N   0  0  0  0  0  0  0  0  0  0  0  0
   -0.7185   -1.2153    0.0006 C   0  0  0  0  0  0  0  0  0  0  0  0
    0.2404   -0.2022   -0.0011 C   0  0  0  0  0  0  0  0  0  0  0  0
   -2.4731    0.4457    0.0006 C   0  0  0  0  0  0  0  0  0  0  0  0
   -2.0753   -0.8913    0.0014 C   0  0  0  0  0  0  0  0  0  0  0  0
   -0.1577    1.1348   -0.0020 C   0  0  0  0  0  0  0  0  0  0  0  0
   -1.5143    1.4587   -0.0011 C   0  0  0  0  0  0  0  0  0  0  0  0
   -0.3213   -2.6560   -0.0006 C   0  0  0  0  0  0  0  0  0  0  0  0
   -3.9238    0.7920    0.0007 C   0  0  0  0  0  0  0  0  0  0  0  0
    2.6866    0.3813   -0.0005 C   0  0  0  0  0  0  0  0  0  0  0  0
    4.0063   -0.3486    0.0005 C   0  0  0  0  0  0  0  0  0  0  0  0
   -2.8273   -1.6769    0.0004 H   0  0  0  0  0  0  0  0  0  0  0  0
    0.5189    1.9771   -0.0042 H   0  0  0  0  0  0  0  0  0  0  0  0
   -1.8129    2.5038   -0.0039 H   0  0  0  0  0  0  0  0  0  0  0  0
   -1.1943   -3.3180    0.0004 H   0  0  0  0  0  0  0  0  0  0  0  0
    0.2620   -2.8941   -0.8963 H   0  0  0  0  0  0  0  0  0  0  0  0
    0.2646   -2.8949    0.8931 H   0  0  0  0  0  0  0  0  0  0  0  0
    1.8418   -1.4948    0.0003 H   0  0  0  0  0  0  0  0  0  0  0  0
   -4.5045    0.0537    0.5639 H   0  0  0  0  0  0  0  0  0  0  0  0
   -4.0999    1.7648    0.4724 H   0  0  0  0  0  0  0  0  0  0  0  0
   -4.3014    0.8282   -1.0259 H   0  0  0  0  0  0  0  0  0  0  0  0
    4.0921   -0.9557    0.9060 H   0  0  0  0  0  0  0  0  0  0  0  0
    4.8284    0.3721   -0.0237 H   0  0  0  0  0  0  0  0  0  0  0  0
    4.0746   -0.9934   -0.8802 H   0  0  0  0  0  0  0  0  0  0  0  0
  1 11  2  0  0  0  0
  2  4  1  0  0  0  0
  2 11  1  0  0  0  0
  2 19  1  0  0  0  0
  3  4  2  0  0  0  0
  3  6  1  0  0  0  0
  3  9  1  0  0  0  0
  4  7  1  0  0  0  0
  5  6  2  0  0  0  0
  5  8  1  0  0  0  0
  5 10  1  0  0  0  0
  6 13  1  0  0  0  0
  7  8  2  0  0  0  0
  7 14  1  0  0  0  0
  8 15  1  0  0  0  0
  9 16  1  0  0  0  0
  9 17  1  0  0  0  0
  9 18  1  0  0  0  0
 10 20  1  0  0  0  0
 10 21  1  0  0  0  0
 10 22  1  0  0  0  0
 11 12  1  0  0  0  0
 12 23  1  0  0  0  0
 12 24  1  0  0  0  0
 12 25  1  0  0  0  0
M  END
> <PUBCHEM_COMPOUND_CID>
16303

> <PUBCHEM_CONFORMER_RMSD>
0.6

> <PUBCHEM_CONFORMER_DIVERSEORDER>
1
2
3

> <PUBCHEM_MMFF94_PARTIAL_CHARGES>
16
1 -0.57
10 0.14
11 0.57
12 0.06
13 0.15
14 0.15
15 0.15
19 0.37
2 -0.55
3 -0.14
4 0.12
5 -0.14
6 -0.15
7 -0.15
8 -0.15
9 0.14

> <PUBCHEM_EFFECTIVE_ROTOR_COUNT>
2

> <PUBCHEM_PHARMACOPHORE_FEATURES>
3
1 1 acceptor
1 2 donor
6 3 4 5 6 7 8 rings

> <PUBCHEM_HEAVY_ATOM_COUNT>
12

> <PUBCHEM_ATOM_DEF_STEREO_COUNT>
0

> <PUBCHEM_ATOM_UDEF_STEREO_COUNT>
0

> <PUBCHEM_BOND_DEF_STEREO_COUNT>
0

> <PUBCHEM_BOND_UDEF_STEREO_COUNT>
0

> <PUBCHEM_ISOTOPIC_ATOM_COUNT>
0

> <PUBCHEM_COMPONENT_COUNT>
1

> <PUBCHEM_CACTVS_TAUTO_COUNT>
2

> <PUBCHEM_CONFORMER_ID>
00003FAF00000001

> <PUBCHEM_MMFF94_ENERGY>
34.549

> <PUBCHEM_FEATURE_SELFOVERLAP>
15.223

> <PUBCHEM_SHAPE_FINGERPRINT>
11132069 177 18342450456602731192
12716758 59 18340201998474075386
12932764 1 17241031185153891988
13024252 1 14418129625806314831
13380535 76 18412545388046764374
14325111 11 18410856576835664897
14993402 34 18334855026194142437
15669948 3 18338796852995150686
15775835 57 18260268529705712320
16945 1 18338797784844622823
17846911 113 18341607105467255241
18186145 218 18341331119416628773
193761 8 17689999359496491941
20201158 50 18131073714513741934
20645476 183 17823437035288493934
20645477 56 18410572924832917584
20871998 184 18127982016428532719
21501502 16 18196369436510613308
21524375 3 18410572855780994987
23235685 24 18410286991479485677
23402539 116 18271796917443892228
23402655 69 18196356049963027357
23463225 33 18262515892860502290
23552423 10 17972316484672750828
23559900 14 18272368690341541368
2748010 2 18338239374624154207
366044 4 18410011022524351963
369184 2 18409447020166637112
528886 8 18411132528747995291
6333449 129 18340203089221571615
69090 78 18341888601897638350
7364860 26 18053101718338765079
81228 2 17977089485971042131

> <PUBCHEM_SHAPE_MULTIPOLES>
236.1
5.74
1.99
0.6
2.34
1.08
0
-1.74
0
-0.25
0
-0.03
0.01
0

> <PUBCHEM_SHAPE_SELFOVERLAP>
484.249

> <PUBCHEM_SHAPE_VOLUME>
137.4

> <PUBCHEM_COORDINATE_TYPE>
2
5
10

$$$$
