21686
  -OEChem-11012401223D

 30 32  0     0  0  0  0  0  0999 V2000
    2.8535   -1.1278    0.0007 O   0  0  0  0  0  0  0  0  0  0  0  0
    2.8462    1.1796   -0.0001 N   0  0  0  0  0  0  0  0  0  0  0  0
    0.7507   -0.0337   -0.0071 C   0  0  0  0  0  0  0  0  0  0  0  0
   -1.3431   -1.4436   -0.0019 C   0  0  0  0  0  0  0  0  0  0  0  0
   -1.3002    0.7439   -1.2566 C   0  0  0  0  0  0  0  0  0  0  0  0
   -1.2878    0.7365    1.2660 C   0  0  0  0  0  0  0  0  0  0  0  0
    0.1952   -1.4719   -0.0086 C   0  0  0  0  0  0  0  0  0  0  0  0
    0.2381    0.7069   -1.2583 C   0  0  0  0  0  0  0  0  0  0  0  0
    0.2506    0.6991    1.2533 C   0  0  0  0  0  0  0  0  0  0  0  0
   -1.8405   -0.6966   -1.2515 C   0  0  0  0  0  0  0  0  0  0  0  0
   -1.8289   -0.7038    1.2568 C   0  0  0  0  0  0  0  0  0  0  0  0
   -1.7860    1.4713    0.0092 C   0  0  0  0  0  0  0  0  0  0  0  0
    2.2523   -0.0600   -0.0018 C   0  0  0  0  0  0  0  0  0  0  0  0
   -1.7327   -2.4677   -0.0031 H   0  0  0  0  0  0  0  0  0  0  0  0
   -1.6594    1.2705   -2.1478 H   0  0  0  0  0  0  0  0  0  0  0  0
   -1.6385    1.2576    2.1637 H   0  0  0  0  0  0  0  0  0  0  0  0
    0.5537   -2.0277    0.8681 H   0  0  0  0  0  0  0  0  0  0  0  0
    0.5470   -2.0222   -0.8915 H   0  0  0  0  0  0  0  0  0  0  0  0
    0.5987    0.2095   -2.1684 H   0  0  0  0  0  0  0  0  0  0  0  0
    0.6150    1.7360   -1.3038 H   0  0  0  0  0  0  0  0  0  0  0  0
    0.6267    1.7283    1.3023 H   0  0  0  0  0  0  0  0  0  0  0  0
    0.6184    0.1962    2.1576 H   0  0  0  0  0  0  0  0  0  0  0  0
   -1.5135   -1.2223   -2.1570 H   0  0  0  0  0  0  0  0  0  0  0  0
   -2.9372   -0.6849   -1.2686 H   0  0  0  0  0  0  0  0  0  0  0  0
   -2.9255   -0.6917    1.2837 H   0  0  0  0  0  0  0  0  0  0  0  0
   -1.4941   -1.2352    2.1561 H   0  0  0  0  0  0  0  0  0  0  0  0
   -1.4203    2.5054    0.0105 H   0  0  0  0  0  0  0  0  0  0  0  0
   -2.8818    1.5211    0.0148 H   0  0  0  0  0  0  0  0  0  0  0  0
    3.8573    1.2654    0.0037 H   0  0  0  0  0  0  0  0  0  0  0  0
    2.3262    2.0503   -0.0040 H   0  0  0  0  0  0  0  0  0  0  0  0
  1 13  2  0  0  0  0
  2 13  1  0  0  0  0
  2 29  1  0  0  0  0
  2 30  1  0  0  0  0
  3  7  1  0  0  0  0
  3  8  1  0  0  0  0
  3  9  1  0  0  0  0
  3 13  1  0  0  0  0
  4  7  1  0  0  0  0
  4 10  1  0  0  0  0
  4 11  1  0  0  0  0
  4 14  1  0  0  0  0
  5  8  1  0  0  0  0
  5 10  1  0  0  0  0
  5 12  1  0  0  0  0
  5 15  1  0  0  0  0
  6  9  1  0  0  0  0
  6 11  1  0  0  0  0
  6 12  1  0  0  0  0
  6 16  1  0  0  0  0
  7 17  1  0  0  0  0
  7 18  1  0  0  0  0
  8 19  1  0  0  0  0
  8 20  1  0  0  0  0
  9 21  1  0  0  0  0
  9 22  1  0  0  0  0
 10 23  1  0  0  0  0
 10 24  1  0  0  0  0
 11 25  1  0  0  0  0
 11 26  1  0  0  0  0
 12 27  1  0  0  0  0
 12 28  1  0  0  0  0
M  END
> <PUBCHEM_COMPOUND_CID>
21686

> <PUBCHEM_CONFORMER_RMSD>
0.6

> <PUBCHEM_CONFORMER_DIVERSEORDER>
1

> <PUBCHEM_MMFF94_PARTIAL_CHARGES>
6
1 -0.57
13 0.57
2 -0.8
29 0.37
3 0.06
30 0.37

> <PUBCHEM_EFFECTIVE_ROTOR_COUNT>
2.2

> <PUBCHEM_PHARMACOPHORE_FEATURES>
6
1 1 acceptor
1 2 donor
6 3 4 5 7 8 10 rings
6 3 4 6 7 9 11 rings
6 3 5 6 8 9 12 rings
6 4 5 6 10 11 12 rings

> <PUBCHEM_HEAVY_ATOM_COUNT>
13

> <PUBCHEM_ATOM_DEF_STEREO_COUNT>
0

> <PUBCHEM_ATOM_UDEF_STEREO_COUNT>
0

> <PUBCHEM_BOND_DEF_STEREO_COUNT>
0

> <PUBCHEM_BOND_UDEF_STEREO_COUNT>
0

> <PUBCHEM_ISOTOPIC_ATOM_COUNT>
0

> <PUBCHEM_COMPONENT_COUNT>
1

> <PUBCHEM_CACTVS_TAUTO_COUNT>
2

> <PUBCHEM_CONFORMER_ID>
000054B600000001

> <PUBCHEM_MMFF94_ENERGY>
35.2488

> <PUBCHEM_FEATURE_SELFOVERLAP>
42.992

> <PUBCHEM_SHAPE_FINGERPRINT>
10702982 57 17914331273538828225
12423570 1 13084970974032399021
13024252 1 13767926818897752131
137420 1 16016036435595458493
14817 1 13515206927765367017
15557651 10 17460589212924171397
16945 1 18194683889279577472
19837323 101 17895462631809361021
20653085 51 18188763946803294765
2748010 2 18260547818538820782
369184 2 18202002131336775986
5084963 1 18340757191642661510
528886 8 18115856426113802533
535629 181 17131534060143014820

> <PUBCHEM_SHAPE_MULTIPOLES>
256.68
3.22
1.52
1.36
2.53
0.16
0
0
0
-0.22
0
-0.68
-0.19
0

> <PUBCHEM_SHAPE_SELFOVERLAP>
561.98

> <PUBCHEM_SHAPE_VOLUME>
133.2

> <PUBCHEM_COORDINATE_TYPE>
2
5
10

$$$$
