71423327
  -OEChem-11012400393D

 35 34  0     0  0  0  0  0  0999 V2000
    0.1513    1.3980    0.4472 Si  0  0  0  0  0  0  0  0  0  0  0  0
    1.1029   -0.1006    0.9935 C   0  0  0  0  0  0  0  0  0  0  0  0
   -1.3892    0.8880   -0.4827 C   0  0  0  0  0  0  0  0  0  0  0  0
    1.2056    2.5069   -0.6054 C   0  0  0  0  0  0  0  0  0  0  0  0
    1.6183   -0.9992   -0.1362 C   0  0  0  0  0  0  0  0  0  0  0  0
   -2.3623   -0.0035    0.2970 C   0  0  0  0  0  0  0  0  0  0  0  0
    2.4263   -2.1752    0.4150 C   0  0  0  0  0  0  0  0  0  0  0  0
   -3.6069   -0.3241   -0.5322 C   0  0  0  0  0  0  0  0  0  0  0  0
    2.4736    3.0313    0.0556 C   0  0  0  0  0  0  0  0  0  0  0  0
    2.9748   -3.0472   -0.7032 C   0  0  0  0  0  0  0  0  0  0  0  0
   -4.5945   -1.1742    0.2512 C   0  0  0  0  0  0  0  0  0  0  0  0
   -0.2661    2.1542    1.6552 H   0  0  0  0  0  0  0  0  0  0  0  0
    0.4695   -0.6963    1.6616 H   0  0  0  0  0  0  0  0  0  0  0  0
    1.9539    0.2331    1.5994 H   0  0  0  0  0  0  0  0  0  0  0  0
   -1.0876    0.3724   -1.4022 H   0  0  0  0  0  0  0  0  0  0  0  0
   -1.9122    1.7999   -0.7951 H   0  0  0  0  0  0  0  0  0  0  0  0
    0.6021    3.3656   -0.9218 H   0  0  0  0  0  0  0  0  0  0  0  0
    1.4849    1.9739   -1.5215 H   0  0  0  0  0  0  0  0  0  0  0  0
    0.7775   -1.3824   -0.7283 H   0  0  0  0  0  0  0  0  0  0  0  0
    2.2505   -0.4190   -0.8205 H   0  0  0  0  0  0  0  0  0  0  0  0
   -1.8685   -0.9400    0.5855 H   0  0  0  0  0  0  0  0  0  0  0  0
   -2.6641    0.4961    1.2267 H   0  0  0  0  0  0  0  0  0  0  0  0
    1.7950   -2.7848    1.0719 H   0  0  0  0  0  0  0  0  0  0  0  0
    3.2612   -1.8031    1.0202 H   0  0  0  0  0  0  0  0  0  0  0  0
   -3.3180   -0.8558   -1.4462 H   0  0  0  0  0  0  0  0  0  0  0  0
   -4.1003    0.6055   -0.8391 H   0  0  0  0  0  0  0  0  0  0  0  0
    3.0128    3.6888   -0.6345 H   0  0  0  0  0  0  0  0  0  0  0  0
    3.1487    2.2149    0.3345 H   0  0  0  0  0  0  0  0  0  0  0  0
    2.2465    3.6071    0.9595 H   0  0  0  0  0  0  0  0  0  0  0  0
    3.6385   -2.4740   -1.3584 H   0  0  0  0  0  0  0  0  0  0  0  0
    3.5470   -3.8821   -0.2868 H   0  0  0  0  0  0  0  0  0  0  0  0
    2.1641   -3.4607   -1.3115 H   0  0  0  0  0  0  0  0  0  0  0  0
   -4.9291   -0.6549    1.1549 H   0  0  0  0  0  0  0  0  0  0  0  0
   -5.4753   -1.3927   -0.3607 H   0  0  0  0  0  0  0  0  0  0  0  0
   -4.1429   -2.1260    0.5488 H   0  0  0  0  0  0  0  0  0  0  0  0
  1  2  1  0  0  0  0
  1  3  1  0  0  0  0
  1  4  1  0  0  0  0
  1 12  1  0  0  0  0
  2  5  1  0  0  0  0
  2 13  1  0  0  0  0
  2 14  1  0  0  0  0
  3  6  1  0  0  0  0
  3 15  1  0  0  0  0
  3 16  1  0  0  0  0
  4  9  1  0  0  0  0
  4 17  1  0  0  0  0
  4 18  1  0  0  0  0
  5  7  1  0  0  0  0
  5 19  1  0  0  0  0
  5 20  1  0  0  0  0
  6  8  1  0  0  0  0
  6 21  1  0  0  0  0
  6 22  1  0  0  0  0
  7 10  1  0  0  0  0
  7 23  1  0  0  0  0
  7 24  1  0  0  0  0
  8 11  1  0  0  0  0
  8 25  1  0  0  0  0
  8 26  1  0  0  0  0
  9 27  1  0  0  0  0
  9 28  1  0  0  0  0
  9 29  1  0  0  0  0
 10 30  1  0  0  0  0
 10 31  1  0  0  0  0
 10 32  1  0  0  0  0
 11 33  1  0  0  0  0
 11 34  1  0  0  0  0
 11 35  1  0  0  0  0
M  END
> <PUBCHEM_COMPOUND_CID>
71423327

> <PUBCHEM_CONFORMER_RMSD>
0.8

> <PUBCHEM_CONFORMER_DIVERSEORDER>
1
127
90
132
116
25
114
131
118
2
5
105
68
59
143
82
104
81
9
138
54
117
6
106
120
129
28
98
17
137
20
136
22
42
140
3
100
95
21
63
7
76
80
92
65
125
15
33
51
130
93
40
85
77
121
109
110
64
113
26
88
11
99
97
112
96
128
108
139
13
115
27
72
123
84
46
141
74
57
66
43
71
124
122
49
126
62
14
111
133
79
55
32
36
107
52
145
102
135
29
41
16
30
101
4
56
67
119
87
69
48
50
144
142
73
45
91
10
89
70
86
37
39
24
34
134
78
103
31
83
60
38
53
18
47
58
44
61
23
75
8
19
12
35
94

> <PUBCHEM_MMFF94_PARTIAL_CHARGES>
5
1 0.44
12 -0.2
2 -0.08
3 -0.08
4 -0.08

> <PUBCHEM_EFFECTIVE_ROTOR_COUNT>
7

> <PUBCHEM_PHARMACOPHORE_FEATURES>
2
1 10 hydrophobe
1 11 hydrophobe

> <PUBCHEM_HEAVY_ATOM_COUNT>
11

> <PUBCHEM_ATOM_DEF_STEREO_COUNT>
0

> <PUBCHEM_ATOM_UDEF_STEREO_COUNT>
0

> <PUBCHEM_BOND_DEF_STEREO_COUNT>
0

> <PUBCHEM_BOND_UDEF_STEREO_COUNT>
0

> <PUBCHEM_ISOTOPIC_ATOM_COUNT>
0

> <PUBCHEM_COMPONENT_COUNT>
1

> <PUBCHEM_CACTVS_TAUTO_COUNT>
1

> <PUBCHEM_CONFORMER_ID>
0441D55F00000001

> <PUBCHEM_MMFF94_ENERGY>
-4.8715

> <PUBCHEM_FEATURE_SELFOVERLAP>
10.149

> <PUBCHEM_SHAPE_FINGERPRINT>
1 1 18265329702024821036
12346645 6 18263638644561805989
12841375 25 18337954472026242399
12841375 5 18411707607451794014
13380535 76 17971467661643431977
13533116 47 18271245036797995067
13911882 115 17753910599149800923
14251717 144 18337951310919879977
15279307 12 17984419908787405871
15502722 9 18335984280433552229
20388580 30 18413390912678181391
20645477 70 18335407020298031735
20671657 53 18337392634564348239
20708731 107 18409730694171962561
20711985 344 17617643367946872880
20871998 22 18339355271298969921
20871999 31 18044940069347906623
22213442 358 18338232640136526504
23382010 3 16733564748517109466
23530152 11 17977947117951735972
23532345 88 18340473548013356855
23557571 272 17836346165645777008
23598294 1 17326613596683896160
3060560 45 18119245314193098860
3071541 250 18410581647425978212
366044 4 17975694205879301320
528862 383 18337946904320364101
7364860 26 18411135878601180304
81228 2 17692514629425592568
81539 233 18116427244315831101

> <PUBCHEM_SHAPE_MULTIPOLES>
244.59
6.37
3.72
0.93
8.38
0.18
0.07
4.43
-0.45
-5.39
-0.64
-0.14
-0.01
0.29

> <PUBCHEM_SHAPE_SELFOVERLAP>
418.878

> <PUBCHEM_SHAPE_VOLUME>
163.8

> <PUBCHEM_COORDINATE_TYPE>
2
5
10

$$$$
