140086
  -OEChem-11012401153D

 44 43  0     0  0  0  0  0  0999 V2000
   -3.8901   -0.7396   -0.0034 O   0  0  0  0  0  0  0  0  0  0  0  0
   -2.8349    1.3141    0.0394 O   0  0  0  0  0  0  0  0  0  0  0  0
    2.2055    0.3009    0.0396 C   0  0  0  0  0  0  0  0  0  0  0  0
    3.5052   -0.5072    0.0418 C   0  0  0  0  0  0  0  0  0  0  0  0
    0.9806   -0.6154    0.0326 C   0  0  0  0  0  0  0  0  0  0  0  0
    4.7286    0.4118    0.0163 C   0  0  0  0  0  0  0  0  0  0  0  0
   -0.3173    0.1914   -0.0037 C   0  0  0  0  0  0  0  0  0  0  0  0
    6.0590   -0.3459   -0.0138 C   0  0  0  0  0  0  0  0  0  0  0  0
   -1.5381   -0.7204    0.0229 C   0  0  0  0  0  0  0  0  0  0  0  0
    7.2807    0.5722   -0.0646 C   0  0  0  0  0  0  0  0  0  0  0  0
   -5.1650   -0.0896   -0.0236 C   0  0  0  0  0  0  0  0  0  0  0  0
   -2.8085    0.0903    0.0277 C   0  0  0  0  0  0  0  0  0  0  0  0
   -5.2430    0.7891   -1.2712 C   0  0  0  0  0  0  0  0  0  0  0  0
   -6.2356   -1.1779   -0.0649 C   0  0  0  0  0  0  0  0  0  0  0  0
   -5.3024    0.7514    1.2447 C   0  0  0  0  0  0  0  0  0  0  0  0
    8.5753   -0.2252   -0.0198 C   0  0  0  0  0  0  0  0  0  0  0  0
    2.1747    0.9511    0.9223 H   0  0  0  0  0  0  0  0  0  0  0  0
    2.1803    0.9518   -0.8428 H   0  0  0  0  0  0  0  0  0  0  0  0
    3.5435   -1.1450    0.9330 H   0  0  0  0  0  0  0  0  0  0  0  0
    3.5287   -1.1696   -0.8320 H   0  0  0  0  0  0  0  0  0  0  0  0
    1.0223   -1.2803   -0.8386 H   0  0  0  0  0  0  0  0  0  0  0  0
    0.9952   -1.2515    0.9260 H   0  0  0  0  0  0  0  0  0  0  0  0
    4.6717    1.0642   -0.8640 H   0  0  0  0  0  0  0  0  0  0  0  0
    4.7082    1.0660    0.8967 H   0  0  0  0  0  0  0  0  0  0  0  0
   -0.3382    0.8161   -0.9056 H   0  0  0  0  0  0  0  0  0  0  0  0
   -0.3450    0.8748    0.8546 H   0  0  0  0  0  0  0  0  0  0  0  0
    6.0735   -1.0135   -0.8843 H   0  0  0  0  0  0  0  0  0  0  0  0
    6.1222   -0.9853    0.8756 H   0  0  0  0  0  0  0  0  0  0  0  0
   -1.5248   -1.3425    0.9244 H   0  0  0  0  0  0  0  0  0  0  0  0
   -1.5410   -1.3664   -0.8617 H   0  0  0  0  0  0  0  0  0  0  0  0
    7.2548    1.1740   -0.9802 H   0  0  0  0  0  0  0  0  0  0  0  0
    7.2578    1.2676    0.7825 H   0  0  0  0  0  0  0  0  0  0  0  0
   -4.6826    1.7248   -1.2032 H   0  0  0  0  0  0  0  0  0  0  0  0
   -4.8718    0.2532   -2.1526 H   0  0  0  0  0  0  0  0  0  0  0  0
   -6.2814    1.0809   -1.4689 H   0  0  0  0  0  0  0  0  0  0  0  0
   -6.1506   -1.8395    0.8048 H   0  0  0  0  0  0  0  0  0  0  0  0
   -6.1103   -1.8124   -0.9498 H   0  0  0  0  0  0  0  0  0  0  0  0
   -7.2458   -0.7560   -0.0816 H   0  0  0  0  0  0  0  0  0  0  0  0
   -4.9865    0.1831    2.1274 H   0  0  0  0  0  0  0  0  0  0  0  0
   -4.7262    1.6800    1.2383 H   0  0  0  0  0  0  0  0  0  0  0  0
   -6.3467    1.0508    1.3942 H   0  0  0  0  0  0  0  0  0  0  0  0
    8.6443   -0.8105    0.9027 H   0  0  0  0  0  0  0  0  0  0  0  0
    9.4367    0.4487   -0.0596 H   0  0  0  0  0  0  0  0  0  0  0  0
    8.6420   -0.9125   -0.8693 H   0  0  0  0  0  0  0  0  0  0  0  0
  1 11  1  0  0  0  0
  1 12  1  0  0  0  0
  2 12  2  0  0  0  0
  3  4  1  0  0  0  0
  3  5  1  0  0  0  0
  3 17  1  0  0  0  0
  3 18  1  0  0  0  0
  4  6  1  0  0  0  0
  4 19  1  0  0  0  0
  4 20  1  0  0  0  0
  5  7  1  0  0  0  0
  5 21  1  0  0  0  0
  5 22  1  0  0  0  0
  6  8  1  0  0  0  0
  6 23  1  0  0  0  0
  6 24  1  0  0  0  0
  7  9  1  0  0  0  0
  7 25  1  0  0  0  0
  7 26  1  0  0  0  0
  8 10  1  0  0  0  0
  8 27  1  0  0  0  0
  8 28  1  0  0  0  0
  9 12  1  0  0  0  0
  9 29  1  0  0  0  0
  9 30  1  0  0  0  0
 10 16  1  0  0  0  0
 10 31  1  0  0  0  0
 10 32  1  0  0  0  0
 11 13  1  0  0  0  0
 11 14  1  0  0  0  0
 11 15  1  0  0  0  0
 13 33  1  0  0  0  0
 13 34  1  0  0  0  0
 13 35  1  0  0  0  0
 14 36  1  0  0  0  0
 14 37  1  0  0  0  0
 14 38  1  0  0  0  0
 15 39  1  0  0  0  0
 15 40  1  0  0  0  0
 15 41  1  0  0  0  0
 16 42  1  0  0  0  0
 16 43  1  0  0  0  0
 16 44  1  0  0  0  0
M  END
> <PUBCHEM_COMPOUND_CID>
140086

> <PUBCHEM_CONFORMER_RMSD>
1

> <PUBCHEM_CONFORMER_DIVERSEORDER>
1
54
121
114
108
7
90
167
109
62
23
65
9
179
154
99
142
60
152
36
21
116
144
110
26
57
3
27
124
176
141
178
163
120
82
50
12
180
135
174
159
150
19
122
51
111
59
84
107
148
104
15
103
92
88
10
102
98
133
164
42
28
45
158
89
40
147
48
161
4
34
63
47
166
6
113
112
78
106
32
80
87
136
41
117
16
172
70
14
94
165
138
2
73
145
11
127
126
129
17
38
125
77
134
68
93
52
157
156
119
18
55
33
146
29
61
71
75
118
81
155
67
5
69
149
96
37
162
24
39
85
91
97
86
44
115
143
100
160
128
58
140
8
132
175
35
43
20
56
151
72
25
64
101
171
130
95
22
169
139
123
46
31
76
170
13
30
173
177
131
53
66
83
168
79
105
153
49
74
137

> <PUBCHEM_MMFF94_PARTIAL_CHARGES>
5
1 -0.43
11 0.28
12 0.66
2 -0.57
9 0.06

> <PUBCHEM_EFFECTIVE_ROTOR_COUNT>
10

> <PUBCHEM_PHARMACOPHORE_FEATURES>
3
1 16 hydrophobe
1 2 acceptor
4 11 13 14 15 hydrophobe

> <PUBCHEM_HEAVY_ATOM_COUNT>
16

> <PUBCHEM_ATOM_DEF_STEREO_COUNT>
0

> <PUBCHEM_ATOM_UDEF_STEREO_COUNT>
0

> <PUBCHEM_BOND_DEF_STEREO_COUNT>
0

> <PUBCHEM_BOND_UDEF_STEREO_COUNT>
0

> <PUBCHEM_ISOTOPIC_ATOM_COUNT>
0

> <PUBCHEM_COMPONENT_COUNT>
1

> <PUBCHEM_CACTVS_TAUTO_COUNT>
1

> <PUBCHEM_CONFORMER_ID>
0002233600000001

> <PUBCHEM_MMFF94_ENERGY>
16.5825

> <PUBCHEM_FEATURE_SELFOVERLAP>
15.223

> <PUBCHEM_SHAPE_FINGERPRINT>
10066227 49 18129947768064665558
10968037 39 18409730664054307511
11315181 36 18343022207672044897
12091667 2 17603303756715023683
13288520 33 18412261762187814959
13533116 47 17749098951857002290
14123256 10 18413670214638641582
14251718 22 18407759235400285779
14251764 18 18410011031668096626
14251764 46 18272652355456193287
14729087 3 17822004298675772772
17093844 174 8646771088951673503
17834076 25 17561083609862484378
18006028 8 17561363985454454016
19489759 90 16153425043856544733
20281389 69 18259982678790667580
21315763 28 18410292515287521696
22224240 67 13479134619002686680
23035841 295 12247679370636114684
23402539 116 18334289877576064335
23521765 1 18342176674624506562
23559900 14 18271519896617292968
33684 2 18407476661154631426
3545911 37 18342738524945078250
42788 4 18410573993741385730
54446538 1 18187366536824383332
57583515 80 16443064993245158644
59755656 520 18187359956887337634
8209 1 18408322194624032758

> <PUBCHEM_SHAPE_MULTIPOLES>
317.53
23.39
1
0.81
33.22
0.01
-0.01
0.09
-0.44
-0.98
-0.01
-1.07
0.16
-0.03

> <PUBCHEM_SHAPE_SELFOVERLAP>
589.671

> <PUBCHEM_SHAPE_VOLUME>
201.2

> <PUBCHEM_COORDINATE_TYPE>
2
5
10

$$$$
