5755867
  -OEChem-11012401063D

 34 36  0     0  0  0  0  0  0999 V2000
    2.7507   -1.2632    1.5706 O   0  0  0  0  0  0  0  0  0  0  0  0
   -2.0997    1.0302    0.4651 N   0  0  0  0  0  0  0  0  0  0  0  0
   -1.7919   -0.8396   -0.6965 N   0  0  0  0  0  0  0  0  0  0  0  0
    0.8820    2.6786    1.2452 N   0  0  0  0  0  0  0  0  0  0  0  0
   -3.3551    0.5221    0.2501 C   0  0  0  0  0  0  0  0  0  0  0  0
   -3.1362   -0.6448   -0.4770 C   0  0  0  0  0  0  0  0  0  0  0  0
   -1.2004    0.1820   -0.1187 C   0  0  0  0  0  0  0  0  0  0  0  0
    0.1607    0.5162   -0.0179 C   0  0  0  0  0  0  0  0  0  0  0  0
    2.5593   -0.1265   -0.5377 C   0  0  0  0  0  0  0  0  0  0  0  0
   -4.6246    0.9693    0.6178 C   0  0  0  0  0  0  0  0  0  0  0  0
   -4.2377   -1.4243   -0.8690 C   0  0  0  0  0  0  0  0  0  0  0  0
    1.1008   -0.3133   -0.5550 C   0  0  0  0  0  0  0  0  0  0  0  0
    3.3196   -0.6072    0.5191 C   0  0  0  0  0  0  0  0  0  0  0  0
   -5.7095    0.1811    0.2195 C   0  0  0  0  0  0  0  0  0  0  0  0
   -5.5216   -0.9946   -0.5108 C   0  0  0  0  0  0  0  0  0  0  0  0
    3.1534    0.5396   -1.6008 C   0  0  0  0  0  0  0  0  0  0  0  0
    4.7016   -0.4180    0.5130 C   0  0  0  0  0  0  0  0  0  0  0  0
    4.5354    0.7288   -1.6069 C   0  0  0  0  0  0  0  0  0  0  0  0
    5.3095    0.2501   -0.5500 C   0  0  0  0  0  0  0  0  0  0  0  0
    0.5744    1.7128    0.6800 C   0  0  0  0  0  0  0  0  0  0  0  0
    2.6292   -2.6793    1.4600 C   0  0  0  0  0  0  0  0  0  0  0  0
   -1.9034    1.8845    0.9704 H   0  0  0  0  0  0  0  0  0  0  0  0
   -4.7678    1.8822    1.1847 H   0  0  0  0  0  0  0  0  0  0  0  0
   -4.1021   -2.3394   -1.4366 H   0  0  0  0  0  0  0  0  0  0  0  0
    0.7944   -1.2215   -1.0731 H   0  0  0  0  0  0  0  0  0  0  0  0
   -6.7177    0.4904    0.4837 H   0  0  0  0  0  0  0  0  0  0  0  0
   -6.3844   -1.5861   -0.8062 H   0  0  0  0  0  0  0  0  0  0  0  0
    2.5629    0.9177   -2.4314 H   0  0  0  0  0  0  0  0  0  0  0  0
    5.3114   -0.7872    1.3333 H   0  0  0  0  0  0  0  0  0  0  0  0
    5.0087    1.2489   -2.4346 H   0  0  0  0  0  0  0  0  0  0  0  0
    6.3855    0.3976   -0.5547 H   0  0  0  0  0  0  0  0  0  0  0  0
    2.0307   -2.9546    0.5861 H   0  0  0  0  0  0  0  0  0  0  0  0
    2.1265   -3.0504    2.3573 H   0  0  0  0  0  0  0  0  0  0  0  0
    3.6186   -3.1433    1.3972 H   0  0  0  0  0  0  0  0  0  0  0  0
  1 13  1  0  0  0  0
  1 21  1  0  0  0  0
  2  5  1  0  0  0  0
  2  7  1  0  0  0  0
  2 22  1  0  0  0  0
  3  6  1  0  0  0  0
  3  7  2  0  0  0  0
  4 20  3  0  0  0  0
  5  6  1  0  0  0  0
  5 10  2  0  0  0  0
  6 11  2  0  0  0  0
  7  8  1  0  0  0  0
  8 12  2  0  0  0  0
  8 20  1  0  0  0  0
  9 12  1  0  0  0  0
  9 13  1  0  0  0  0
  9 16  2  0  0  0  0
 10 14  1  0  0  0  0
 10 23  1  0  0  0  0
 11 15  1  0  0  0  0
 11 24  1  0  0  0  0
 12 25  1  0  0  0  0
 13 17  2  0  0  0  0
 14 15  2  0  0  0  0
 14 26  1  0  0  0  0
 15 27  1  0  0  0  0
 16 18  1  0  0  0  0
 16 28  1  0  0  0  0
 17 19  1  0  0  0  0
 17 29  1  0  0  0  0
 18 19  2  0  0  0  0
 18 30  1  0  0  0  0
 19 31  1  0  0  0  0
 21 32  1  0  0  0  0
 21 33  1  0  0  0  0
 21 34  1  0  0  0  0
M  END
> <PUBCHEM_COMPOUND_CID>
5755867

> <PUBCHEM_CONFORMER_RMSD>
0.6

> <PUBCHEM_CONFORMER_DIVERSEORDER>
2
5
8
12
4
13
6
11
9
3
1
10
7

> <PUBCHEM_MMFF94_PARTIAL_CHARGES>
31
1 -0.36
10 -0.15
11 -0.15
12 -0.18
13 0.08
14 -0.15
15 -0.15
16 -0.15
17 -0.15
18 -0.15
19 -0.15
2 0.03
20 0.49
21 0.28
22 0.27
23 0.15
24 0.15
25 0.15
26 0.15
27 0.15
28 0.15
29 0.15
3 -0.57
30 0.15
31 0.15
4 -0.56
5 -0.15
6 0.23
7 0.14
8 0.11
9 0.03

> <PUBCHEM_EFFECTIVE_ROTOR_COUNT>
3

> <PUBCHEM_PHARMACOPHORE_FEATURES>
7
1 1 acceptor
1 2 donor
1 4 acceptor
3 2 3 7 cation
5 2 3 5 6 7 rings
6 5 6 10 11 14 15 rings
6 9 13 16 17 18 19 rings

> <PUBCHEM_HEAVY_ATOM_COUNT>
21

> <PUBCHEM_ATOM_DEF_STEREO_COUNT>
0

> <PUBCHEM_ATOM_UDEF_STEREO_COUNT>
0

> <PUBCHEM_BOND_DEF_STEREO_COUNT>
1

> <PUBCHEM_BOND_UDEF_STEREO_COUNT>
0

> <PUBCHEM_ISOTOPIC_ATOM_COUNT>
0

> <PUBCHEM_COMPONENT_COUNT>
1

> <PUBCHEM_CACTVS_TAUTO_COUNT>
1

> <PUBCHEM_CONFORMER_ID>
0057D3DB00000002

> <PUBCHEM_MMFF94_ENERGY>
61.9605

> <PUBCHEM_FEATURE_SELFOVERLAP>
35.628

> <PUBCHEM_SHAPE_FINGERPRINT>
10090160 65 17894629245193268586
10366900 7 18334295400756242451
11045977 3 14333122005275674783
11578080 2 18190434139753698428
12107183 9 17539965074915689433
12236239 1 18335422352650549606
12553582 1 18201146702790161135
12788726 201 18271251499694997953
13009979 54 17977092475906616610
13167823 11 18334012766027923095
13533116 47 18260263014730711003
13836976 161 17603872213107071798
14251764 18 18410859854982193881
14341114 176 13973969817580711002
14386348 63 16989130850336627895
14573314 32 16056606421521403913
14863182 85 18410004413176877690
15375462 189 18408882910603668698
15537594 2 18410578383678413067
15664445 248 18059583498899525316
15788980 27 17748824107507799829
1601671 61 18059861640348345325
17138139 8 18119513586588515035
17844677 252 14836130952758558091
18222031 100 17703782630977274389
18681886 176 17846779658656294884
19078846 21 18343580711843970761
200 152 17822008700784947548
20281475 54 18335695023065694035
20511986 3 18335969926547133375
20645477 70 17240481382042856778
21033648 29 15625934292790807987
21033650 10 18121529897576472676
21054139 6 18188206619331816046
21267235 1 18059300963329474447
21315763 178 18408036303788075479
21421861 104 18120381947175501066
21623969 137 17386018264507633811
22224240 67 18040430023881843170
2255824 54 18336826519056655453
2297311 6 17561094600230452101
23366157 5 18194956572728018857
23402539 116 18060418010512070213
23536379 177 17458062655863377725
23557571 272 17417823789777057172
23559900 14 17489305317373911009
239999 70 17988925600295931692
300161 21 18334853913892402367
3004659 81 18336268947014309566
335352 9 18131353017023328701
3411729 13 17773301547473038024
34797466 226 16988573454203753212
351380 3 18342174479616909975
4340502 62 17603873320670453658
5104073 3 17916588786424045355
542803 24 18335143093956033103
7164475 11 17970063349224781900
7495541 125 18336269045423815857
8272917 22 17894633617443653886
8863177 126 18121507023256075707
9841814 1 18272923955649190672

> <PUBCHEM_SHAPE_MULTIPOLES>
411.36
12.79
1.83
1.32
7.1
0.27
-0.03
1.71
-2.01
-0.73
0.95
-1.18
0.04
-1.82

> <PUBCHEM_SHAPE_SELFOVERLAP>
907.491

> <PUBCHEM_SHAPE_VOLUME>
221.5

> <PUBCHEM_COORDINATE_TYPE>
2
5
10

$$$$
