7193
  -OEChem-11012401263D

 30 30  0     0  0  0  0  0  0999 V2000
    0.5269   -0.1624    0.0383 O   0  0  0  0  0  0  0  0  0  0  0  0
   -0.1645    1.9437   -0.5822 O   0  0  0  0  0  0  0  0  0  0  0  0
    4.2788   -0.6453    0.2122 C   0  0  0  0  0  0  0  0  0  0  0  0
    2.7743   -0.9543    0.2772 C   0  0  0  0  0  0  0  0  0  0  0  0
    1.8880    0.2345   -0.0744 C   0  0  0  0  0  0  0  0  0  0  0  0
    4.6514   -0.1696   -1.1939 C   0  0  0  0  0  0  0  0  0  0  0  0
    4.7032    0.4030    1.2416 C   0  0  0  0  0  0  0  0  0  0  0  0
   -0.3998    0.7937   -0.2451 C   0  0  0  0  0  0  0  0  0  0  0  0
   -1.7749    0.2558   -0.0894 C   0  0  0  0  0  0  0  0  0  0  0  0
   -2.7882    1.1136    0.2866 C   0  0  0  0  0  0  0  0  0  0  0  0
   -1.9967   -1.0854   -0.3254 C   0  0  0  0  0  0  0  0  0  0  0  0
   -4.0799    0.6080    0.4332 C   0  0  0  0  0  0  0  0  0  0  0  0
   -3.2884   -1.5910   -0.1790 C   0  0  0  0  0  0  0  0  0  0  0  0
   -4.3300   -0.7443    0.2003 C   0  0  0  0  0  0  0  0  0  0  0  0
    4.8221   -1.5750    0.4221 H   0  0  0  0  0  0  0  0  0  0  0  0
    2.5142   -1.3143    1.2810 H   0  0  0  0  0  0  0  0  0  0  0  0
    2.5382   -1.7874   -0.3979 H   0  0  0  0  0  0  0  0  0  0  0  0
    2.0680    1.0692    0.6109 H   0  0  0  0  0  0  0  0  0  0  0  0
    2.0658    0.5647   -1.1028 H   0  0  0  0  0  0  0  0  0  0  0  0
    5.7413   -0.1179   -1.2952 H   0  0  0  0  0  0  0  0  0  0  0  0
    4.2618    0.8290   -1.4154 H   0  0  0  0  0  0  0  0  0  0  0  0
    4.2835   -0.8642   -1.9564 H   0  0  0  0  0  0  0  0  0  0  0  0
    4.2778    1.3888    1.0296 H   0  0  0  0  0  0  0  0  0  0  0  0
    5.7934    0.5110    1.2467 H   0  0  0  0  0  0  0  0  0  0  0  0
    4.3937    0.1054    2.2489 H   0  0  0  0  0  0  0  0  0  0  0  0
   -2.6052    2.1675    0.4740 H   0  0  0  0  0  0  0  0  0  0  0  0
   -1.2063   -1.7627   -0.6346 H   0  0  0  0  0  0  0  0  0  0  0  0
   -4.8908    1.2671    0.7292 H   0  0  0  0  0  0  0  0  0  0  0  0
   -3.4842   -2.6434   -0.3632 H   0  0  0  0  0  0  0  0  0  0  0  0
   -5.3359   -1.1379    0.3138 H   0  0  0  0  0  0  0  0  0  0  0  0
  1  5  1  0  0  0  0
  1  8  1  0  0  0  0
  2  8  2  0  0  0  0
  3  4  1  0  0  0  0
  3  6  1  0  0  0  0
  3  7  1  0  0  0  0
  3 15  1  0  0  0  0
  4  5  1  0  0  0  0
  4 16  1  0  0  0  0
  4 17  1  0  0  0  0
  5 18  1  0  0  0  0
  5 19  1  0  0  0  0
  6 20  1  0  0  0  0
  6 21  1  0  0  0  0
  6 22  1  0  0  0  0
  7 23  1  0  0  0  0
  7 24  1  0  0  0  0
  7 25  1  0  0  0  0
  8  9  1  0  0  0  0
  9 10  2  0  0  0  0
  9 11  1  0  0  0  0
 10 12  1  0  0  0  0
 10 26  1  0  0  0  0
 11 13  2  0  0  0  0
 11 27  1  0  0  0  0
 12 14  2  0  0  0  0
 12 28  1  0  0  0  0
 13 14  1  0  0  0  0
 13 29  1  0  0  0  0
 14 30  1  0  0  0  0
M  END
> <PUBCHEM_COMPOUND_CID>
7193

> <PUBCHEM_CONFORMER_RMSD>
0.6

> <PUBCHEM_CONFORMER_DIVERSEORDER>
1
28
45
40
26
18
44
6
46
14
49
2
42
35
27
17
7
47
39
37
3
30
38
5
48
16
12
25
20
21
4
41
31
11
15
24
19
33
9
13
22
43
32
29
34
10
8
36
23

> <PUBCHEM_MMFF94_PARTIAL_CHARGES>
15
1 -0.43
10 -0.15
11 -0.15
12 -0.15
13 -0.15
14 -0.15
2 -0.57
26 0.15
27 0.15
28 0.15
29 0.15
30 0.15
5 0.28
8 0.63
9 0.09

> <PUBCHEM_EFFECTIVE_ROTOR_COUNT>
5

> <PUBCHEM_PHARMACOPHORE_FEATURES>
3
1 2 acceptor
3 3 6 7 hydrophobe
6 9 10 11 12 13 14 rings

> <PUBCHEM_HEAVY_ATOM_COUNT>
14

> <PUBCHEM_ATOM_DEF_STEREO_COUNT>
0

> <PUBCHEM_ATOM_UDEF_STEREO_COUNT>
0

> <PUBCHEM_BOND_DEF_STEREO_COUNT>
0

> <PUBCHEM_BOND_UDEF_STEREO_COUNT>
0

> <PUBCHEM_ISOTOPIC_ATOM_COUNT>
0

> <PUBCHEM_COMPONENT_COUNT>
1

> <PUBCHEM_CACTVS_TAUTO_COUNT>
1

> <PUBCHEM_CONFORMER_ID>
00001C1900000001

> <PUBCHEM_MMFF94_ENERGY>
31.1704

> <PUBCHEM_FEATURE_SELFOVERLAP>
15.223

> <PUBCHEM_SHAPE_FINGERPRINT>
11046707 91 18409165519625818499
11128504 68 17894926139445197238
11132069 177 18411698777099195190
114248 4 14056723460680818378
12251169 10 18272087205809544961
13675066 3 17632576058870575608
13760787 5 17167582683115898670
14123238 8 16877947143904459982
14252887 29 18202291290321501374
15242433 33 18333454222484087710
15375462 189 18040712550139175834
15536298 74 18341332305117882600
17804303 29 18272373091986655033
17834072 33 18335424607582259060
18186145 218 11169907264994279118
19050596 39 18261107461689157970
200 152 16588297272571563048
20281475 54 18335700516450184902
204376 136 15267341837971035812
20828058 44 18342455932875937618
21267235 1 18337682987549839011
22485316 2 18408318865407284394
22646028 1 17749387061930320018
2297311 6 18130802143568209004
23402539 116 17603579708300468796
23532345 42 18410853287175487816
23557571 272 18341059506196552524
23559900 14 18202278125951398808
2838139 119 13685465547702680451
449060 50 17418373605878138706
573450 72 18260820462872788954
77779 3 18272933817110061330
90127 26 16988848259037704832

> <PUBCHEM_SHAPE_MULTIPOLES>
276.37
10.64
1.41
0.89
7.01
0.09
0
-1.73
1.24
-1
-0.11
0.95
0.07
0.03

> <PUBCHEM_SHAPE_SELFOVERLAP>
558.307

> <PUBCHEM_SHAPE_VOLUME>
162

> <PUBCHEM_COORDINATE_TYPE>
2
5
10

$$$$
