142023
  -OEChem-11012401213D

 41 40  0     0  0  0  0  0  0999 V2000
    0.0035   -0.0060    0.4023 C   0  0  0  0  0  0  0  0  0  0  0  0
   -0.4059    1.5445    0.0330 C   0  0  0  0  0  0  0  0  0  0  0  0
   -1.1302   -1.1474    0.0555 C   0  0  0  0  0  0  0  0  0  0  0  0
    1.5629   -0.4281    0.0888 C   0  0  0  0  0  0  0  0  0  0  0  0
    0.5684    2.6106    0.5929 C   0  0  0  0  0  0  0  0  0  0  0  0
   -0.5103    1.8148   -1.4809 C   0  0  0  0  0  0  0  0  0  0  0  0
   -1.7581    1.9492    0.6958 C   0  0  0  0  0  0  0  0  0  0  0  0
   -2.2398   -1.1980    1.1499 C   0  0  0  0  0  0  0  0  0  0  0  0
   -1.9464   -0.8634   -1.2299 C   0  0  0  0  0  0  0  0  0  0  0  0
   -0.5513   -2.5663   -0.1112 C   0  0  0  0  0  0  0  0  0  0  0  0
    2.1949   -1.3197    1.1760 C   0  0  0  0  0  0  0  0  0  0  0  0
    2.5234    0.7735   -0.0919 C   0  0  0  0  0  0  0  0  0  0  0  0
    1.6890   -1.1637   -1.2803 C   0  0  0  0  0  0  0  0  0  0  0  0
    0.0025    0.0181    1.5042 H   0  0  0  0  0  0  0  0  0  0  0  0
    1.3833    2.8913   -0.0747 H   0  0  0  0  0  0  0  0  0  0  0  0
    0.0605    3.5725    0.7502 H   0  0  0  0  0  0  0  0  0  0  0  0
    0.9432    2.3254    1.5815 H   0  0  0  0  0  0  0  0  0  0  0  0
   -0.4205    2.8884   -1.6922 H   0  0  0  0  0  0  0  0  0  0  0  0
    0.2822    1.3166   -2.0435 H   0  0  0  0  0  0  0  0  0  0  0  0
   -1.4703    1.5297   -1.9119 H   0  0  0  0  0  0  0  0  0  0  0  0
   -1.9553    3.0236    0.5899 H   0  0  0  0  0  0  0  0  0  0  0  0
   -2.6206    1.4738    0.2320 H   0  0  0  0  0  0  0  0  0  0  0  0
   -1.7535    1.7231    1.7675 H   0  0  0  0  0  0  0  0  0  0  0  0
   -2.9439   -2.0183    0.9627 H   0  0  0  0  0  0  0  0  0  0  0  0
   -1.7880   -1.3853    2.1308 H   0  0  0  0  0  0  0  0  0  0  0  0
   -2.8401   -0.2944    1.2314 H   0  0  0  0  0  0  0  0  0  0  0  0
   -2.6392   -0.0270   -1.1431 H   0  0  0  0  0  0  0  0  0  0  0  0
   -1.2986   -0.7118   -2.0966 H   0  0  0  0  0  0  0  0  0  0  0  0
   -2.5783   -1.7270   -1.4793 H   0  0  0  0  0  0  0  0  0  0  0  0
   -1.3827   -3.2879   -0.1077 H   0  0  0  0  0  0  0  0  0  0  0  0
    0.0547   -2.8863    0.7296 H   0  0  0  0  0  0  0  0  0  0  0  0
   -0.0850   -2.7594   -1.0737 H   0  0  0  0  0  0  0  0  0  0  0  0
    3.2632   -1.4782    0.9821 H   0  0  0  0  0  0  0  0  0  0  0  0
    2.1170   -0.8357    2.1562 H   0  0  0  0  0  0  0  0  0  0  0  0
    1.7654   -2.3128    1.2673 H   0  0  0  0  0  0  0  0  0  0  0  0
    2.2814    1.3863   -0.9620 H   0  0  0  0  0  0  0  0  0  0  0  0
    3.5429    0.4123   -0.2954 H   0  0  0  0  0  0  0  0  0  0  0  0
    2.6426    1.3515    0.8263 H   0  0  0  0  0  0  0  0  0  0  0  0
    2.6052   -0.8785   -1.8148 H   0  0  0  0  0  0  0  0  0  0  0  0
    1.7960   -2.2456   -1.1638 H   0  0  0  0  0  0  0  0  0  0  0  0
    0.8744   -0.9278   -1.9658 H   0  0  0  0  0  0  0  0  0  0  0  0
  1  2  1  0  0  0  0
  1  3  1  0  0  0  0
  1  4  1  0  0  0  0
  1 14  1  0  0  0  0
  2  5  1  0  0  0  0
  2  6  1  0  0  0  0
  2  7  1  0  0  0  0
  3  8  1  0  0  0  0
  3  9  1  0  0  0  0
  3 10  1  0  0  0  0
  4 11  1  0  0  0  0
  4 12  1  0  0  0  0
  4 13  1  0  0  0  0
  5 15  1  0  0  0  0
  5 16  1  0  0  0  0
  5 17  1  0  0  0  0
  6 18  1  0  0  0  0
  6 19  1  0  0  0  0
  6 20  1  0  0  0  0
  7 21  1  0  0  0  0
  7 22  1  0  0  0  0
  7 23  1  0  0  0  0
  8 24  1  0  0  0  0
  8 25  1  0  0  0  0
  8 26  1  0  0  0  0
  9 27  1  0  0  0  0
  9 28  1  0  0  0  0
  9 29  1  0  0  0  0
 10 30  1  0  0  0  0
 10 31  1  0  0  0  0
 10 32  1  0  0  0  0
 11 33  1  0  0  0  0
 11 34  1  0  0  0  0
 11 35  1  0  0  0  0
 12 36  1  0  0  0  0
 12 37  1  0  0  0  0
 12 38  1  0  0  0  0
 13 39  1  0  0  0  0
 13 40  1  0  0  0  0
 13 41  1  0  0  0  0
M  END
> <PUBCHEM_COMPOUND_CID>
142023

> <PUBCHEM_CONFORMER_RMSD>
0.6

> <PUBCHEM_CONFORMER_DIVERSEORDER>
1

> <PUBCHEM_MMFF94_PARTIAL_CHARGES>
0

> <PUBCHEM_EFFECTIVE_ROTOR_COUNT>
3

> <PUBCHEM_PHARMACOPHORE_FEATURES>
4
4 1 2 3 4 hydrophobe
4 2 5 6 7 hydrophobe
4 3 8 9 10 hydrophobe
4 4 11 12 13 hydrophobe

> <PUBCHEM_HEAVY_ATOM_COUNT>
13

> <PUBCHEM_ATOM_DEF_STEREO_COUNT>
0

> <PUBCHEM_ATOM_UDEF_STEREO_COUNT>
0

> <PUBCHEM_BOND_DEF_STEREO_COUNT>
0

> <PUBCHEM_BOND_UDEF_STEREO_COUNT>
0

> <PUBCHEM_ISOTOPIC_ATOM_COUNT>
0

> <PUBCHEM_COMPONENT_COUNT>
1

> <PUBCHEM_CACTVS_TAUTO_COUNT>
1

> <PUBCHEM_CONFORMER_ID>
00022AC700000001

> <PUBCHEM_MMFF94_ENERGY>
103.1239

> <PUBCHEM_FEATURE_SELFOVERLAP>
20.728

> <PUBCHEM_SHAPE_FINGERPRINT>
11086676 242 18336559281943692537
11129358 1 9431329787829627557
12423570 1 10867785693159905103
12524768 44 18270124637631064774
14251711 518 18266178520474219450
14817 1 9349988239745143637
15775835 57 17825961316543790284
15881359 60 17972874761664947713
16945 1 18197500833922691448
20511035 2 16392394764298910348
20525323 117 18342731936259466032
20711985 344 18267315248056847358
21922407 69 16083659875195126838
22802520 49 17985569761568726126
2334 1 18411421695831856408
23419403 2 16836219621094825529
23559900 14 17407687212679057758
23598294 1 18337390448747806962
2748010 2 18340495464841103752
353137 74 18261679284839401420
430814 3 17396461258344071276
5084963 1 17035305678705920877
528862 383 17474666625340453331
54276843 12 17827397467397120374
54338 74 18338780278215163027
63268167 104 17475789226717492432
66348 1 18338512061807620384
81228 2 18411134693200541987

> <PUBCHEM_SHAPE_MULTIPOLES>
267.53
2.98
2.94
1.31
0.74
0.81
-0.27
-0.75
0.37
-0.56
0.17
-0.14
-0.06
-0.03

> <PUBCHEM_SHAPE_SELFOVERLAP>
495.434

> <PUBCHEM_SHAPE_VOLUME>
174.6

> <PUBCHEM_COORDINATE_TYPE>
2
5
10

$$$$
