11918
  -OEChem-11012400383D

 28 29  0     0  0  0  0  0  0999 V2000
    0.0272   -1.2528    0.3129 C   0  0  0  0  0  0  0  0  0  0  0  0
   -1.2356   -0.4666    0.2030 C   0  0  0  0  0  0  0  0  0  0  0  0
    1.2844   -0.3971    0.1159 C   0  0  0  0  0  0  0  0  0  0  0  0
    0.0783   -2.5293   -0.5646 C   0  0  0  0  0  0  0  0  0  0  0  0
   -1.6932    0.2741    1.2927 C   0  0  0  0  0  0  0  0  0  0  0  0
    2.3676   -0.6266    0.9301 C   0  0  0  0  0  0  0  0  0  0  0  0
   -1.9592   -0.4724   -0.9895 C   0  0  0  0  0  0  0  0  0  0  0  0
    1.2758    0.5642   -0.8663 C   0  0  0  0  0  0  0  0  0  0  0  0
   -2.8743    1.0091    1.1902 C   0  0  0  0  0  0  0  0  0  0  0  0
    3.5111    0.1521    0.7514 C   0  0  0  0  0  0  0  0  0  0  0  0
   -3.1403    0.2626   -1.0922 C   0  0  0  0  0  0  0  0  0  0  0  0
    2.4193    1.3427   -1.0451 C   0  0  0  0  0  0  0  0  0  0  0  0
   -3.5978    1.0033   -0.0022 C   0  0  0  0  0  0  0  0  0  0  0  0
    3.5369    1.1367   -0.2363 C   0  0  0  0  0  0  0  0  0  0  0  0
    0.0501   -1.6302    1.3473 H   0  0  0  0  0  0  0  0  0  0  0  0
    0.1848   -2.2944   -1.6295 H   0  0  0  0  0  0  0  0  0  0  0  0
   -0.8215   -3.1396   -0.4298 H   0  0  0  0  0  0  0  0  0  0  0  0
    0.9431   -3.1444   -0.2895 H   0  0  0  0  0  0  0  0  0  0  0  0
   -1.1391    0.2892    2.2277 H   0  0  0  0  0  0  0  0  0  0  0  0
    2.3562   -1.3924    1.6992 H   0  0  0  0  0  0  0  0  0  0  0  0
   -1.6296   -1.0253   -1.8632 H   0  0  0  0  0  0  0  0  0  0  0  0
    0.4342    0.7367   -1.5265 H   0  0  0  0  0  0  0  0  0  0  0  0
   -3.2302    1.5863    2.0385 H   0  0  0  0  0  0  0  0  0  0  0  0
    4.3816   -0.0090    1.3805 H   0  0  0  0  0  0  0  0  0  0  0  0
   -3.7025    0.2611   -2.0215 H   0  0  0  0  0  0  0  0  0  0  0  0
    2.4417    2.1060   -1.8175 H   0  0  0  0  0  0  0  0  0  0  0  0
   -4.5169    1.5763   -0.0825 H   0  0  0  0  0  0  0  0  0  0  0  0
    4.4277    1.7420   -0.3766 H   0  0  0  0  0  0  0  0  0  0  0  0
  1  2  1  0  0  0  0
  1  3  1  0  0  0  0
  1  4  1  0  0  0  0
  1 15  1  0  0  0  0
  2  5  2  0  0  0  0
  2  7  1  0  0  0  0
  3  6  2  0  0  0  0
  3  8  1  0  0  0  0
  4 16  1  0  0  0  0
  4 17  1  0  0  0  0
  4 18  1  0  0  0  0
  5  9  1  0  0  0  0
  5 19  1  0  0  0  0
  6 10  1  0  0  0  0
  6 20  1  0  0  0  0
  7 11  2  0  0  0  0
  7 21  1  0  0  0  0
  8 12  2  0  0  0  0
  8 22  1  0  0  0  0
  9 13  2  0  0  0  0
  9 23  1  0  0  0  0
 10 14  2  0  0  0  0
 10 24  1  0  0  0  0
 11 13  1  0  0  0  0
 11 25  1  0  0  0  0
 12 14  1  0  0  0  0
 12 26  1  0  0  0  0
 13 27  1  0  0  0  0
 14 28  1  0  0  0  0
M  END
> <PUBCHEM_COMPOUND_CID>
11918

> <PUBCHEM_CONFORMER_RMSD>
0.6

> <PUBCHEM_CONFORMER_DIVERSEORDER>
1
2

> <PUBCHEM_MMFF94_PARTIAL_CHARGES>
23
1 0.29
10 -0.15
11 -0.15
12 -0.15
13 -0.15
14 -0.15
19 0.15
2 -0.14
20 0.15
21 0.15
22 0.15
23 0.15
24 0.15
25 0.15
26 0.15
27 0.15
28 0.15
3 -0.14
5 -0.15
6 -0.15
7 -0.15
8 -0.15
9 -0.15

> <PUBCHEM_EFFECTIVE_ROTOR_COUNT>
2

> <PUBCHEM_PHARMACOPHORE_FEATURES>
3
1 4 hydrophobe
6 2 5 7 9 11 13 rings
6 3 6 8 10 12 14 rings

> <PUBCHEM_HEAVY_ATOM_COUNT>
14

> <PUBCHEM_ATOM_DEF_STEREO_COUNT>
0

> <PUBCHEM_ATOM_UDEF_STEREO_COUNT>
0

> <PUBCHEM_BOND_DEF_STEREO_COUNT>
0

> <PUBCHEM_BOND_UDEF_STEREO_COUNT>
0

> <PUBCHEM_ISOTOPIC_ATOM_COUNT>
0

> <PUBCHEM_COMPONENT_COUNT>
1

> <PUBCHEM_CACTVS_TAUTO_COUNT>
1

> <PUBCHEM_CONFORMER_ID>
00002E8E00000001

> <PUBCHEM_MMFF94_ENERGY>
43.1886

> <PUBCHEM_FEATURE_SELFOVERLAP>
15.223

> <PUBCHEM_SHAPE_FINGERPRINT>
10465860 228 18197506120943062841
10618630 7 9223242844486698400
11640471 11 18342736295376990849
12251169 10 17022911172015463433
124424 183 16588295060299506116
12491281 212 18410858806245289176
12696612 119 16950576513784532084
12897270 3 15123791781612787880
13299463 15 14189579632513562703
13705890 14 13973965402691817448
13764800 53 18271260403336087179
15309172 13 18260830397100651606
15653759 3 15719111348766092037
15775835 57 18409447002923639885
16945 1 17894627020173167282
17357990 137 18410867555088604096
17804303 29 14851886898317904699
17844478 74 15936403442586234284
18186145 218 18343590615969665260
19049666 15 16010415864965983355
19107657 47 17749380451617117737
19107657 9 18340779186043804569
20645464 45 16950285083537781193
20871999 31 16128360593975160605
21524375 3 18409448102509159603
21713013 43 13686293591168920173
22169311 14 16008745796971513049
22802520 49 14979688649784483881
23184049 59 18260541187278211586
23402539 116 17489579065604222800
23557571 272 16271915069384892971
23559900 14 15913329061949342278
305870 269 18270684160147738878
474 4 18410014295352618169
7364860 26 17630048148252161823
74978 22 18339926047089057820
77492 1 18271799103745756327
81228 2 17836934768732741898
83771 10 9799691514893968519

> <PUBCHEM_SHAPE_MULTIPOLES>
288.11
6.25
1.66
1.26
0.26
0.89
-0.06
-3.06
-0.25
0.25
0.3
-0.34
-0.16
-0.7

> <PUBCHEM_SHAPE_SELFOVERLAP>
617.354

> <PUBCHEM_SHAPE_VOLUME>
151.6

> <PUBCHEM_COORDINATE_TYPE>
2
5
10

$$$$
