96041
  -OEChem-11012401013D

 46 49  0     0  0  0  0  0  0999 V2000
    0.7076   -0.0201   -0.0087 N   0  0  0  0  0  0  0  0  0  0  0  0
   -0.7309    0.0116   -0.0089 N   0  0  0  0  0  0  0  0  0  0  0  0
    1.4134    0.6925   -1.0491 C   0  0  0  0  0  0  0  0  0  0  0  0
    1.3595   -0.7902    1.0257 C   0  0  0  0  0  0  0  0  0  0  0  0
   -1.4424   -0.9811   -0.7144 C   0  0  0  0  0  0  0  0  0  0  0  0
   -1.3422    1.1070    0.7472 C   0  0  0  0  0  0  0  0  0  0  0  0
    2.6715    1.1853   -0.7792 C   0  0  0  0  0  0  0  0  0  0  0  0
    2.5692   -1.3875    0.7450 C   0  0  0  0  0  0  0  0  0  0  0  0
   -2.6895   -0.6869   -1.2656 C   0  0  0  0  0  0  0  0  0  0  0  0
   -2.5691    0.8913    1.3140 C   0  0  0  0  0  0  0  0  0  0  0  0
    0.8022    0.8538   -2.2736 C   0  0  0  0  0  0  0  0  0  0  0  0
    0.7477   -0.8997    2.2555 C   0  0  0  0  0  0  0  0  0  0  0  0
   -0.8988   -2.2574   -0.8607 C   0  0  0  0  0  0  0  0  0  0  0  0
   -0.6522    2.2850    0.8443 C   0  0  0  0  0  0  0  0  0  0  0  0
    3.3522    1.8737   -1.7834 C   0  0  0  0  0  0  0  0  0  0  0  0
    3.1980   -2.1314    1.7433 C   0  0  0  0  0  0  0  0  0  0  0  0
   -3.3933   -1.6690   -1.9626 C   0  0  0  0  0  0  0  0  0  0  0  0
   -3.1514    1.9348    2.0336 C   0  0  0  0  0  0  0  0  0  0  0  0
    1.4830    1.5421   -3.2777 C   0  0  0  0  0  0  0  0  0  0  0  0
    1.3766   -1.6435    3.2539 C   0  0  0  0  0  0  0  0  0  0  0  0
   -1.6025   -3.2394   -1.5579 C   0  0  0  0  0  0  0  0  0  0  0  0
   -1.2345    3.3283    1.5640 C   0  0  0  0  0  0  0  0  0  0  0  0
    2.7581    2.0520   -3.0325 C   0  0  0  0  0  0  0  0  0  0  0  0
    2.6018   -2.2594    2.9978 C   0  0  0  0  0  0  0  0  0  0  0  0
   -2.8497   -2.9452   -2.1088 C   0  0  0  0  0  0  0  0  0  0  0  0
   -2.4841    3.1532    2.1586 C   0  0  0  0  0  0  0  0  0  0  0  0
    3.1435    1.1157    0.1953 H   0  0  0  0  0  0  0  0  0  0  0  0
    3.0368   -1.3577   -0.2336 H   0  0  0  0  0  0  0  0  0  0  0  0
   -3.1256    0.3069   -1.2176 H   0  0  0  0  0  0  0  0  0  0  0  0
   -3.0914   -0.0584    1.2788 H   0  0  0  0  0  0  0  0  0  0  0  0
   -0.1814    0.4709   -2.5132 H   0  0  0  0  0  0  0  0  0  0  0  0
   -0.1970   -0.4362    2.5065 H   0  0  0  0  0  0  0  0  0  0  0  0
    0.0624   -2.5395   -0.4480 H   0  0  0  0  0  0  0  0  0  0  0  0
    0.3115    2.4799    0.3969 H   0  0  0  0  0  0  0  0  0  0  0  0
    4.3397    2.2820   -1.5890 H   0  0  0  0  0  0  0  0  0  0  0  0
    4.1456   -2.6219    1.5404 H   0  0  0  0  0  0  0  0  0  0  0  0
   -4.3593   -1.4372   -2.4016 H   0  0  0  0  0  0  0  0  0  0  0  0
   -4.1191    1.7950    2.5065 H   0  0  0  0  0  0  0  0  0  0  0  0
    1.0214    1.6807   -4.2510 H   0  0  0  0  0  0  0  0  0  0  0  0
    0.9135   -1.7428    4.2313 H   0  0  0  0  0  0  0  0  0  0  0  0
   -1.1801   -4.2336   -1.6717 H   0  0  0  0  0  0  0  0  0  0  0  0
   -0.7163    4.2780    1.6605 H   0  0  0  0  0  0  0  0  0  0  0  0
    3.2870    2.5903   -3.8136 H   0  0  0  0  0  0  0  0  0  0  0  0
    3.0901   -2.8408    3.7744 H   0  0  0  0  0  0  0  0  0  0  0  0
   -3.3964   -3.7092   -2.6537 H   0  0  0  0  0  0  0  0  0  0  0  0
   -2.9364    3.9649    2.7209 H   0  0  0  0  0  0  0  0  0  0  0  0
  1  2  1  0  0  0  0
  1  3  1  0  0  0  0
  1  4  1  0  0  0  0
  2  5  1  0  0  0  0
  2  6  1  0  0  0  0
  3  7  2  0  0  0  0
  3 11  1  0  0  0  0
  4  8  2  0  0  0  0
  4 12  1  0  0  0  0
  5  9  2  0  0  0  0
  5 13  1  0  0  0  0
  6 10  2  0  0  0  0
  6 14  1  0  0  0  0
  7 15  1  0  0  0  0
  7 27  1  0  0  0  0
  8 16  1  0  0  0  0
  8 28  1  0  0  0  0
  9 17  1  0  0  0  0
  9 29  1  0  0  0  0
 10 18  1  0  0  0  0
 10 30  1  0  0  0  0
 11 19  2  0  0  0  0
 11 31  1  0  0  0  0
 12 20  2  0  0  0  0
 12 32  1  0  0  0  0
 13 21  2  0  0  0  0
 13 33  1  0  0  0  0
 14 22  2  0  0  0  0
 14 34  1  0  0  0  0
 15 23  2  0  0  0  0
 15 35  1  0  0  0  0
 16 24  2  0  0  0  0
 16 36  1  0  0  0  0
 17 25  2  0  0  0  0
 17 37  1  0  0  0  0
 18 26  2  0  0  0  0
 18 38  1  0  0  0  0
 19 23  1  0  0  0  0
 19 39  1  0  0  0  0
 20 24  1  0  0  0  0
 20 40  1  0  0  0  0
 21 25  1  0  0  0  0
 21 41  1  0  0  0  0
 22 26  1  0  0  0  0
 22 42  1  0  0  0  0
 23 43  1  0  0  0  0
 24 44  1  0  0  0  0
 25 45  1  0  0  0  0
 26 46  1  0  0  0  0
M  END
> <PUBCHEM_COMPOUND_CID>
96041

> <PUBCHEM_CONFORMER_RMSD>
0.8

> <PUBCHEM_CONFORMER_DIVERSEORDER>
1
4
3
2

> <PUBCHEM_MMFF94_PARTIAL_CHARGES>
46
1 -0.2
10 -0.15
11 -0.15
12 -0.15
13 -0.15
14 -0.15
15 -0.15
16 -0.15
17 -0.15
18 -0.15
19 -0.15
2 -0.2
20 -0.15
21 -0.15
22 -0.15
23 -0.15
24 -0.15
25 -0.15
26 -0.15
27 0.15
28 0.15
29 0.15
3 0.1
30 0.15
31 0.15
32 0.15
33 0.15
34 0.15
35 0.15
36 0.15
37 0.15
38 0.15
39 0.15
4 0.1
40 0.15
41 0.15
42 0.15
43 0.15
44 0.15
45 0.15
46 0.15
5 0.1
6 0.1
7 -0.15
8 -0.15
9 -0.15

> <PUBCHEM_EFFECTIVE_ROTOR_COUNT>
5

> <PUBCHEM_PHARMACOPHORE_FEATURES>
4
6 3 7 11 15 19 23 rings
6 4 8 12 16 20 24 rings
6 5 9 13 17 21 25 rings
6 6 10 14 18 22 26 rings

> <PUBCHEM_HEAVY_ATOM_COUNT>
26

> <PUBCHEM_ATOM_DEF_STEREO_COUNT>
0

> <PUBCHEM_ATOM_UDEF_STEREO_COUNT>
0

> <PUBCHEM_BOND_DEF_STEREO_COUNT>
0

> <PUBCHEM_BOND_UDEF_STEREO_COUNT>
0

> <PUBCHEM_ISOTOPIC_ATOM_COUNT>
0

> <PUBCHEM_COMPONENT_COUNT>
1

> <PUBCHEM_CACTVS_TAUTO_COUNT>
1

> <PUBCHEM_CONFORMER_ID>
0001772900000001

> <PUBCHEM_MMFF94_ENERGY>
114.3673

> <PUBCHEM_FEATURE_SELFOVERLAP>
20.3

> <PUBCHEM_SHAPE_FINGERPRINT>
10165383 225 16012741448518888294
107951 10 13480511262588141796
11421498 54 18044381758418360515
11445158 3 10150924684659535983
11578080 2 15553343572915049811
12082328 90 14010795074270301097
12788726 201 15871355003210195080
133893 2 15754623689069275156
13911987 19 10126428369622079497
14022347 108 11132138576966792764
14817 1 11447972986595874289
14856354 85 11892752765473801116
14863182 85 8017617770436410112
20600515 1 10274652732971077750
20602899 9 16321960174273381410
21330990 113 8064751265798164344
21524375 3 12380338549609682122
23419403 2 13555712519874365399
238 59 16879054420785829558
25222932 49 13678209827363766635
298252 57 17767732383037680253
497634 4 17908664455704174842
57527585 103 17035597560621271420
59755656 520 11412414377291370841
9981440 41 12577532373912852323

> <PUBCHEM_SHAPE_MULTIPOLES>
525.11
5.25
4.09
4.02
0.03
0.18
0.03
-0.34
0.62
1.79
-0.5
-1.76
0.03
-6.51

> <PUBCHEM_SHAPE_SELFOVERLAP>
1159.347

> <PUBCHEM_SHAPE_VOLUME>
279.4

> <PUBCHEM_COORDINATE_TYPE>
2
5
10

$$$$
