142075
  -OEChem-11012400333D

 48 50  0     0  0  0  0  0  0999 V2000
    4.5627   -2.1892   -1.1786 O   0  0  0  0  0  0  0  0  0  0  0  0
   -4.5618   -2.1897    1.1780 O   0  0  0  0  0  0  0  0  0  0  0  0
    3.3511    2.2582    0.9743 O   0  0  0  0  0  0  0  0  0  0  0  0
   -3.3517    2.2585   -0.9740 O   0  0  0  0  0  0  0  0  0  0  0  0
    3.5067    0.1773   -0.0985 N   0  0  0  0  0  0  0  0  0  0  0  0
   -3.5067    0.1772    0.0980 N   0  0  0  0  0  0  0  0  0  0  0  0
    1.3820    1.3014    0.1877 C   0  0  0  0  0  0  0  0  0  0  0  0
   -1.3822    1.3014   -0.1891 C   0  0  0  0  0  0  0  0  0  0  0  0
    0.6911    0.0935    0.0931 C   0  0  0  0  0  0  0  0  0  0  0  0
   -0.6910    0.0934   -0.0953 C   0  0  0  0  0  0  0  0  0  0  0  0
    0.6909    2.5093    0.0939 C   0  0  0  0  0  0  0  0  0  0  0  0
   -0.6913    2.5094   -0.0944 C   0  0  0  0  0  0  0  0  0  0  0  0
    4.8923   -0.1095   -0.0291 C   0  0  0  0  0  0  0  0  0  0  0  0
   -4.8923   -0.1096    0.0294 C   0  0  0  0  0  0  0  0  0  0  0  0
    2.8227    1.3012    0.3853 C   0  0  0  0  0  0  0  0  0  0  0  0
   -2.8227    1.3013   -0.3858 C   0  0  0  0  0  0  0  0  0  0  0  0
    5.3831   -1.2851   -0.5720 C   0  0  0  0  0  0  0  0  0  0  0  0
   -5.3826   -1.2854    0.5723 C   0  0  0  0  0  0  0  0  0  0  0  0
    5.7295    0.8062    0.5871 C   0  0  0  0  0  0  0  0  0  0  0  0
   -5.7299    0.8062   -0.5860 C   0  0  0  0  0  0  0  0  0  0  0  0
    6.7499   -1.5532   -0.4967 C   0  0  0  0  0  0  0  0  0  0  0  0
   -6.7495   -1.5535    0.4976 C   0  0  0  0  0  0  0  0  0  0  0  0
    7.0964    0.5379    0.6625 C   0  0  0  0  0  0  0  0  0  0  0  0
   -7.0968    0.5380   -0.6605 C   0  0  0  0  0  0  0  0  0  0  0  0
    7.6065   -0.6417    0.1207 C   0  0  0  0  0  0  0  0  0  0  0  0
   -7.6066   -0.6419   -0.1188 C   0  0  0  0  0  0  0  0  0  0  0  0
    3.9975   -3.2056   -0.3537 C   0  0  0  0  0  0  0  0  0  0  0  0
   -3.9972   -3.2058    0.3524 C   0  0  0  0  0  0  0  0  0  0  0  0
    1.1803   -0.8712    0.1906 H   0  0  0  0  0  0  0  0  0  0  0  0
   -1.1802   -0.8712   -0.1932 H   0  0  0  0  0  0  0  0  0  0  0  0
    1.2107    3.4615    0.1611 H   0  0  0  0  0  0  0  0  0  0  0  0
   -1.2111    3.4616   -0.1608 H   0  0  0  0  0  0  0  0  0  0  0  0
    2.9777   -0.5259   -0.6068 H   0  0  0  0  0  0  0  0  0  0  0  0
   -2.9773   -0.5262    0.6058 H   0  0  0  0  0  0  0  0  0  0  0  0
    5.4189    1.7396    1.0306 H   0  0  0  0  0  0  0  0  0  0  0  0
   -5.4196    1.7397   -1.0294 H   0  0  0  0  0  0  0  0  0  0  0  0
    7.1548   -2.4698   -0.9172 H   0  0  0  0  0  0  0  0  0  0  0  0
   -7.1541   -2.4703    0.9179 H   0  0  0  0  0  0  0  0  0  0  0  0
    7.7648    1.2466    1.1429 H   0  0  0  0  0  0  0  0  0  0  0  0
   -7.7654    1.2470   -1.1402 H   0  0  0  0  0  0  0  0  0  0  0  0
    8.6707   -0.8505    0.1793 H   0  0  0  0  0  0  0  0  0  0  0  0
   -8.6708   -0.8506   -0.1768 H   0  0  0  0  0  0  0  0  0  0  0  0
    3.4109   -2.7671    0.4597 H   0  0  0  0  0  0  0  0  0  0  0  0
    3.3345   -3.8180   -0.9710 H   0  0  0  0  0  0  0  0  0  0  0  0
    4.7850   -3.8463    0.0555 H   0  0  0  0  0  0  0  0  0  0  0  0
   -3.3337   -3.8184    0.9688 H   0  0  0  0  0  0  0  0  0  0  0  0
   -4.7851   -3.8464   -0.0564 H   0  0  0  0  0  0  0  0  0  0  0  0
   -3.4113   -2.7671   -0.4614 H   0  0  0  0  0  0  0  0  0  0  0  0
  1 17  1  0  0  0  0
  1 27  1  0  0  0  0
  2 18  1  0  0  0  0
  2 28  1  0  0  0  0
  3 15  2  0  0  0  0
  4 16  2  0  0  0  0
  5 13  1  0  0  0  0
  5 15  1  0  0  0  0
  5 33  1  0  0  0  0
  6 14  1  0  0  0  0
  6 16  1  0  0  0  0
  6 34  1  0  0  0  0
  7  9  2  0  0  0  0
  7 11  1  0  0  0  0
  7 15  1  0  0  0  0
  8 10  2  0  0  0  0
  8 12  1  0  0  0  0
  8 16  1  0  0  0  0
  9 10  1  0  0  0  0
  9 29  1  0  0  0  0
 10 30  1  0  0  0  0
 11 12  2  0  0  0  0
 11 31  1  0  0  0  0
 12 32  1  0  0  0  0
 13 17  1  0  0  0  0
 13 19  2  0  0  0  0
 14 18  1  0  0  0  0
 14 20  2  0  0  0  0
 17 21  2  0  0  0  0
 18 22  2  0  0  0  0
 19 23  1  0  0  0  0
 19 35  1  0  0  0  0
 20 24  1  0  0  0  0
 20 36  1  0  0  0  0
 21 25  1  0  0  0  0
 21 37  1  0  0  0  0
 22 26  1  0  0  0  0
 22 38  1  0  0  0  0
 23 25  2  0  0  0  0
 23 39  1  0  0  0  0
 24 26  2  0  0  0  0
 24 40  1  0  0  0  0
 25 41  1  0  0  0  0
 26 42  1  0  0  0  0
 27 43  1  0  0  0  0
 27 44  1  0  0  0  0
 27 45  1  0  0  0  0
 28 46  1  0  0  0  0
 28 47  1  0  0  0  0
 28 48  1  0  0  0  0
M  END
> <PUBCHEM_COMPOUND_CID>
142075

> <PUBCHEM_CONFORMER_RMSD>
1

> <PUBCHEM_CONFORMER_DIVERSEORDER>
1
13
14
11
10
3
12
5
17
15
4
6
7
2
8
9
16

> <PUBCHEM_MMFF94_PARTIAL_CHARGES>
42
1 -0.36
10 -0.15
11 -0.15
12 -0.15
13 0.12
14 0.12
15 0.54
16 0.54
17 0.08
18 0.08
19 -0.15
2 -0.36
20 -0.15
21 -0.15
22 -0.15
23 -0.15
24 -0.15
25 -0.15
26 -0.15
27 0.28
28 0.28
29 0.15
3 -0.57
30 0.15
31 0.15
32 0.15
33 0.37
34 0.37
35 0.15
36 0.15
37 0.15
38 0.15
39 0.15
4 -0.57
40 0.15
41 0.15
42 0.15
5 -0.55
6 -0.55
7 0.09
8 0.09
9 -0.15

> <PUBCHEM_EFFECTIVE_ROTOR_COUNT>
8

> <PUBCHEM_PHARMACOPHORE_FEATURES>
9
1 1 acceptor
1 2 acceptor
1 3 acceptor
1 4 acceptor
1 5 donor
1 6 donor
6 13 17 19 21 23 25 rings
6 14 18 20 22 24 26 rings
6 7 8 9 10 11 12 rings

> <PUBCHEM_HEAVY_ATOM_COUNT>
28

> <PUBCHEM_ATOM_DEF_STEREO_COUNT>
0

> <PUBCHEM_ATOM_UDEF_STEREO_COUNT>
0

> <PUBCHEM_BOND_DEF_STEREO_COUNT>
0

> <PUBCHEM_BOND_UDEF_STEREO_COUNT>
0

> <PUBCHEM_ISOTOPIC_ATOM_COUNT>
0

> <PUBCHEM_COMPONENT_COUNT>
1

> <PUBCHEM_CACTVS_TAUTO_COUNT>
3

> <PUBCHEM_CONFORMER_ID>
00022AFB00000001

> <PUBCHEM_MMFF94_ENERGY>
118.352

> <PUBCHEM_FEATURE_SELFOVERLAP>
45.673

> <PUBCHEM_SHAPE_FINGERPRINT>
10316853 100 18411139152110350698
10391435 84 18337102470900336368
11135609 12 18336825385485859308
11315181 36 18131070446639936641
11524674 6 17775565364636670935
117089 54 17913218559588825854
11963148 33 18408597072389662874
11991303 11 13479143422852558521
12643181 29 18261107487533042099
12760667 363 18342457045858166037
13073987 5 18059856108900278384
13402501 40 18410858762958584087
13533116 47 17917709123831540984
13685833 64 18341894082655878464
13751561 76 17703241637324582278
13885169 127 18412262801348939113
13911987 19 13262394467124262729
14251764 18 17132113550078796540
14294032 229 16879337914914765173
14420673 8 18334579079563112651
14461889 52 18412256238770338426
14856354 85 15430038777769313995
15183329 4 17531247248892384843
15352257 5 18410576188470037771
15361156 5 18115315599690046583
15419008 91 18189594155392619124
17492 89 17982734065916322254
18335252 98 18412263939715212880
18603816 31 17917418874764100815
18608769 82 18410290328922438210
20721686 56 18409168805740868155
21033650 10 17023182661811052293
21049683 271 18413110581102651672
21150785 3 17022904549476774876
21267235 1 18410575084663579108
21623969 137 18060422396021975502
21682296 61 18271812298148975543
22149856 69 18271817795639030264
23522609 53 18122377693861486661
23559900 14 18336823191032137617
3004659 81 17967531293804132152
3089732 80 18410015437576879778
335352 9 18334008407379715133
3383291 50 18261396689293640683
4073 2 18335422408390231090
437815 12 18412545422796854097
439807 62 18261673684350000290
465052 167 18202003218464870020
5104073 3 17987233335963145896
58902169 19 14923948968076297370
59682541 35 18201428187427613936
59755656 215 18260827081591867915
636775 8 18339934744893821798
8863177 126 18340205292782420224
999808 66 18408609171374806331

> <PUBCHEM_SHAPE_MULTIPOLES>
542.79
23.24
3.06
0.85
0
1.29
0
10.81
-0.01
0
0
0
0.09
2.6

> <PUBCHEM_SHAPE_SELFOVERLAP>
1176.639

> <PUBCHEM_SHAPE_VOLUME>
294.8

> <PUBCHEM_COORDINATE_TYPE>
2
5
10

$$$$
