142744
  -OEChem-11012401093D

 24 23  0     0  0  0  0  0  0999 V2000
   -1.2721   -0.7353   -1.6171 F   0  0  0  0  0  0  0  0  0  0  0  0
   -1.0349   -2.3695   -0.1825 F   0  0  0  0  0  0  0  0  0  0  0  0
   -2.3938   -0.9969    1.7114 F   0  0  0  0  0  0  0  0  0  0  0  0
   -3.5081   -1.3160   -0.1284 F   0  0  0  0  0  0  0  0  0  0  0  0
    5.6911   -0.2284   -0.5903 F   0  0  0  0  0  0  0  0  0  0  0  0
    4.5767    1.5633   -0.0444 F   0  0  0  0  0  0  0  0  0  0  0  0
   -0.0648   -0.3756    0.2687 O   0  0  0  0  0  0  0  0  0  0  0  0
   -3.4161    1.1559   -0.8236 O   0  0  0  0  0  0  0  0  0  0  0  0
    3.4627   -0.3824   -0.3515 O   0  0  0  0  0  0  0  0  0  0  0  0
   -2.2937    1.6816    1.1233 O   0  0  0  0  0  0  0  0  0  0  0  0
    2.2059    0.7659    1.2081 O   0  0  0  0  0  0  0  0  0  0  0  0
   -1.1963   -1.0273   -0.2958 C   0  0  0  0  0  0  0  0  0  0  0  0
   -2.4723   -0.6142    0.4076 C   0  0  0  0  0  0  0  0  0  0  0  0
    1.1508   -0.7414   -0.3689 C   0  0  0  0  0  0  0  0  0  0  0  0
   -2.7088    0.8703    0.3060 C   0  0  0  0  0  0  0  0  0  0  0  0
    2.3058   -0.0185    0.2745 C   0  0  0  0  0  0  0  0  0  0  0  0
   -3.6835    2.5436   -1.0489 C   0  0  0  0  0  0  0  0  0  0  0  0
    4.6514    0.2249    0.1517 C   0  0  0  0  0  0  0  0  0  0  0  0
    1.3138   -1.8187   -0.2613 H   0  0  0  0  0  0  0  0  0  0  0  0
    1.1119   -0.4585   -1.4260 H   0  0  0  0  0  0  0  0  0  0  0  0
   -4.2521    2.6338   -1.9783 H   0  0  0  0  0  0  0  0  0  0  0  0
   -2.7459    3.0972   -1.1558 H   0  0  0  0  0  0  0  0  0  0  0  0
   -4.2829    2.9517   -0.2295 H   0  0  0  0  0  0  0  0  0  0  0  0
    4.8225   -0.0064    1.2079 H   0  0  0  0  0  0  0  0  0  0  0  0
  1 12  1  0  0  0  0
  2 12  1  0  0  0  0
  3 13  1  0  0  0  0
  4 13  1  0  0  0  0
  5 18  1  0  0  0  0
  6 18  1  0  0  0  0
  7 12  1  0  0  0  0
  7 14  1  0  0  0  0
  8 15  1  0  0  0  0
  8 17  1  0  0  0  0
  9 16  1  0  0  0  0
  9 18  1  0  0  0  0
 10 15  2  0  0  0  0
 11 16  2  0  0  0  0
 12 13  1  0  0  0  0
 13 15  1  0  0  0  0
 14 16  1  0  0  0  0
 14 19  1  0  0  0  0
 14 20  1  0  0  0  0
 17 21  1  0  0  0  0
 17 22  1  0  0  0  0
 17 23  1  0  0  0  0
 18 24  1  0  0  0  0
M  END
> <PUBCHEM_COMPOUND_CID>
142744

> <PUBCHEM_CONFORMER_RMSD>
0.8

> <PUBCHEM_CONFORMER_DIVERSEORDER>
1
163
193
114
65
165
105
112
200
71
4
208
38
199
159
173
8
120
174
196
137
111
12
15
17
9
133
136
158
182
142
67
134
21
205
207
144
197
101
146
181
99
46
53
83
167
62
52
140
157
201
175
10
183
195
127
64
61
177
204
73
139
149
103
22
132
209
203
160
89
198
11
51
108
164
32
66
171
113
176
150
68
88
187
35
54
13
206
161
43
95
124
30
56
141
123
129
81
70
131
97
169
91
96
2
25
59
69
82
93
168
130
126
138
122
42
154
57
78
147
90
7
44
106
3
55
125
110
34
155
72
115
190
45
75
24
40
189
119
76
39
26
77
86
48
94
185
151
162
33
102
49
63
145
36
180
172
14
58
179
191
116
135
186
31
23
84
6
166
85
188
100
41
153
104
118
27
117
5
74
80
170
16
152
178
50
92
192
148
29
79
18
28
98
121
47
37
60
109
202
156
194
143
184
19
20
87
128
107

> <PUBCHEM_MMFF94_PARTIAL_CHARGES>
18
1 -0.34
10 -0.57
11 -0.57
12 0.96
13 0.74
14 0.34
15 0.66
16 0.66
17 0.28
18 0.96
2 -0.34
3 -0.34
4 -0.34
5 -0.34
6 -0.34
7 -0.56
8 -0.43
9 -0.43

> <PUBCHEM_EFFECTIVE_ROTOR_COUNT>
8

> <PUBCHEM_PHARMACOPHORE_FEATURES>
3
1 10 acceptor
1 11 acceptor
1 7 acceptor

> <PUBCHEM_HEAVY_ATOM_COUNT>
18

> <PUBCHEM_ATOM_DEF_STEREO_COUNT>
0

> <PUBCHEM_ATOM_UDEF_STEREO_COUNT>
0

> <PUBCHEM_BOND_DEF_STEREO_COUNT>
0

> <PUBCHEM_BOND_UDEF_STEREO_COUNT>
0

> <PUBCHEM_ISOTOPIC_ATOM_COUNT>
0

> <PUBCHEM_COMPONENT_COUNT>
1

> <PUBCHEM_CACTVS_TAUTO_COUNT>
1

> <PUBCHEM_CONFORMER_ID>
00022D9800000001

> <PUBCHEM_MMFF94_ENERGY>
14.8279

> <PUBCHEM_FEATURE_SELFOVERLAP>
15.23

> <PUBCHEM_SHAPE_FINGERPRINT>
10014705 185 18334573533868945828
10680689 15 18337115652345079290
11543360 7 12607397815314397602
12186901 62 18413669119216324227
124424 183 17775566438272537930
12500047 106 18412258437318950230
12892183 10 15286768972016577501
12916754 54 17774156949837989043
13024252 1 11891324362234784011
13296909 8 18186524306490151109
15061688 2 17970622988074851189
15239154 128 18334016112176737980
15309172 13 15647053772024006914
17834072 32 18336264544098116973
17834072 8 18272093752014794748
18186145 218 16845572058690334906
200 152 15339112438020317677
20645477 56 18411426098231376483
20645477 70 17131847447623586318
21061003 4 13767933437379325119
21503847 285 17603871113658806260
2306618 200 17846787308056281603
23402539 116 18273209837668515695
23557571 272 18130792286903049407
23559900 14 18130510726512594742
27216 239 18260550034800006545
2838139 119 17897989258296897101
4028521 119 18272363148800085897
4175511 318 17418095437994604244
4214541 1 18412546522445261342
90127 26 18261399970563556512

> <PUBCHEM_SHAPE_MULTIPOLES>
297.44
9.46
1.93
1.1
12.62
0.47
0.11
4.03
-1.1
-2.27
-0.26
-0.66
0.07
0.69

> <PUBCHEM_SHAPE_SELFOVERLAP>
599.436

> <PUBCHEM_SHAPE_VOLUME>
173.1

> <PUBCHEM_COORDINATE_TYPE>
2
5
10

$$$$
