130782920
  -OEChem-11012401283D

 31 34  0     1  0  0  0  0  0999 V2000
    2.9733   -1.3112   -0.1238 O   0  0  0  0  0  0  0  0  0  0  0  0
   -0.3212    0.4013   -1.0962 C   0  0  1  0  0  0  0  0  0  0  0  0
   -0.4768    1.2120    0.2126 C   0  0  2  0  0  0  0  0  0  0  0  0
    1.1670    0.0034   -1.0736 C   0  0  1  0  0  0  0  0  0  0  0  0
    0.9563    1.2677    0.7770 C   0  0  2  0  0  0  0  0  0  0  0  0
   -1.5701   -0.5017   -1.1105 C   0  0  2  0  0  0  0  0  0  0  0  0
   -1.7472    0.6066    0.8394 C   0  0  1  0  0  0  0  0  0  0  0  0
    1.7516    1.3399   -0.5459 C   0  0  0  0  0  0  0  0  0  0  0  0
   -2.5907    0.4541   -0.4491 C   0  0  0  0  0  0  0  0  0  0  0  0
    1.6113   -0.9283    0.0706 C   0  0  2  0  0  0  0  0  0  0  0  0
    1.5177   -0.0452    1.3232 C   0  0  0  0  0  0  0  0  0  0  0  0
   -1.5942   -1.6262   -0.0784 C   0  0  0  0  0  0  0  0  0  0  0  0
   -1.6769   -0.8723    1.2546 C   0  0  0  0  0  0  0  0  0  0  0  0
   -0.4448    1.0985   -1.9411 H   0  0  0  0  0  0  0  0  0  0  0  0
   -0.7308    2.2489   -0.0627 H   0  0  0  0  0  0  0  0  0  0  0  0
    1.5608   -0.2798   -2.0529 H   0  0  0  0  0  0  0  0  0  0  0  0
    1.1199    2.1143    1.4478 H   0  0  0  0  0  0  0  0  0  0  0  0
   -1.8489   -0.8341   -2.1131 H   0  0  0  0  0  0  0  0  0  0  0  0
   -2.1970    1.2477    1.6007 H   0  0  0  0  0  0  0  0  0  0  0  0
    1.4928    2.2070   -1.1643 H   0  0  0  0  0  0  0  0  0  0  0  0
    2.8381    1.3210   -0.4047 H   0  0  0  0  0  0  0  0  0  0  0  0
   -3.5712   -0.0043   -0.2760 H   0  0  0  0  0  0  0  0  0  0  0  0
   -2.7300    1.3921   -0.9985 H   0  0  0  0  0  0  0  0  0  0  0  0
    1.0487   -1.8505    0.1529 H   0  0  0  0  0  0  0  0  0  0  0  0
    2.5130    0.1271    1.7539 H   0  0  0  0  0  0  0  0  0  0  0  0
    0.9179   -0.4699    2.1237 H   0  0  0  0  0  0  0  0  0  0  0  0
   -0.7710   -2.3309   -0.1542 H   0  0  0  0  0  0  0  0  0  0  0  0
   -2.5056   -2.2258   -0.2055 H   0  0  0  0  0  0  0  0  0  0  0  0
   -2.6072   -1.1544    1.7653 H   0  0  0  0  0  0  0  0  0  0  0  0
   -0.8760   -1.1269    1.9405 H   0  0  0  0  0  0  0  0  0  0  0  0
    3.2379   -1.8433    0.6461 H   0  0  0  0  0  0  0  0  0  0  0  0
  1 10  1  0  0  0  0
  1 31  1  0  0  0  0
  2  3  1  0  0  0  0
  2  4  1  0  0  0  0
  2  6  1  0  0  0  0
  2 14  1  0  0  0  0
  3  5  1  0  0  0  0
  3  7  1  0  0  0  0
  3 15  1  0  0  0  0
  4  8  1  0  0  0  0
  4 10  1  0  0  0  0
  4 16  1  0  0  0  0
  5  8  1  0  0  0  0
  5 11  1  0  0  0  0
  5 17  1  0  0  0  0
  6  9  1  0  0  0  0
  6 12  1  0  0  0  0
  6 18  1  0  0  0  0
  7  9  1  0  0  0  0
  7 13  1  0  0  0  0
  7 19  1  0  0  0  0
  8 20  1  0  0  0  0
  8 21  1  0  0  0  0
  9 22  1  0  0  0  0
  9 23  1  0  0  0  0
 10 11  1  0  0  0  0
 10 24  1  0  0  0  0
 11 25  1  0  0  0  0
 11 26  1  0  0  0  0
 12 13  1  0  0  0  0
 12 27  1  0  0  0  0
 12 28  1  0  0  0  0
 13 29  1  0  0  0  0
 13 30  1  0  0  0  0
M  END
> <PUBCHEM_COMPOUND_CID>
130782920

> <PUBCHEM_CONFORMER_RMSD>
0.4

> <PUBCHEM_CONFORMER_DIVERSEORDER>
1

> <PUBCHEM_MMFF94_PARTIAL_CHARGES>
3
1 -0.68
10 0.28
31 0.4

> <PUBCHEM_EFFECTIVE_ROTOR_COUNT>
1.2

> <PUBCHEM_PHARMACOPHORE_FEATURES>
4
1 1 acceptor
1 1 donor
7 2 3 4 5 8 10 11 rings
7 2 3 6 7 9 12 13 rings

> <PUBCHEM_HEAVY_ATOM_COUNT>
13

> <PUBCHEM_ATOM_DEF_STEREO_COUNT>
7

> <PUBCHEM_ATOM_UDEF_STEREO_COUNT>
0

> <PUBCHEM_BOND_DEF_STEREO_COUNT>
0

> <PUBCHEM_BOND_UDEF_STEREO_COUNT>
0

> <PUBCHEM_ISOTOPIC_ATOM_COUNT>
0

> <PUBCHEM_COMPONENT_COUNT>
1

> <PUBCHEM_CACTVS_TAUTO_COUNT>
1

> <PUBCHEM_CONFORMER_ID>
07CB96C800000001

> <PUBCHEM_MMFF94_ENERGY>
81.6292

> <PUBCHEM_FEATURE_SELFOVERLAP>
20.334

> <PUBCHEM_SHAPE_FINGERPRINT>
12423570 1 17558285236262527429
13024252 1 12397168923792248262
13380535 239 16372426993341416811
15076042 46 18271258122539582729
15557651 10 10809643501018773606
16945 1 18264783068345727885
21922407 69 18198622339940833665
23419403 2 13463291703532406733
2748010 2 18335139846776244791
369184 2 17561071514891706979
5084963 1 13038918758241889197
528886 8 15647060326143963624

> <PUBCHEM_SHAPE_MULTIPOLES>
261.66
3.32
1.5
1.3
0.28
0.16
-0.09
0.69
0.01
0.24
-0.07
-0.1
0
0.03

> <PUBCHEM_SHAPE_SELFOVERLAP>
588.13

> <PUBCHEM_SHAPE_VOLUME>
147.7

> <PUBCHEM_COORDINATE_TYPE>
2
5
10

$$$$
