5364850
  -OEChem-11012401193D

 21 20  0     0  0  0  0  0  0999 V2000
   -1.2066   -0.1720    0.2673 C   0  0  0  0  0  0  0  0  0  0  0  0
   -0.1484   -0.0782   -0.8480 C   0  0  0  0  0  0  0  0  0  0  0  0
   -1.8266    1.1903    0.5896 C   0  0  0  0  0  0  0  0  0  0  0  0
   -2.3054   -1.1571   -0.1382 C   0  0  0  0  0  0  0  0  0  0  0  0
    1.0002    0.8242   -0.4952 C   0  0  0  0  0  0  0  0  0  0  0  0
    2.1200    0.4046    0.1115 C   0  0  0  0  0  0  0  0  0  0  0  0
    2.3668   -1.0118    0.5130 C   0  0  0  0  0  0  0  0  0  0  0  0
   -0.7339   -0.5550    1.1809 H   0  0  0  0  0  0  0  0  0  0  0  0
    0.2044   -1.0783   -1.1257 H   0  0  0  0  0  0  0  0  0  0  0  0
   -0.6125    0.3177   -1.7615 H   0  0  0  0  0  0  0  0  0  0  0  0
   -2.6083    1.0891    1.3503 H   0  0  0  0  0  0  0  0  0  0  0  0
   -1.0802    1.8877    0.9828 H   0  0  0  0  0  0  0  0  0  0  0  0
   -2.2794    1.6408   -0.3003 H   0  0  0  0  0  0  0  0  0  0  0  0
   -3.0487   -1.2615    0.6594 H   0  0  0  0  0  0  0  0  0  0  0  0
   -1.8849   -2.1494   -0.3330 H   0  0  0  0  0  0  0  0  0  0  0  0
   -2.8241   -0.8243   -1.0437 H   0  0  0  0  0  0  0  0  0  0  0  0
    0.9053    1.8772   -0.7471 H   0  0  0  0  0  0  0  0  0  0  0  0
    2.9046    1.1261    0.3215 H   0  0  0  0  0  0  0  0  0  0  0  0
    1.4809   -1.6499    0.5039 H   0  0  0  0  0  0  0  0  0  0  0  0
    3.1230   -1.4568   -0.1409 H   0  0  0  0  0  0  0  0  0  0  0  0
    2.7568   -1.0304    1.5364 H   0  0  0  0  0  0  0  0  0  0  0  0
  1  2  1  0  0  0  0
  1  3  1  0  0  0  0
  1  4  1  0  0  0  0
  1  8  1  0  0  0  0
  2  5  1  0  0  0  0
  2  9  1  0  0  0  0
  2 10  1  0  0  0  0
  3 11  1  0  0  0  0
  3 12  1  0  0  0  0
  3 13  1  0  0  0  0
  4 14  1  0  0  0  0
  4 15  1  0  0  0  0
  4 16  1  0  0  0  0
  5  6  2  0  0  0  0
  5 17  1  0  0  0  0
  6  7  1  0  0  0  0
  6 18  1  0  0  0  0
  7 19  1  0  0  0  0
  7 20  1  0  0  0  0
  7 21  1  0  0  0  0
M  END
> <PUBCHEM_COMPOUND_CID>
5364850

> <PUBCHEM_CONFORMER_RMSD>
0.4

> <PUBCHEM_CONFORMER_DIVERSEORDER>
1
2
3
4

> <PUBCHEM_MMFF94_PARTIAL_CHARGES>
6
17 0.15
18 0.15
2 0.14
5 -0.29
6 -0.29
7 0.14

> <PUBCHEM_EFFECTIVE_ROTOR_COUNT>
2

> <PUBCHEM_PHARMACOPHORE_FEATURES>
2
1 7 hydrophobe
3 1 3 4 hydrophobe

> <PUBCHEM_HEAVY_ATOM_COUNT>
7

> <PUBCHEM_ATOM_DEF_STEREO_COUNT>
0

> <PUBCHEM_ATOM_UDEF_STEREO_COUNT>
0

> <PUBCHEM_BOND_DEF_STEREO_COUNT>
1

> <PUBCHEM_BOND_UDEF_STEREO_COUNT>
0

> <PUBCHEM_ISOTOPIC_ATOM_COUNT>
0

> <PUBCHEM_COMPONENT_COUNT>
1

> <PUBCHEM_CACTVS_TAUTO_COUNT>
1

> <PUBCHEM_CONFORMER_ID>
0051DC7200000001

> <PUBCHEM_MMFF94_ENERGY>
4.1336

> <PUBCHEM_FEATURE_SELFOVERLAP>
10.149

> <PUBCHEM_SHAPE_FINGERPRINT>
10857977 72 16701461302767579087
14390081 3 10015860985651510918
20651381 17 17702371854464006077
20653085 51 9727354696663836546
21040471 1 17985568662046580941
23552423 10 18260271883816668734
24536 1 17059793142686470609
29004967 10 16515691047895910996

> <PUBCHEM_SHAPE_MULTIPOLES>
144.06
3.65
1.28
0.86
0.53
0.04
0.05
0.78
-0.64
-0.32
-0.12
0
-0.04
-0.45

> <PUBCHEM_SHAPE_SELFOVERLAP>
254.058

> <PUBCHEM_SHAPE_VOLUME>
95.8

> <PUBCHEM_COORDINATE_TYPE>
2
5
10

$$$$
