144099
  -OEChem-11012400453D

 30 29  0     1  0  0  0  0  0999 V2000
    5.6427   -0.7274    1.4882 Cl  0  0  0  0  0  0  0  0  0  0  0  0
   -0.5493    0.3611   -2.0700 F   0  0  0  0  0  0  0  0  0  0  0  0
   -2.4099   -0.7315   -1.8647 F   0  0  0  0  0  0  0  0  0  0  0  0
   -1.5181   -2.0120    0.3399 F   0  0  0  0  0  0  0  0  0  0  0  0
   -0.3019   -2.2391   -1.4438 F   0  0  0  0  0  0  0  0  0  0  0  0
   -2.4925    1.8485   -1.1220 F   0  0  0  0  0  0  0  0  0  0  0  0
   -0.8960    1.5721    0.3216 F   0  0  0  0  0  0  0  0  0  0  0  0
    1.0649   -2.2033    0.8597 F   0  0  0  0  0  0  0  0  0  0  0  0
    0.2828   -0.2491    1.3983 F   0  0  0  0  0  0  0  0  0  0  0  0
   -2.4057   -0.2337    1.7148 F   0  0  0  0  0  0  0  0  0  0  0  0
   -3.2878    1.7316    1.4367 F   0  0  0  0  0  0  0  0  0  0  0  0
   -5.0539   -0.3027    1.3293 F   0  0  0  0  0  0  0  0  0  0  0  0
   -4.8952    0.8119   -0.5334 F   0  0  0  0  0  0  0  0  0  0  0  0
    4.3531   -0.3276   -1.1871 F   0  0  0  0  0  0  0  0  0  0  0  0
    3.5045    1.6528   -0.8065 F   0  0  0  0  0  0  0  0  0  0  0  0
    6.0498    1.3777    0.0924 F   0  0  0  0  0  0  0  0  0  0  0  0
    2.8040   -0.1109    0.4420 O   0  0  0  0  0  0  0  0  0  0  0  0
   -1.3815   -0.1976   -1.1451 C   0  0  0  0  0  0  0  0  0  0  0  0
   -0.6481   -1.3478   -0.4689 C   0  0  0  0  0  0  0  0  0  0  0  0
   -1.9323    0.9293   -0.2821 C   0  0  0  0  0  0  0  0  0  0  0  0
    0.6019   -1.0323    0.3381 C   0  0  0  0  0  0  0  0  0  0  0  0
   -2.9597    0.5816    0.7835 C   0  0  0  0  0  0  0  0  0  0  0  0
    1.7248   -0.3801   -0.4468 C   0  0  0  0  0  0  0  0  0  0  0  0
   -4.2347   -0.0498    0.2758 C   0  0  0  0  0  0  0  0  0  0  0  0
    3.9063    0.5038   -0.2120 C   0  0  0  0  0  0  0  0  0  0  0  0
    5.0317    0.7744    0.7621 C   0  0  1  0  0  0  0  0  0  0  0  0
    1.3922    0.5703   -0.8726 H   0  0  0  0  0  0  0  0  0  0  0  0
    2.0648   -1.0471   -1.2460 H   0  0  0  0  0  0  0  0  0  0  0  0
   -4.0736   -0.9944   -0.2475 H   0  0  0  0  0  0  0  0  0  0  0  0
    4.7117    1.4390    1.5695 H   0  0  0  0  0  0  0  0  0  0  0  0
  1 26  1  0  0  0  0
  2 18  1  0  0  0  0
  3 18  1  0  0  0  0
  4 19  1  0  0  0  0
  5 19  1  0  0  0  0
  6 20  1  0  0  0  0
  7 20  1  0  0  0  0
  8 21  1  0  0  0  0
  9 21  1  0  0  0  0
 10 22  1  0  0  0  0
 11 22  1  0  0  0  0
 12 24  1  0  0  0  0
 13 24  1  0  0  0  0
 14 25  1  0  0  0  0
 15 25  1  0  0  0  0
 16 26  1  0  0  0  0
 17 23  1  0  0  0  0
 17 25  1  0  0  0  0
 18 19  1  0  0  0  0
 18 20  1  0  0  0  0
 19 21  1  0  0  0  0
 20 22  1  0  0  0  0
 21 23  1  0  0  0  0
 22 24  1  0  0  0  0
 23 27  1  0  0  0  0
 23 28  1  0  0  0  0
 24 29  1  0  0  0  0
 25 26  1  0  0  0  0
 26 30  1  0  0  0  0
M  END
> <PUBCHEM_COMPOUND_CID>
144099

> <PUBCHEM_CONFORMER_RMSD>
1

> <PUBCHEM_CONFORMER_DIVERSEORDER>
1
137
124
134
128
246
275
14
257
207
283
184
80
107
125
169
172
221
115
238
256
129
236
215
146
209
239
181
132
228
230
216
231
190
202
75
155
197
217
27
226
196
244
85
281
94
266
210
89
249
194
54
229
240
131
276
68
272
57
122
247
142
18
188
140
41
223
113
198
118
200
156
34
195
213
232
8
42
123
22
201
191
157
187
255
263
254
222
282
233
206
29
58
273
214
86
259
205
135
153
17
106
277
208
121
23
138
103
167
251
35
43
4
143
173
218
141
260
160
164
242
149
139
95
97
87
171
150
241
7
98
270
178
185
25
161
186
72
144
258
130
261
38
268
3
111
280
158
245
15
219
159
211
264
37
252
203
243
104
114
163
62
212
265
151
116
193
154
227
117
65
100
102
93
204
73
192
147
96
279
21
148
39
271
13
136
278
78
66
10
53
168
262
47
79
274
36
16
175
253
145
19
6
110
189
133
51
177
127
183
176
101
31
179
180
269
235
166
225
44
82
267
90
119
237
199
63
250
112
45
224
2
32
170
11
220
52
152
59
234
40
248
61
64
33
162
182
71
28
67
20
70
76
91
120
174
56
49
108
26
83
5
126
74
165
60
99
81
77
24
30
84
46
69
105
55
88
9
92
48
109
12
50

> <PUBCHEM_MMFF94_PARTIAL_CHARGES>
26
1 -0.29
10 -0.34
11 -0.34
12 -0.34
13 -0.34
14 -0.34
15 -0.34
16 -0.34
17 -0.56
18 0.68
19 0.68
2 -0.34
20 0.68
21 0.68
22 0.68
23 0.28
24 0.68
25 0.96
26 0.63
3 -0.34
4 -0.34
5 -0.34
6 -0.34
7 -0.34
8 -0.34
9 -0.34

> <PUBCHEM_EFFECTIVE_ROTOR_COUNT>
9

> <PUBCHEM_PHARMACOPHORE_FEATURES>
1
1 17 acceptor

> <PUBCHEM_HEAVY_ATOM_COUNT>
26

> <PUBCHEM_ATOM_DEF_STEREO_COUNT>
0

> <PUBCHEM_ATOM_UDEF_STEREO_COUNT>
1

> <PUBCHEM_BOND_DEF_STEREO_COUNT>
0

> <PUBCHEM_BOND_UDEF_STEREO_COUNT>
0

> <PUBCHEM_ISOTOPIC_ATOM_COUNT>
0

> <PUBCHEM_COMPONENT_COUNT>
1

> <PUBCHEM_CACTVS_TAUTO_COUNT>
1

> <PUBCHEM_CONFORMER_ID>
000232E300000001

> <PUBCHEM_MMFF94_ENERGY>
18.5874

> <PUBCHEM_FEATURE_SELFOVERLAP>
5.074

> <PUBCHEM_SHAPE_FINGERPRINT>
10948715 1 17845945030509602871
11045977 3 16660364787625514936
11046707 91 11530481125450241618
11132069 177 17458355138450962195
12011746 2 18408605859939157781
12173636 292 17989207036016459398
12236239 1 18411412912734447302
12403259 118 17458623398008820236
12403814 3 17967246511781484661
12516196 113 9295282846676140074
12592029 89 18334579010289852082
12596602 18 17748825237480214736
12633257 1 17095819753514632449
12788726 201 17833838548822124886
12916748 109 17846502525733089568
13288520 33 11458418029527591522
13544653 18 10953746603441799878
13583140 156 16515671265455750708
13675066 3 17240755178134649316
14004511 7 18261099778267075810
14251764 18 18334286588190278322
14341114 176 17095525084994065176
14787075 74 18338521945128807267
14943859 89 17418094312586773383
15534591 1 18060137630604437086
16945 1 17169864139995299863
17349148 13 12179848277377519995
17980427 23 16733274478059086263
1813 80 8502375585350659010
18186145 218 18201439151851450742
18222031 100 13045947906330150778
19784866 240 8718825409712753977
19862831 5 13901907804464384878
200 152 9799693701396215090
20645477 56 18201718483528606676
20871999 31 16200142235741594454
21524375 3 18412545405337253838
21682296 61 17751633257155219154
22079108 93 18412830208897671499
22224240 67 18202571687762639483
22854114 59 18259988166856512489
23175994 123 8790878584493292587
23198884 109 17203612601290287824
23227448 37 18270682094400318932
23402539 116 18201709682745050094
23419403 2 14346920966636304751
23557571 272 17274544364151276382
23559900 14 16661775345080263434
24859131 72 13912322378170091170
296302 2 16443073777012311895
347723 3 10952057732127804911
351380 180 17748827419028156080
392239 28 18336842977924917163
474 4 18410576210488043852
5104073 3 18189323728057042546
59755656 520 18343301483425468758

> <PUBCHEM_SHAPE_MULTIPOLES>
421.96
10.99
1.74
1.55
10.97
0.31
0.14
-3.58
-3.21
-0.09
0.11
-0.51
0.12
-0.51

> <PUBCHEM_SHAPE_SELFOVERLAP>
878.911

> <PUBCHEM_SHAPE_VOLUME>
240.6

> <PUBCHEM_COORDINATE_TYPE>
2
5
10

$$$$
