123426
  -OEChem-11012400523D

 22 23  0     0  0  0  0  0  0999 V2000
    0.7463   -0.5940    1.2341 O   0  0  0  0  0  0  0  0  0  0  0  0
    0.7463    1.3658   -0.1026 O   0  0  0  0  0  0  0  0  0  0  0  0
    0.7463   -0.7718   -1.1315 O   0  0  0  0  0  0  0  0  0  0  0  0
   -1.2697    0.0000    0.0000 C   0  0  0  0  0  0  0  0  0  0  0  0
   -0.6875   -0.6185    1.2844 C   0  0  0  0  0  0  0  0  0  0  0  0
   -0.6875    1.4216   -0.1067 C   0  0  0  0  0  0  0  0  0  0  0  0
   -0.6876   -0.8031   -1.1778 C   0  0  0  0  0  0  0  0  0  0  0  0
    1.1821    0.0000   -0.0001 C   0  0  0  0  0  0  0  0  0  0  0  0
   -2.7913    0.0000    0.0001 C   0  0  0  0  0  0  0  0  0  0  0  0
    2.7026    0.0000    0.0001 C   0  0  0  0  0  0  0  0  0  0  0  0
   -1.0025   -0.0663    2.1769 H   0  0  0  0  0  0  0  0  0  0  0  0
   -1.0023   -1.6605    1.4092 H   0  0  0  0  0  0  0  0  0  0  0  0
   -1.0024    1.9184   -1.0311 H   0  0  0  0  0  0  0  0  0  0  0  0
   -1.0023    2.0507    0.7333 H   0  0  0  0  0  0  0  0  0  0  0  0
   -1.0025   -1.8520   -1.1458 H   0  0  0  0  0  0  0  0  0  0  0  0
   -1.0023   -0.3902   -2.1426 H   0  0  0  0  0  0  0  0  0  0  0  0
   -3.1857    0.4434   -0.9207 H   0  0  0  0  0  0  0  0  0  0  0  0
   -3.1856   -1.0191    0.0765 H   0  0  0  0  0  0  0  0  0  0  0  0
   -3.1855    0.5758    0.8445 H   0  0  0  0  0  0  0  0  0  0  0  0
    3.0951    0.4435   -0.9215 H   0  0  0  0  0  0  0  0  0  0  0  0
    3.0949    0.5763    0.8450 H   0  0  0  0  0  0  0  0  0  0  0  0
    3.0949   -1.0199    0.0767 H   0  0  0  0  0  0  0  0  0  0  0  0
  1  5  1  0  0  0  0
  1  8  1  0  0  0  0
  2  6  1  0  0  0  0
  2  8  1  0  0  0  0
  3  7  1  0  0  0  0
  3  8  1  0  0  0  0
  4  5  1  0  0  0  0
  4  6  1  0  0  0  0
  4  7  1  0  0  0  0
  4  9  1  0  0  0  0
  5 11  1  0  0  0  0
  5 12  1  0  0  0  0
  6 13  1  0  0  0  0
  6 14  1  0  0  0  0
  7 15  1  0  0  0  0
  7 16  1  0  0  0  0
  8 10  1  0  0  0  0
  9 17  1  0  0  0  0
  9 18  1  0  0  0  0
  9 19  1  0  0  0  0
 10 20  1  0  0  0  0
 10 21  1  0  0  0  0
 10 22  1  0  0  0  0
M  END
> <PUBCHEM_COMPOUND_CID>
123426

> <PUBCHEM_CONFORMER_RMSD>
0.4

> <PUBCHEM_CONFORMER_DIVERSEORDER>
1

> <PUBCHEM_MMFF94_PARTIAL_CHARGES>
7
1 -0.56
2 -0.56
3 -0.56
5 0.28
6 0.28
7 0.28
8 0.84

> <PUBCHEM_EFFECTIVE_ROTOR_COUNT>
1.2

> <PUBCHEM_PHARMACOPHORE_FEATURES>
4
1 1 acceptor
1 2 acceptor
1 3 acceptor
8 1 2 3 4 5 6 7 8 rings

> <PUBCHEM_HEAVY_ATOM_COUNT>
10

> <PUBCHEM_ATOM_DEF_STEREO_COUNT>
0

> <PUBCHEM_ATOM_UDEF_STEREO_COUNT>
0

> <PUBCHEM_BOND_DEF_STEREO_COUNT>
0

> <PUBCHEM_BOND_UDEF_STEREO_COUNT>
0

> <PUBCHEM_ISOTOPIC_ATOM_COUNT>
0

> <PUBCHEM_COMPONENT_COUNT>
1

> <PUBCHEM_CACTVS_TAUTO_COUNT>
1

> <PUBCHEM_CONFORMER_ID>
0001E22200000001

> <PUBCHEM_MMFF94_ENERGY>
32.4236

> <PUBCHEM_FEATURE_SELFOVERLAP>
20.406

> <PUBCHEM_SHAPE_FINGERPRINT>
12423570 1 9114966607074262123
13024252 1 17458062668595142658
137420 1 12789302534599070335
16945 1 18409448089592427277
21040471 1 17022625303345224803
29004967 10 18342186565232660315
369184 2 18114176445587838576
5084963 1 18334295365990633741
528886 8 18130784559982460245
68250623 7 17977104556852826730

> <PUBCHEM_SHAPE_MULTIPOLES>
188.19
2.85
1.14
1.14
0.13
0.23
-0.31
0
0
-0.05
0.31
-0.05
-0.23
0

> <PUBCHEM_SHAPE_SELFOVERLAP>
393.327

> <PUBCHEM_SHAPE_VOLUME>
104.2

> <PUBCHEM_COORDINATE_TYPE>
2
5
10

$$$$
