2723636
  -OEChem-11012400363D

 49 49  0     1  0  0  0  0  0999 V2000
   -0.7324    1.1580    0.8910 O   0  0  0  0  0  0  0  0  0  0  0  0
    0.6469   -0.4600   -2.0170 O   0  0  0  0  0  0  0  0  0  0  0  0
   -0.4164   -1.7921    1.1877 O   0  0  0  0  0  0  0  0  0  0  0  0
   -2.5817   -0.6859   -0.3669 O   0  0  0  0  0  0  0  0  0  0  0  0
   -2.4407    2.0736   -0.4243 O   0  0  0  0  0  0  0  0  0  0  0  0
    2.8718    0.5549    0.7553 O   0  0  0  0  0  0  0  0  0  0  0  0
    2.0976   -2.1839   -1.5064 O   0  0  0  0  0  0  0  0  0  0  0  0
    1.2115   -1.9252    2.8215 O   0  0  0  0  0  0  0  0  0  0  0  0
   -2.4929   -2.4723   -1.8291 O   0  0  0  0  0  0  0  0  0  0  0  0
   -1.3427    3.8439    0.5741 O   0  0  0  0  0  0  0  0  0  0  0  0
    4.1130    2.2431   -0.2176 O   0  0  0  0  0  0  0  0  0  0  0  0
   -0.2759   -0.9398   -1.0444 C   0  0  1  0  0  0  0  0  0  0  0  0
    0.3845   -0.9624    0.3403 C   0  0  1  0  0  0  0  0  0  0  0  0
   -1.5167   -0.0444   -1.0698 C   0  0  2  0  0  0  0  0  0  0  0  0
    0.4969    0.4275    0.9903 C   0  0  1  0  0  0  0  0  0  0  0  0
   -1.2307    1.3185   -0.4355 C   0  0  2  0  0  0  0  0  0  0  0  0
    1.6732    1.2537    0.4738 C   0  0  0  0  0  0  0  0  0  0  0  0
    1.7972   -1.1827   -2.1424 C   0  0  0  0  0  0  0  0  0  0  0  0
    0.0412   -1.9493    2.4650 C   0  0  0  0  0  0  0  0  0  0  0  0
   -2.9705   -1.9007   -0.8583 C   0  0  0  0  0  0  0  0  0  0  0  0
   -2.3505    3.3259    0.1124 C   0  0  0  0  0  0  0  0  0  0  0  0
    2.6664   -0.5653   -3.1956 C   0  0  0  0  0  0  0  0  0  0  0  0
   -1.1150   -2.1604    3.3949 C   0  0  0  0  0  0  0  0  0  0  0  0
    4.0315    1.1643    0.3538 C   0  0  0  0  0  0  0  0  0  0  0  0
   -4.0884   -2.4518   -0.0260 C   0  0  0  0  0  0  0  0  0  0  0  0
   -3.6891    3.9975    0.0569 C   0  0  0  0  0  0  0  0  0  0  0  0
    5.2121    0.3152    0.7161 C   0  0  0  0  0  0  0  0  0  0  0  0
   -0.4874   -1.9756   -1.3089 H   0  0  0  0  0  0  0  0  0  0  0  0
    1.3755   -1.4122    0.3461 H   0  0  0  0  0  0  0  0  0  0  0  0
   -1.8525    0.1284   -2.1012 H   0  0  0  0  0  0  0  0  0  0  0  0
    0.6632    0.3363    2.0673 H   0  0  0  0  0  0  0  0  0  0  0  0
   -0.5042    1.8662   -1.0472 H   0  0  0  0  0  0  0  0  0  0  0  0
    1.5998    1.4487   -0.6000 H   0  0  0  0  0  0  0  0  0  0  0  0
    1.6817    2.2275    0.9797 H   0  0  0  0  0  0  0  0  0  0  0  0
    3.5923   -1.1408   -3.2843 H   0  0  0  0  0  0  0  0  0  0  0  0
    2.1508   -0.5823   -4.1588 H   0  0  0  0  0  0  0  0  0  0  0  0
    2.9205    0.4592   -2.9119 H   0  0  0  0  0  0  0  0  0  0  0  0
   -0.7430   -2.2741    4.4170 H   0  0  0  0  0  0  0  0  0  0  0  0
   -1.7797   -1.2935    3.3605 H   0  0  0  0  0  0  0  0  0  0  0  0
   -1.6535   -3.0694    3.1155 H   0  0  0  0  0  0  0  0  0  0  0  0
   -4.9463   -1.7758   -0.0637 H   0  0  0  0  0  0  0  0  0  0  0  0
   -3.7497   -2.5876    1.0043 H   0  0  0  0  0  0  0  0  0  0  0  0
   -4.3921   -3.4241   -0.4241 H   0  0  0  0  0  0  0  0  0  0  0  0
   -3.6111    4.9984    0.4911 H   0  0  0  0  0  0  0  0  0  0  0  0
   -4.0129    4.0929   -0.9825 H   0  0  0  0  0  0  0  0  0  0  0  0
   -4.4162    3.4226    0.6358 H   0  0  0  0  0  0  0  0  0  0  0  0
    6.1304    0.8115    0.3896 H   0  0  0  0  0  0  0  0  0  0  0  0
    5.2536    0.1822    1.8000 H   0  0  0  0  0  0  0  0  0  0  0  0
    5.1399   -0.6517    0.2117 H   0  0  0  0  0  0  0  0  0  0  0  0
  1 15  1  0  0  0  0
  1 16  1  0  0  0  0
  2 12  1  0  0  0  0
  2 18  1  0  0  0  0
  3 13  1  0  0  0  0
  3 19  1  0  0  0  0
  4 14  1  0  0  0  0
  4 20  1  0  0  0  0
  5 16  1  0  0  0  0
  5 21  1  0  0  0  0
  6 17  1  0  0  0  0
  6 24  1  0  0  0  0
  7 18  2  0  0  0  0
  8 19  2  0  0  0  0
  9 20  2  0  0  0  0
 10 21  2  0  0  0  0
 11 24  2  0  0  0  0
 12 13  1  0  0  0  0
 12 14  1  0  0  0  0
 12 28  1  0  0  0  0
 13 15  1  0  0  0  0
 13 29  1  0  0  0  0
 14 16  1  0  0  0  0
 14 30  1  0  0  0  0
 15 17  1  0  0  0  0
 15 31  1  0  0  0  0
 16 32  1  0  0  0  0
 17 33  1  0  0  0  0
 17 34  1  0  0  0  0
 18 22  1  0  0  0  0
 19 23  1  0  0  0  0
 20 25  1  0  0  0  0
 21 26  1  0  0  0  0
 22 35  1  0  0  0  0
 22 36  1  0  0  0  0
 22 37  1  0  0  0  0
 23 38  1  0  0  0  0
 23 39  1  0  0  0  0
 23 40  1  0  0  0  0
 24 27  1  0  0  0  0
 25 41  1  0  0  0  0
 25 42  1  0  0  0  0
 25 43  1  0  0  0  0
 26 44  1  0  0  0  0
 26 45  1  0  0  0  0
 26 46  1  0  0  0  0
 27 47  1  0  0  0  0
 27 48  1  0  0  0  0
 27 49  1  0  0  0  0
M  END
> <PUBCHEM_COMPOUND_CID>
2723636

> <PUBCHEM_CONFORMER_RMSD>
1

> <PUBCHEM_CONFORMER_DIVERSEORDER>
1
49
25
31
44
13
72
70
43
57
11
71
41
53
36
3
6
59
22
12
39
75
73
26
51
4
52
20
15
54
67
33
35
18
55
68
66
38
27
28
64
2
37
63
34
78
7
21
77
74
56
76
61
40
14
42
19
79
9
32
30
60
23
5
47
58
8
50
17
45
65
16
48
46
69
10
62
29
24

> <PUBCHEM_MMFF94_PARTIAL_CHARGES>
27
1 -0.56
10 -0.57
11 -0.57
12 0.28
13 0.28
14 0.28
15 0.28
16 0.56
17 0.28
18 0.66
19 0.66
2 -0.43
20 0.66
21 0.66
22 0.06
23 0.06
24 0.66
25 0.06
26 0.06
27 0.06
3 -0.43
4 -0.43
5 -0.43
6 -0.43
7 -0.57
8 -0.57
9 -0.57

> <PUBCHEM_EFFECTIVE_ROTOR_COUNT>
12.2

> <PUBCHEM_PHARMACOPHORE_FEATURES>
7
1 1 acceptor
1 10 acceptor
1 11 acceptor
1 7 acceptor
1 8 acceptor
1 9 acceptor
6 1 12 13 14 15 16 rings

> <PUBCHEM_HEAVY_ATOM_COUNT>
27

> <PUBCHEM_ATOM_DEF_STEREO_COUNT>
5

> <PUBCHEM_ATOM_UDEF_STEREO_COUNT>
0

> <PUBCHEM_BOND_DEF_STEREO_COUNT>
0

> <PUBCHEM_BOND_UDEF_STEREO_COUNT>
0

> <PUBCHEM_ISOTOPIC_ATOM_COUNT>
0

> <PUBCHEM_COMPONENT_COUNT>
1

> <PUBCHEM_CACTVS_TAUTO_COUNT>
1

> <PUBCHEM_CONFORMER_ID>
00298F3400000001

> <PUBCHEM_MMFF94_ENERGY>
64.5676

> <PUBCHEM_FEATURE_SELFOVERLAP>
35.531

> <PUBCHEM_SHAPE_FINGERPRINT>
11578080 2 17630075747701241872
12293681 4 18191031299226380451
12592029 89 18059012908167694470
12788726 201 18263656232242068660
13149001 5 17699306372979880796
13583140 156 17318163914534205449
14251757 17 17843975749302267060
14713325 29 18131350812766108920
14787075 74 17825937393444245083
16090146 7 17095530625254197978
16945 1 18052790792728665962
20600515 1 17752211840430245197
21330990 113 17559965487640345833
22182313 1 17775292633880688700
23419403 2 17551846552168162416
23558518 356 18333735714740829376
23559900 14 17556862421599826038
394222 165 17177462688149439881
9999458 23 17754173081459069528

> <PUBCHEM_SHAPE_MULTIPOLES>
491.08
6.63
4.15
2.78
4.84
3.73
0.41
2.57
-0.71
-5.2
1.15
1.2
-2.89
0.11

> <PUBCHEM_SHAPE_SELFOVERLAP>
996.451

> <PUBCHEM_SHAPE_VOLUME>
280.2

> <PUBCHEM_COORDINATE_TYPE>
2
5
10

$$$$
