145583
  -OEChem-11012400403D

 71 79  0     1  0  0  0  0  0999 V2000
    0.0005   -1.8010   -0.6829 O   0  0  0  0  0  0  0  0  0  0  0  0
   -1.1387   -1.2114    0.0501 C   0  0  2  0  0  0  0  0  0  0  0  0
    1.1390   -1.2110    0.0507 C   0  0  1  0  0  0  0  0  0  0  0  0
   -0.7076    0.2383   -0.0974 C   0  0  0  0  0  0  0  0  0  0  0  0
    0.7076    0.2386   -0.0972 C   0  0  0  0  0  0  0  0  0  0  0  0
   -0.7100   -1.6704    1.4338 C   0  0  0  0  0  0  0  0  0  0  0  0
    0.7097   -1.6701    1.4342 C   0  0  0  0  0  0  0  0  0  0  0  0
   -2.3954   -1.7291   -0.6012 C   0  0  0  0  0  0  0  0  0  0  0  0
    2.3964   -1.7283   -0.5997 C   0  0  0  0  0  0  0  0  0  0  0  0
   -1.4228    1.4198   -0.0838 C   0  0  0  0  0  0  0  0  0  0  0  0
    1.4225    1.4202   -0.0835 C   0  0  0  0  0  0  0  0  0  0  0  0
   -1.4250   -1.9092    2.5911 C   0  0  0  0  0  0  0  0  0  0  0  0
    1.4240   -1.9085    2.5920 C   0  0  0  0  0  0  0  0  0  0  0  0
   -0.7145    2.6334   -0.1143 C   0  0  0  0  0  0  0  0  0  0  0  0
    0.7137    2.6336   -0.1142 C   0  0  0  0  0  0  0  0  0  0  0  0
   -2.8718    1.3707   -0.0124 C   0  0  0  0  0  0  0  0  0  0  0  0
    2.8713    1.3713   -0.0133 C   0  0  0  0  0  0  0  0  0  0  0  0
   -3.4959   -2.1144    0.1789 C   0  0  0  0  0  0  0  0  0  0  0  0
    3.4966   -2.1133    0.1810 C   0  0  0  0  0  0  0  0  0  0  0  0
   -2.4845   -1.8331   -1.9972 C   0  0  0  0  0  0  0  0  0  0  0  0
    2.4860   -1.8333   -1.9957 C   0  0  0  0  0  0  0  0  0  0  0  0
   -0.7046   -2.1950    3.7534 C   0  0  0  0  0  0  0  0  0  0  0  0
    0.7029   -2.1946    3.7538 C   0  0  0  0  0  0  0  0  0  0  0  0
   -1.3969    3.8591   -0.1282 C   0  0  0  0  0  0  0  0  0  0  0  0
    1.3957    3.8596   -0.1279 C   0  0  0  0  0  0  0  0  0  0  0  0
   -4.6591   -2.5933   -0.4236 C   0  0  0  0  0  0  0  0  0  0  0  0
    4.6602   -2.5922   -0.4208 C   0  0  0  0  0  0  0  0  0  0  0  0
   -3.6479   -2.3119   -2.5997 C   0  0  0  0  0  0  0  0  0  0  0  0
    3.6497   -2.3124   -2.5973 C   0  0  0  0  0  0  0  0  0  0  0  0
   -3.6221    1.3519   -1.1850 C   0  0  0  0  0  0  0  0  0  0  0  0
    3.5034    1.3442    1.2270 C   0  0  0  0  0  0  0  0  0  0  0  0
   -3.5031    1.3421    1.2281 C   0  0  0  0  0  0  0  0  0  0  0  0
    3.6211    1.3510   -1.1862 C   0  0  0  0  0  0  0  0  0  0  0  0
   -0.6966    5.0657   -0.1462 C   0  0  0  0  0  0  0  0  0  0  0  0
    0.6950    5.0660   -0.1460 C   0  0  0  0  0  0  0  0  0  0  0  0
   -4.7352   -2.6920   -1.8128 C   0  0  0  0  0  0  0  0  0  0  0  0
    4.7368   -2.6919   -1.8099 C   0  0  0  0  0  0  0  0  0  0  0  0
   -5.0144    1.3043   -1.1166 C   0  0  0  0  0  0  0  0  0  0  0  0
    4.8959    1.2969    1.2948 C   0  0  0  0  0  0  0  0  0  0  0  0
   -4.8954    1.2945    1.2964 C   0  0  0  0  0  0  0  0  0  0  0  0
    5.0135    1.3035   -1.1183 C   0  0  0  0  0  0  0  0  0  0  0  0
   -5.6511    1.2756    0.1240 C   0  0  0  0  0  0  0  0  0  0  0  0
    5.6508    1.2764    0.1222 C   0  0  0  0  0  0  0  0  0  0  0  0
   -2.4904   -1.8128    2.7052 H   0  0  0  0  0  0  0  0  0  0  0  0
    2.4893   -1.8117    2.7068 H   0  0  0  0  0  0  0  0  0  0  0  0
   -3.5538   -2.0127    1.2440 H   0  0  0  0  0  0  0  0  0  0  0  0
    3.5540   -2.0110    1.2461 H   0  0  0  0  0  0  0  0  0  0  0  0
   -1.6544   -1.5331   -2.6320 H   0  0  0  0  0  0  0  0  0  0  0  0
    1.6561   -1.5340   -2.6310 H   0  0  0  0  0  0  0  0  0  0  0  0
   -1.2359   -2.3782    4.6842 H   0  0  0  0  0  0  0  0  0  0  0  0
    1.2337   -2.3776    4.6850 H   0  0  0  0  0  0  0  0  0  0  0  0
   -2.4820    3.9220   -0.1269 H   0  0  0  0  0  0  0  0  0  0  0  0
    2.4809    3.9228   -0.1263 H   0  0  0  0  0  0  0  0  0  0  0  0
   -5.5125   -2.8742    0.1868 H   0  0  0  0  0  0  0  0  0  0  0  0
    5.5135   -2.8726    0.1901 H   0  0  0  0  0  0  0  0  0  0  0  0
   -3.7088   -2.3850   -3.6815 H   0  0  0  0  0  0  0  0  0  0  0  0
    3.7110   -2.3862   -3.6792 H   0  0  0  0  0  0  0  0  0  0  0  0
   -3.1412    1.3769   -2.1599 H   0  0  0  0  0  0  0  0  0  0  0  0
    2.9291    1.3581    2.1501 H   0  0  0  0  0  0  0  0  0  0  0  0
   -2.9282    1.3549    2.1508 H   0  0  0  0  0  0  0  0  0  0  0  0
    3.1398    1.3749   -2.1609 H   0  0  0  0  0  0  0  0  0  0  0  0
   -1.2388    6.0069   -0.1586 H   0  0  0  0  0  0  0  0  0  0  0  0
    1.2369    6.0074   -0.1581 H   0  0  0  0  0  0  0  0  0  0  0  0
   -5.6429   -3.0599   -2.2821 H   0  0  0  0  0  0  0  0  0  0  0  0
    5.6446   -3.0599   -2.2786 H   0  0  0  0  0  0  0  0  0  0  0  0
   -5.6026    1.2885   -2.0294 H   0  0  0  0  0  0  0  0  0  0  0  0
    5.3920    1.2744    2.2606 H   0  0  0  0  0  0  0  0  0  0  0  0
   -5.3912    1.2706    2.2623 H   0  0  0  0  0  0  0  0  0  0  0  0
    5.6014    1.2865   -2.0313 H   0  0  0  0  0  0  0  0  0  0  0  0
   -6.7351    1.2371    0.1772 H   0  0  0  0  0  0  0  0  0  0  0  0
    6.7348    1.2380    0.1749 H   0  0  0  0  0  0  0  0  0  0  0  0
  1  2  1  0  0  0  0
  1  3  1  0  0  0  0
  2  4  1  0  0  0  0
  2  6  1  0  0  0  0
  2  8  1  0  0  0  0
  3  5  1  0  0  0  0
  3  7  1  0  0  0  0
  3  9  1  0  0  0  0
  4  5  1  0  0  0  0
  4 10  2  0  0  0  0
  5 11  2  0  0  0  0
  6  7  1  0  0  0  0
  6 12  2  0  0  0  0
  7 13  2  0  0  0  0
  8 18  2  0  0  0  0
  8 20  1  0  0  0  0
  9 19  2  0  0  0  0
  9 21  1  0  0  0  0
 10 14  1  0  0  0  0
 10 16  1  0  0  0  0
 11 15  1  0  0  0  0
 11 17  1  0  0  0  0
 12 22  1  0  0  0  0
 12 44  1  0  0  0  0
 13 23  1  0  0  0  0
 13 45  1  0  0  0  0
 14 15  1  0  0  0  0
 14 24  2  0  0  0  0
 15 25  2  0  0  0  0
 16 30  2  0  0  0  0
 16 32  1  0  0  0  0
 17 31  2  0  0  0  0
 17 33  1  0  0  0  0
 18 26  1  0  0  0  0
 18 46  1  0  0  0  0
 19 27  1  0  0  0  0
 19 47  1  0  0  0  0
 20 28  2  0  0  0  0
 20 48  1  0  0  0  0
 21 29  2  0  0  0  0
 21 49  1  0  0  0  0
 22 23  2  0  0  0  0
 22 50  1  0  0  0  0
 23 51  1  0  0  0  0
 24 34  1  0  0  0  0
 24 52  1  0  0  0  0
 25 35  1  0  0  0  0
 25 53  1  0  0  0  0
 26 36  2  0  0  0  0
 26 54  1  0  0  0  0
 27 37  2  0  0  0  0
 27 55  1  0  0  0  0
 28 36  1  0  0  0  0
 28 56  1  0  0  0  0
 29 37  1  0  0  0  0
 29 57  1  0  0  0  0
 30 38  1  0  0  0  0
 30 58  1  0  0  0  0
 31 39  1  0  0  0  0
 31 59  1  0  0  0  0
 32 40  2  0  0  0  0
 32 60  1  0  0  0  0
 33 41  2  0  0  0  0
 33 61  1  0  0  0  0
 34 35  2  0  0  0  0
 34 62  1  0  0  0  0
 35 63  1  0  0  0  0
 36 64  1  0  0  0  0
 37 65  1  0  0  0  0
 38 42  2  0  0  0  0
 38 66  1  0  0  0  0
 39 43  2  0  0  0  0
 39 67  1  0  0  0  0
 40 42  1  0  0  0  0
 40 68  1  0  0  0  0
 41 43  1  0  0  0  0
 41 69  1  0  0  0  0
 42 70  1  0  0  0  0
 43 71  1  0  0  0  0
M  END
> <PUBCHEM_COMPOUND_CID>
145583

> <PUBCHEM_CONFORMER_RMSD>
1

> <PUBCHEM_CONFORMER_DIVERSEORDER>
1

> <PUBCHEM_MMFF94_PARTIAL_CHARGES>
65
1 -0.56
12 -0.15
13 -0.15
18 -0.15
19 -0.15
2 0.71
20 -0.15
21 -0.15
22 -0.15
23 -0.15
24 -0.15
25 -0.15
26 -0.15
27 -0.15
28 -0.15
29 -0.15
3 0.71
30 -0.15
31 -0.15
32 -0.15
33 -0.15
34 -0.15
35 -0.15
36 -0.15
37 -0.15
38 -0.15
39 -0.15
4 -0.14
40 -0.15
41 -0.15
42 -0.15
43 -0.15
44 0.15
45 0.15
46 0.15
47 0.15
48 0.15
49 0.15
5 -0.14
50 0.15
51 0.15
52 0.15
53 0.15
54 0.15
55 0.15
56 0.15
57 0.15
58 0.15
59 0.15
6 -0.14
60 0.15
61 0.15
62 0.15
63 0.15
64 0.15
65 0.15
66 0.15
67 0.15
68 0.15
69 0.15
7 -0.14
70 0.15
71 0.15
8 -0.14
9 -0.14

> <PUBCHEM_EFFECTIVE_ROTOR_COUNT>
4.2

> <PUBCHEM_PHARMACOPHORE_FEATURES>
9
1 1 acceptor
6 14 15 24 25 34 35 rings
6 16 30 32 38 40 42 rings
6 17 31 33 39 41 43 rings
6 4 5 10 11 14 15 rings
6 6 7 12 13 22 23 rings
6 8 18 20 26 28 36 rings
6 9 19 21 27 29 37 rings
7 1 2 3 4 5 6 7 rings

> <PUBCHEM_HEAVY_ATOM_COUNT>
43

> <PUBCHEM_ATOM_DEF_STEREO_COUNT>
0

> <PUBCHEM_ATOM_UDEF_STEREO_COUNT>
2

> <PUBCHEM_BOND_DEF_STEREO_COUNT>
0

> <PUBCHEM_BOND_UDEF_STEREO_COUNT>
0

> <PUBCHEM_ISOTOPIC_ATOM_COUNT>
0

> <PUBCHEM_COMPONENT_COUNT>
1

> <PUBCHEM_CACTVS_TAUTO_COUNT>
1

> <PUBCHEM_CONFORMER_ID>
000238AF00000001

> <PUBCHEM_MMFF94_ENERGY>
196.3245

> <PUBCHEM_FEATURE_SELFOVERLAP>
45.753

> <PUBCHEM_SHAPE_FINGERPRINT>
10006869 2 18046059364070328001
10906281 52 18262527025737850620
11578080 2 17274525603206892939
11763715 3 17828166988356554379
12107698 1 18194403290987930814
12788726 201 18187917422309518544
13140716 1 18341050722471480094
13636023 20 18201710778036212958
140371 6 18124029289227191919
14400156 260 18118962499962162065
15297060 5 17489592256039379513
15361156 5 18336848424254775452
15420108 30 18198909111346333769
15968369 153 18339654373333153480
16112460 7 18201732721608911435
16114785 44 15761644608553929690
17909252 39 18056192712044517799
19311894 1 18339644434921495551
19319366 153 17102859724640294656
20691752 17 17749107773224026846
20764821 26 18189638123467660682
376196 1 17469860643257341191
57527295 17 18261399948736000230
57527585 103 17896902025727022859
70251023 43 17911509107001888671

> <PUBCHEM_SHAPE_MULTIPOLES>
879.05
10.26
5.49
2.65
0
5.76
1.93
-1.86
-4
0
-0.59
0
-3.42
0

> <PUBCHEM_SHAPE_SELFOVERLAP>
2051.849

> <PUBCHEM_SHAPE_VOLUME>
449

> <PUBCHEM_COORDINATE_TYPE>
2
5
10

$$$$
