81595
  -OEChem-11012400553D

 19 20  0     0  0  0  0  0  0999 V2000
    0.9855    0.0289    0.0020 N   0  0  0  0  0  0  0  0  0  0  0  0
    3.0854   -0.7191   -0.0020 N   0  0  0  0  0  0  0  0  0  0  0  0
   -0.3972    0.0110    0.0027 C   0  0  0  0  0  0  0  0  0  0  0  0
   -1.1101    1.2100    0.0015 C   0  0  0  0  0  0  0  0  0  0  0  0
   -1.0793   -1.2059    0.0013 C   0  0  0  0  0  0  0  0  0  0  0  0
    1.7894    1.1404    0.0000 C   0  0  0  0  0  0  0  0  0  0  0  0
    1.8167   -1.0632    0.0009 C   0  0  0  0  0  0  0  0  0  0  0  0
   -2.5048    1.1924   -0.0009 C   0  0  0  0  0  0  0  0  0  0  0  0
   -2.4741   -1.2235   -0.0012 C   0  0  0  0  0  0  0  0  0  0  0  0
   -3.1868   -0.0244   -0.0024 C   0  0  0  0  0  0  0  0  0  0  0  0
    3.0753    0.6533   -0.0020 C   0  0  0  0  0  0  0  0  0  0  0  0
   -0.6361    2.1856    0.0021 H   0  0  0  0  0  0  0  0  0  0  0  0
   -0.5811   -2.1694    0.0018 H   0  0  0  0  0  0  0  0  0  0  0  0
    1.4335    2.1603    0.0002 H   0  0  0  0  0  0  0  0  0  0  0  0
    1.4820   -2.0911    0.0019 H   0  0  0  0  0  0  0  0  0  0  0  0
   -3.0607    2.1255   -0.0019 H   0  0  0  0  0  0  0  0  0  0  0  0
   -3.0061   -2.1704   -0.0025 H   0  0  0  0  0  0  0  0  0  0  0  0
   -4.2727   -0.0382   -0.0044 H   0  0  0  0  0  0  0  0  0  0  0  0
    3.9943    1.2211   -0.0039 H   0  0  0  0  0  0  0  0  0  0  0  0
  1  3  1  0  0  0  0
  1  6  1  0  0  0  0
  1  7  1  0  0  0  0
  2  7  2  0  0  0  0
  2 11  1  0  0  0  0
  3  4  2  0  0  0  0
  3  5  1  0  0  0  0
  4  8  1  0  0  0  0
  4 12  1  0  0  0  0
  5  9  2  0  0  0  0
  5 13  1  0  0  0  0
  6 11  2  0  0  0  0
  6 14  1  0  0  0  0
  7 15  1  0  0  0  0
  8 10  2  0  0  0  0
  8 16  1  0  0  0  0
  9 10  1  0  0  0  0
  9 17  1  0  0  0  0
 10 18  1  0  0  0  0
 11 19  1  0  0  0  0
M  END
> <PUBCHEM_COMPOUND_CID>
81595

> <PUBCHEM_CONFORMER_RMSD>
0.4

> <PUBCHEM_CONFORMER_DIVERSEORDER>
1
2

> <PUBCHEM_MMFF94_PARTIAL_CHARGES>
19
1 0.33
10 -0.15
11 0.08
12 0.15
13 0.15
14 0.15
15 0.15
16 0.15
17 0.15
18 0.15
19 0.15
2 -0.57
3 -0.02
4 -0.15
5 -0.15
6 -0.3
7 0.04
8 -0.15
9 -0.15

> <PUBCHEM_EFFECTIVE_ROTOR_COUNT>
1

> <PUBCHEM_PHARMACOPHORE_FEATURES>
3
3 1 2 7 cation
5 1 2 6 7 11 rings
6 3 4 5 8 9 10 rings

> <PUBCHEM_HEAVY_ATOM_COUNT>
11

> <PUBCHEM_ATOM_DEF_STEREO_COUNT>
0

> <PUBCHEM_ATOM_UDEF_STEREO_COUNT>
0

> <PUBCHEM_BOND_DEF_STEREO_COUNT>
0

> <PUBCHEM_BOND_UDEF_STEREO_COUNT>
0

> <PUBCHEM_ISOTOPIC_ATOM_COUNT>
0

> <PUBCHEM_COMPONENT_COUNT>
1

> <PUBCHEM_CACTVS_TAUTO_COUNT>
1

> <PUBCHEM_CONFORMER_ID>
00013EBB00000001

> <PUBCHEM_MMFF94_ENERGY>
27.6323

> <PUBCHEM_FEATURE_SELFOVERLAP>
15.223

> <PUBCHEM_SHAPE_FINGERPRINT>
10608611 8 18411976966373644624
12897270 3 18410855494524836476
12932764 1 17632572794510794838
13024252 1 15647053768224748841
14144814 61 18410011018081464328
14325111 11 18410573972282470945
15775835 57 18334299734024952393
16945 1 18410573989588856225
17844478 74 18187093862108678233
19973954 147 18410857676384352352
20201158 50 18342457023613105399
20871998 184 18201443648482184887
23402539 116 18201428165414830397
23402655 69 18342447111456418549
23463225 33 18336263440517900834
23552423 10 18260548960752181935
2748010 2 18410856589715123285
3248919 1 18410847763583690662
369184 2 18412262839612631009
5084963 1 18412544297140590169
6333449 129 18412542124177139229

> <PUBCHEM_SHAPE_MULTIPOLES>
216.41
5.25
1.46
0.6
1.01
0
0
0.01
-0.01
-0.29
0
-0.03
0.01
0

> <PUBCHEM_SHAPE_SELFOVERLAP>
471.116

> <PUBCHEM_SHAPE_VOLUME>
119.3

> <PUBCHEM_COORDINATE_TYPE>
2
5
10

$$$$
