698300
  -OEChem-11012401173D

 29 30  0     0  0  0  0  0  0999 V2000
    5.3963    0.9875   -0.1759 O   0  5  0  0  0  0  0  0  0  0  0  0
    3.7605    2.4333    0.0540 O   0  0  0  0  0  0  0  0  0  0  0  0
    4.1854    1.2533    0.0174 N   0  3  0  0  0  0  0  0  0  0  0  0
   -0.4765   -0.5973   -2.6092 N   0  0  0  0  0  0  0  0  0  0  0  0
    0.9902   -0.5887    0.6006 C   0  0  0  0  0  0  0  0  0  0  0  0
   -2.7281    0.0650    0.0249 C   0  0  0  0  0  0  0  0  0  0  0  0
   -0.3941   -0.3126    0.8229 C   0  0  0  0  0  0  0  0  0  0  0  0
   -1.3174   -0.2287   -0.1749 C   0  0  0  0  0  0  0  0  0  0  0  0
    1.9162    0.4558    0.4169 C   0  0  0  0  0  0  0  0  0  0  0  0
    1.4649   -1.9134    0.5595 C   0  0  0  0  0  0  0  0  0  0  0  0
    3.2672    0.1854    0.1999 C   0  0  0  0  0  0  0  0  0  0  0  0
    2.8160   -2.1839    0.3424 C   0  0  0  0  0  0  0  0  0  0  0  0
    3.7172   -1.1344    0.1627 C   0  0  0  0  0  0  0  0  0  0  0  0
   -3.6362   -0.9758    0.2197 C   0  0  0  0  0  0  0  0  0  0  0  0
   -3.1726    1.3871    0.0226 C   0  0  0  0  0  0  0  0  0  0  0  0
   -4.9889   -0.6944    0.4118 C   0  0  0  0  0  0  0  0  0  0  0  0
   -4.5251    1.6685    0.2149 C   0  0  0  0  0  0  0  0  0  0  0  0
   -5.4333    0.6278    0.4095 C   0  0  0  0  0  0  0  0  0  0  0  0
   -0.8418   -0.4345   -1.5197 C   0  0  0  0  0  0  0  0  0  0  0  0
   -0.6948   -0.1591    1.8562 H   0  0  0  0  0  0  0  0  0  0  0  0
    1.5487    1.4806    0.4496 H   0  0  0  0  0  0  0  0  0  0  0  0
    0.7785   -2.7463    0.6983 H   0  0  0  0  0  0  0  0  0  0  0  0
    3.1660   -3.2116    0.3136 H   0  0  0  0  0  0  0  0  0  0  0  0
    4.7622   -1.3829   -0.0039 H   0  0  0  0  0  0  0  0  0  0  0  0
   -3.3060   -2.0119    0.2246 H   0  0  0  0  0  0  0  0  0  0  0  0
   -2.4777    2.2100   -0.1275 H   0  0  0  0  0  0  0  0  0  0  0  0
   -5.6960   -1.5046    0.5634 H   0  0  0  0  0  0  0  0  0  0  0  0
   -4.8713    2.6979    0.2132 H   0  0  0  0  0  0  0  0  0  0  0  0
   -6.4865    0.8470    0.5592 H   0  0  0  0  0  0  0  0  0  0  0  0
  1  3  1  0  0  0  0
  2  3  2  0  0  0  0
  3 11  1  0  0  0  0
  4 19  3  0  0  0  0
  5  7  1  0  0  0  0
  5  9  2  0  0  0  0
  5 10  1  0  0  0  0
  6  8  1  0  0  0  0
  6 14  2  0  0  0  0
  6 15  1  0  0  0  0
  7  8  2  0  0  0  0
  7 20  1  0  0  0  0
  8 19  1  0  0  0  0
  9 11  1  0  0  0  0
  9 21  1  0  0  0  0
 10 12  2  0  0  0  0
 10 22  1  0  0  0  0
 11 13  2  0  0  0  0
 12 13  1  0  0  0  0
 12 23  1  0  0  0  0
 13 24  1  0  0  0  0
 14 16  1  0  0  0  0
 14 25  1  0  0  0  0
 15 17  2  0  0  0  0
 15 26  1  0  0  0  0
 16 18  2  0  0  0  0
 16 27  1  0  0  0  0
 17 18  1  0  0  0  0
 17 28  1  0  0  0  0
 18 29  1  0  0  0  0
M  CHG  2   1  -1   3   1
M  END
> <PUBCHEM_COMPOUND_CID>
698300

> <PUBCHEM_CONFORMER_RMSD>
0.6

> <PUBCHEM_CONFORMER_DIVERSEORDER>
2
10
6
9
5
1
8
12
11
7
3
4

> <PUBCHEM_MMFF94_PARTIAL_CHARGES>
29
1 -0.52
10 -0.15
11 0.13
12 -0.15
13 -0.15
14 -0.15
15 -0.15
16 -0.15
17 -0.15
18 -0.15
19 0.49
2 -0.52
20 0.15
21 0.15
22 0.15
23 0.15
24 0.15
25 0.15
26 0.15
27 0.15
28 0.15
29 0.15
3 0.91
4 -0.56
5 0.03
6 0.03
7 -0.18
8 0.04
9 -0.15

> <PUBCHEM_EFFECTIVE_ROTOR_COUNT>
3

> <PUBCHEM_PHARMACOPHORE_FEATURES>
6
1 1 acceptor
1 1 anion
1 2 acceptor
1 4 acceptor
6 5 9 10 11 12 13 rings
6 6 14 15 16 17 18 rings

> <PUBCHEM_HEAVY_ATOM_COUNT>
19

> <PUBCHEM_ATOM_DEF_STEREO_COUNT>
0

> <PUBCHEM_ATOM_UDEF_STEREO_COUNT>
0

> <PUBCHEM_BOND_DEF_STEREO_COUNT>
1

> <PUBCHEM_BOND_UDEF_STEREO_COUNT>
0

> <PUBCHEM_ISOTOPIC_ATOM_COUNT>
0

> <PUBCHEM_COMPONENT_COUNT>
1

> <PUBCHEM_CACTVS_TAUTO_COUNT>
1

> <PUBCHEM_CONFORMER_ID>
000AA7BC00000002

> <PUBCHEM_MMFF94_ENERGY>
62.7943

> <PUBCHEM_FEATURE_SELFOVERLAP>
30.528

> <PUBCHEM_SHAPE_FINGERPRINT>
11132069 177 16950281814783040071
12107183 9 17690280404923596393
12236239 1 18060699485625989122
12403259 118 18270387296545715633
12507560 40 18260547775937274829
12670546 56 18335699408538390231
12730499 353 18334023791272366930
12895836 83 17203325684447731268
13167823 11 18411416181505727331
13760787 19 18273212010631894775
14289901 80 18410289212030507555
14341114 176 18409175385445292025
14528608 73 18410575106169570447
14787075 74 18262236728729048041
15196674 1 18408885105553619905
15239154 128 18409730634285117585
15342168 16 18042128815995655876
16752209 62 16271930354872917139
17349148 13 12540693695751766955
17834072 33 18411697690720545099
17844677 252 18338525131799427129
1813 80 16298393431137931327
18186145 218 17894908482106863562
18222031 100 15936415528719403703
20645476 183 17917704742526899838
20645477 70 18342460288089255446
21652331 79 18409166597657796345
21756936 100 18199460142569419958
22079108 93 18335136548236060859
22854114 59 17822009808981435729
23227448 37 18268992157802293037
23402655 69 18342174457841217778
23559900 14 18124312710030212155
245318 6 16881902246133714844
314173 85 16009031661831847631
3286 77 17968937466487291130
34797466 226 18201166507116393605
3545911 37 18407762538483370161
4214541 1 18337390431662707649
449060 50 18260547818660087867
474 4 18113622325976700296
5104073 3 18260549987644901633
542803 24 17846781784928694801
621550 34 17749101171664179022
633830 44 18270679758238868439
6442390 28 18186804707556836930
77779 3 18409730625832307179
81539 233 17632297818110143759
8272917 22 18270685259659548567
960060 61 12247681616935821776

> <PUBCHEM_SHAPE_MULTIPOLES>
369.31
11.26
1.9
1.13
2.98
0.3
0.92
3.85
-1.73
-1.65
-0.22
0.24
-0.26
-0.26

> <PUBCHEM_SHAPE_SELFOVERLAP>
798.681

> <PUBCHEM_SHAPE_VOLUME>
200

> <PUBCHEM_COORDINATE_TYPE>
2
5
10

$$$$
