524996
  -OEChem-11012401043D

 40 42  0     0  0  0  0  0  0999 V2000
   -0.9704    0.0234   -0.3006 Si  0  0  0  0  0  0  0  0  0  0  0  0
   -1.8071    0.0388   -1.7561 O   0  0  0  0  0  0  0  0  0  0  0  0
   -1.4102   -1.3584    0.5458 O   0  0  0  0  0  0  0  0  0  0  0  0
   -1.4440    1.3628    0.5940 O   0  0  0  0  0  0  0  0  0  0  0  0
   -4.2256   -0.0265    0.2305 N   0  0  0  0  0  0  0  0  0  0  0  0
    0.8720    0.0516   -0.6011 C   0  0  0  0  0  0  0  0  0  0  0  0
   -4.2299   -0.1094   -1.2271 C   0  0  0  0  0  0  0  0  0  0  0  0
   -3.8535   -1.2261    0.9748 C   0  0  0  0  0  0  0  0  0  0  0  0
   -3.9148    1.2665    0.8331 C   0  0  0  0  0  0  0  0  0  0  0  0
   -2.9971   -0.7320   -1.9026 C   0  0  0  0  0  0  0  0  0  0  0  0
   -2.4262   -1.2900    1.5432 C   0  0  0  0  0  0  0  0  0  0  0  0
   -2.6788    2.0131    0.3046 C   0  0  0  0  0  0  0  0  0  0  0  0
    1.7416    0.0400    0.6619 C   0  0  0  0  0  0  0  0  0  0  0  0
    3.2117    0.0145    0.3252 C   0  0  0  0  0  0  0  0  0  0  0  0
    3.8545   -1.2048    0.1757 C   0  0  0  0  0  0  0  0  0  0  0  0
    3.8954    1.2108    0.1705 C   0  0  0  0  0  0  0  0  0  0  0  0
    5.2139   -1.2286   -0.1360 C   0  0  0  0  0  0  0  0  0  0  0  0
    5.2547    1.1870   -0.1413 C   0  0  0  0  0  0  0  0  0  0  0  0
    5.9140   -0.0327   -0.2944 C   0  0  0  0  0  0  0  0  0  0  0  0
    1.1104    0.9403   -1.1986 H   0  0  0  0  0  0  0  0  0  0  0  0
    1.1267   -0.8128   -1.2272 H   0  0  0  0  0  0  0  0  0  0  0  0
   -4.4183    0.8813   -1.6591 H   0  0  0  0  0  0  0  0  0  0  0  0
   -5.0983   -0.7163   -1.5138 H   0  0  0  0  0  0  0  0  0  0  0  0
   -4.0415   -2.1193    0.3662 H   0  0  0  0  0  0  0  0  0  0  0  0
   -4.5448   -1.3075    1.8235 H   0  0  0  0  0  0  0  0  0  0  0  0
   -3.8381    1.1644    1.9227 H   0  0  0  0  0  0  0  0  0  0  0  0
   -4.7828    1.9175    0.6672 H   0  0  0  0  0  0  0  0  0  0  0  0
   -2.8362   -1.7747   -1.6013 H   0  0  0  0  0  0  0  0  0  0  0  0
   -3.1981   -0.7730   -2.9803 H   0  0  0  0  0  0  0  0  0  0  0  0
   -2.2251   -0.4862    2.2626 H   0  0  0  0  0  0  0  0  0  0  0  0
   -2.3434   -2.2189    2.1211 H   0  0  0  0  0  0  0  0  0  0  0  0
   -2.7609    2.2565   -0.7623 H   0  0  0  0  0  0  0  0  0  0  0  0
   -2.6358    2.9822    0.8171 H   0  0  0  0  0  0  0  0  0  0  0  0
    1.4999   -0.8289    1.2893 H   0  0  0  0  0  0  0  0  0  0  0  0
    1.5254    0.9180    1.2858 H   0  0  0  0  0  0  0  0  0  0  0  0
    3.3174   -2.1414    0.2950 H   0  0  0  0  0  0  0  0  0  0  0  0
    3.3903    2.1656    0.2857 H   0  0  0  0  0  0  0  0  0  0  0  0
    5.7272   -2.1782   -0.2559 H   0  0  0  0  0  0  0  0  0  0  0  0
    5.7999    2.1182   -0.2654 H   0  0  0  0  0  0  0  0  0  0  0  0
    6.9724   -0.0510   -0.5374 H   0  0  0  0  0  0  0  0  0  0  0  0
  1  2  1  0  0  0  0
  1  3  1  0  0  0  0
  1  4  1  0  0  0  0
  1  6  1  0  0  0  0
  2 10  1  0  0  0  0
  3 11  1  0  0  0  0
  4 12  1  0  0  0  0
  5  7  1  0  0  0  0
  5  8  1  0  0  0  0
  5  9  1  0  0  0  0
  6 13  1  0  0  0  0
  6 20  1  0  0  0  0
  6 21  1  0  0  0  0
  7 10  1  0  0  0  0
  7 22  1  0  0  0  0
  7 23  1  0  0  0  0
  8 11  1  0  0  0  0
  8 24  1  0  0  0  0
  8 25  1  0  0  0  0
  9 12  1  0  0  0  0
  9 26  1  0  0  0  0
  9 27  1  0  0  0  0
 10 28  1  0  0  0  0
 10 29  1  0  0  0  0
 11 30  1  0  0  0  0
 11 31  1  0  0  0  0
 12 32  1  0  0  0  0
 12 33  1  0  0  0  0
 13 14  1  0  0  0  0
 13 34  1  0  0  0  0
 13 35  1  0  0  0  0
 14 15  2  0  0  0  0
 14 16  1  0  0  0  0
 15 17  1  0  0  0  0
 15 36  1  0  0  0  0
 16 18  2  0  0  0  0
 16 37  1  0  0  0  0
 17 19  2  0  0  0  0
 17 38  1  0  0  0  0
 18 19  1  0  0  0  0
 18 39  1  0  0  0  0
 19 40  1  0  0  0  0
M  END
> <PUBCHEM_COMPOUND_CID>
524996

> <PUBCHEM_CONFORMER_RMSD>
0.6

> <PUBCHEM_CONFORMER_DIVERSEORDER>
1
5
4
2
3
6

> <PUBCHEM_MMFF94_PARTIAL_CHARGES>
24
1 0.97
10 0.28
11 0.28
12 0.28
13 0.14
14 -0.14
15 -0.15
16 -0.15
17 -0.15
18 -0.15
19 -0.15
2 -0.58
3 -0.58
36 0.15
37 0.15
38 0.15
39 0.15
4 -0.58
40 0.15
5 -0.81
6 -0.08
7 0.27
8 0.27
9 0.27

> <PUBCHEM_EFFECTIVE_ROTOR_COUNT>
4.8

> <PUBCHEM_PHARMACOPHORE_FEATURES>
2
1 5 cation
6 14 15 16 17 18 19 rings

> <PUBCHEM_HEAVY_ATOM_COUNT>
19

> <PUBCHEM_ATOM_DEF_STEREO_COUNT>
0

> <PUBCHEM_ATOM_UDEF_STEREO_COUNT>
0

> <PUBCHEM_BOND_DEF_STEREO_COUNT>
0

> <PUBCHEM_BOND_UDEF_STEREO_COUNT>
0

> <PUBCHEM_ISOTOPIC_ATOM_COUNT>
0

> <PUBCHEM_COMPONENT_COUNT>
1

> <PUBCHEM_CACTVS_TAUTO_COUNT>
1

> <PUBCHEM_CONFORMER_ID>
000802C400000001

> <PUBCHEM_MMFF94_ENERGY>
58.012

> <PUBCHEM_FEATURE_SELFOVERLAP>
10.148

> <PUBCHEM_SHAPE_FINGERPRINT>
10366900 7 18412820300339385594
10680689 15 17989487428708922896
11315181 36 18187366545435046368
11552529 35 18263084481805790426
12107183 9 17620760479533129098
12236239 1 18343018891261168020
128620 24 15430035457284664706
13167823 11 18201435857437467750
13214271 11 18341898489423933101
13533116 47 18335977571747695498
14341114 176 18335994120504320864
15788980 27 17989489606774189772
17834072 33 18273213101927816012
17844677 252 18343308071942158848
18186145 218 17894629245483055032
18927931 339 18341903995213473135
200 152 18272647960960825002
20645477 56 17095237029847921126
20645477 70 18410573951673239518
21033648 29 17531230769272286076
22646028 1 17846494838073932500
2306618 200 16845573098024785457
23402539 116 18343017778859343973
23557571 272 17240484685004478998
23559900 14 18334853961016119712
2838139 119 17845367757347353417
3545911 37 18113338617933169050
4214541 1 18408608037282037144
5104073 3 18410855435049559376
542803 24 18411700980797265228
59755656 520 18186799146080220203
633830 44 18410292484906337054
77779 3 18409172104148300104
90127 26 18201445774717511736

> <PUBCHEM_SHAPE_MULTIPOLES>
386.63
12.58
1.58
1.33
14.66
0.3
-0.38
-0.09
-0.36
-0.38
0.38
-1.77
-0.31
-0.05

> <PUBCHEM_SHAPE_SELFOVERLAP>
790.999

> <PUBCHEM_SHAPE_VOLUME>
221.1

> <PUBCHEM_COORDINATE_TYPE>
2
5
10

$$$$
