95677
  -OEChem-11012400363D

 22 22  0     0  0  0  0  0  0999 V2000
    2.1761   -1.8888   -0.8510 O   0  0  0  0  0  0  0  0  0  0  0  0
    3.6237   -0.0736    0.6352 O   0  0  0  0  0  0  0  0  0  0  0  0
    0.2356   -1.9356    0.3365 O   0  0  0  0  0  0  0  0  0  0  0  0
    3.0000    1.9142   -0.2752 O   0  0  0  0  0  0  0  0  0  0  0  0
   -1.0935    0.5930    0.0686 C   0  0  0  0  0  0  0  0  0  0  0  0
    0.3107    0.9668    0.1342 C   0  0  0  0  0  0  0  0  0  0  0  0
   -1.7569    0.5866   -1.1585 C   0  0  0  0  0  0  0  0  0  0  0  0
   -1.7769    0.2410    1.2326 C   0  0  0  0  0  0  0  0  0  0  0  0
    1.3840    0.1456    0.0245 C   0  0  0  0  0  0  0  0  0  0  0  0
   -3.1035    0.2284   -1.2217 C   0  0  0  0  0  0  0  0  0  0  0  0
   -3.1235   -0.1173    1.1694 C   0  0  0  0  0  0  0  0  0  0  0  0
   -3.7867   -0.1235   -0.0577 C   0  0  0  0  0  0  0  0  0  0  0  0
    1.1835   -1.3180   -0.1258 C   0  0  0  0  0  0  0  0  0  0  0  0
    2.7274    0.7812    0.0888 C   0  0  0  0  0  0  0  0  0  0  0  0
    0.4638    2.0373    0.2626 H   0  0  0  0  0  0  0  0  0  0  0  0
   -1.2381    0.8585   -2.0746 H   0  0  0  0  0  0  0  0  0  0  0  0
   -1.2742    0.2415    2.1969 H   0  0  0  0  0  0  0  0  0  0  0  0
   -3.6200    0.2234   -2.1770 H   0  0  0  0  0  0  0  0  0  0  0  0
   -3.6558   -0.3914    2.0756 H   0  0  0  0  0  0  0  0  0  0  0  0
   -4.8352   -0.4025   -0.1069 H   0  0  0  0  0  0  0  0  0  0  0  0
    2.0442   -2.8552   -0.9562 H   0  0  0  0  0  0  0  0  0  0  0  0
    4.5188    0.3229    0.6972 H   0  0  0  0  0  0  0  0  0  0  0  0
  1 13  1  0  0  0  0
  1 21  1  0  0  0  0
  2 14  1  0  0  0  0
  2 22  1  0  0  0  0
  3 13  2  0  0  0  0
  4 14  2  0  0  0  0
  5  6  1  0  0  0  0
  5  7  2  0  0  0  0
  5  8  1  0  0  0  0
  6  9  2  0  0  0  0
  6 15  1  0  0  0  0
  7 10  1  0  0  0  0
  7 16  1  0  0  0  0
  8 11  2  0  0  0  0
  8 17  1  0  0  0  0
  9 13  1  0  0  0  0
  9 14  1  0  0  0  0
 10 12  2  0  0  0  0
 10 18  1  0  0  0  0
 11 12  1  0  0  0  0
 11 19  1  0  0  0  0
 12 20  1  0  0  0  0
M  END
> <PUBCHEM_COMPOUND_CID>
95677

> <PUBCHEM_CONFORMER_RMSD>
0.6

> <PUBCHEM_CONFORMER_DIVERSEORDER>
1
6
3
5
2
4

> <PUBCHEM_MMFF94_PARTIAL_CHARGES>
22
1 -0.65
10 -0.15
11 -0.15
12 -0.15
13 0.71
14 0.71
15 0.15
16 0.15
17 0.15
18 0.15
19 0.15
2 -0.65
20 0.15
21 0.5
22 0.5
3 -0.57
4 -0.57
5 0.03
6 -0.18
7 -0.15
8 -0.15
9 0.03

> <PUBCHEM_EFFECTIVE_ROTOR_COUNT>
3

> <PUBCHEM_PHARMACOPHORE_FEATURES>
7
1 1 acceptor
1 2 acceptor
1 3 acceptor
1 4 acceptor
3 1 3 13 anion
3 2 4 14 anion
6 5 7 8 10 11 12 rings

> <PUBCHEM_HEAVY_ATOM_COUNT>
14

> <PUBCHEM_ATOM_DEF_STEREO_COUNT>
0

> <PUBCHEM_ATOM_UDEF_STEREO_COUNT>
0

> <PUBCHEM_BOND_DEF_STEREO_COUNT>
0

> <PUBCHEM_BOND_UDEF_STEREO_COUNT>
0

> <PUBCHEM_ISOTOPIC_ATOM_COUNT>
0

> <PUBCHEM_COMPONENT_COUNT>
1

> <PUBCHEM_CACTVS_TAUTO_COUNT>
1

> <PUBCHEM_CONFORMER_ID>
000175BD00000001

> <PUBCHEM_MMFF94_ENERGY>
41.9948

> <PUBCHEM_FEATURE_SELFOVERLAP>
35.642

> <PUBCHEM_SHAPE_FINGERPRINT>
10219947 1 18334012821677862156
107287 299 18409455799132531204
11132069 177 18340760546165009602
13380535 76 18412544353318290138
13380536 127 16343421709101996017
13581323 91 15430035461416121249
14144814 61 16559033774819581409
14251717 144 18413105061150817063
15219456 202 18114179709768316685
15279307 12 17703787024602471383
15375358 24 17967806146500194877
15375462 189 17632858642128268403
15775835 57 18130787871460352181
16945 1 18273215317582424960
18175812 5 17748825236878619677
18186145 218 18201158857695736828
19422 9 17632583716844847719
200 152 18272359872145967709
20201158 50 18114178614514655099
20279233 1 17967533454647097883
204376 136 18267302217506009264
20645464 45 17748544831907947841
20645477 70 18270110211310515839
21499 59 18269555103745960372
21639500 275 18341604975232314360
21730867 7 18408887317203242910
228727 97 17561369503833256161
23236772 104 17632579374748832681
23402539 116 16950830484365620503
23557571 272 17167581575119909621
23559900 14 16660635242301622264
2748010 2 18051687746717299940
474 4 17487602242429385424
57812782 119 17530958081682098288
581208 293 18413951689288285098
77492 1 17561083592371463305
81228 2 17241894181565427613

> <PUBCHEM_SHAPE_MULTIPOLES>
264.64
6.09
1.52
1.11
0.13
0.48
-0.01
-0.7
0.08
-1.41
-0.2
0.85
0
0.31

> <PUBCHEM_SHAPE_SELFOVERLAP>
558.185

> <PUBCHEM_SHAPE_VOLUME>
147.2

> <PUBCHEM_COORDINATE_TYPE>
2
5
10

$$$$
