137840
  -OEChem-11012401023D

 26 25  0     0  0  0  0  0  0999 V2000
   -4.5438   -1.5763   -0.6283 Cl  0  0  0  0  0  0  0  0  0  0  0  0
    0.5381   -0.1686    0.1477 O   0  0  0  0  0  0  0  0  0  0  0  0
   -0.5805    1.7801   -0.3755 O   0  0  0  0  0  0  0  0  0  0  0  0
    2.9138   -0.5249    0.1017 C   0  0  0  0  0  0  0  0  0  0  0  0
    4.2815    0.0987   -0.1614 C   0  0  0  0  0  0  0  0  0  0  0  0
    1.7874    0.4723   -0.1299 C   0  0  0  0  0  0  0  0  0  0  0  0
   -1.7994   -0.2127    0.3041 C   0  0  0  0  0  0  0  0  0  0  0  0
   -3.0852    0.6054    0.1704 C   0  0  0  0  0  0  0  0  0  0  0  0
    5.4056   -0.8874    0.1126 C   0  0  0  0  0  0  0  0  0  0  0  0
   -0.5722    0.6103   -0.0182 C   0  0  0  0  0  0  0  0  0  0  0  0
   -4.3453   -0.1969    0.4768 C   0  0  0  0  0  0  0  0  0  0  0  0
    2.7641   -1.4001   -0.5427 H   0  0  0  0  0  0  0  0  0  0  0  0
    2.8587   -0.8990    1.1318 H   0  0  0  0  0  0  0  0  0  0  0  0
    4.4173    0.9814    0.4744 H   0  0  0  0  0  0  0  0  0  0  0  0
    4.3427    0.4362   -1.2025 H   0  0  0  0  0  0  0  0  0  0  0  0
    1.9053    1.3357    0.5353 H   0  0  0  0  0  0  0  0  0  0  0  0
    1.7951    0.8143   -1.1715 H   0  0  0  0  0  0  0  0  0  0  0  0
   -1.8064   -1.0637   -0.3843 H   0  0  0  0  0  0  0  0  0  0  0  0
   -1.7054   -0.5831    1.3310 H   0  0  0  0  0  0  0  0  0  0  0  0
   -3.0414    1.4643    0.8518 H   0  0  0  0  0  0  0  0  0  0  0  0
   -3.1545    1.0211   -0.8431 H   0  0  0  0  0  0  0  0  0  0  0  0
    5.3925   -1.2176    1.1562 H   0  0  0  0  0  0  0  0  0  0  0  0
    5.3175   -1.7704   -0.5286 H   0  0  0  0  0  0  0  0  0  0  0  0
    6.3758   -0.4205   -0.0837 H   0  0  0  0  0  0  0  0  0  0  0  0
   -5.2318    0.4363    0.3768 H   0  0  0  0  0  0  0  0  0  0  0  0
   -4.3182   -0.5899    1.4976 H   0  0  0  0  0  0  0  0  0  0  0  0
  1 11  1  0  0  0  0
  2  6  1  0  0  0  0
  2 10  1  0  0  0  0
  3 10  2  0  0  0  0
  4  5  1  0  0  0  0
  4  6  1  0  0  0  0
  4 12  1  0  0  0  0
  4 13  1  0  0  0  0
  5  9  1  0  0  0  0
  5 14  1  0  0  0  0
  5 15  1  0  0  0  0
  6 16  1  0  0  0  0
  6 17  1  0  0  0  0
  7  8  1  0  0  0  0
  7 10  1  0  0  0  0
  7 18  1  0  0  0  0
  7 19  1  0  0  0  0
  8 11  1  0  0  0  0
  8 20  1  0  0  0  0
  8 21  1  0  0  0  0
  9 22  1  0  0  0  0
  9 23  1  0  0  0  0
  9 24  1  0  0  0  0
 11 25  1  0  0  0  0
 11 26  1  0  0  0  0
M  END
> <PUBCHEM_COMPOUND_CID>
137840

> <PUBCHEM_CONFORMER_RMSD>
0.8

> <PUBCHEM_CONFORMER_DIVERSEORDER>
1
61
192
36
131
17
112
186
170
130
7
202
28
76
19
144
163
113
32
150
114
154
201
81
5
183
93
75
80
35
197
18
84
119
182
104
184
171
127
143
111
196
94
42
160
149
67
40
87
180
118
103
85
79
117
200
128
142
189
188
45
102
23
53
177
98
69
96
64
178
136
97
123
11
25
52
13
199
137
168
24
179
159
26
187
115
148
30
38
20
166
37
181
29
92
147
46
175
90
91
185
195
2
152
68
8
129
156
134
110
132
66
162
158
121
194
6
86
49
108
138
133
12
120
116
59
125
126
107
73
165
190
78
3
173
74
57
167
16
193
124
100
47
191
44
140
9
153
203
161
77
56
169
141
139
146
50
54
95
89
14
176
70
10
145
99
60
48
62
71
157
43
63
34
172
4
21
22
88
65
83
109
101
15
174
198
82
39
122
106
27
164
151
135
72
58
155
41
105
31
51
55
33

> <PUBCHEM_MMFF94_PARTIAL_CHARGES>
7
1 -0.29
10 0.66
11 0.29
2 -0.43
3 -0.57
6 0.28
7 0.06

> <PUBCHEM_EFFECTIVE_ROTOR_COUNT>
7

> <PUBCHEM_PHARMACOPHORE_FEATURES>
2
1 3 acceptor
1 9 hydrophobe

> <PUBCHEM_HEAVY_ATOM_COUNT>
11

> <PUBCHEM_ATOM_DEF_STEREO_COUNT>
0

> <PUBCHEM_ATOM_UDEF_STEREO_COUNT>
0

> <PUBCHEM_BOND_DEF_STEREO_COUNT>
0

> <PUBCHEM_BOND_UDEF_STEREO_COUNT>
0

> <PUBCHEM_ISOTOPIC_ATOM_COUNT>
0

> <PUBCHEM_COMPONENT_COUNT>
1

> <PUBCHEM_CACTVS_TAUTO_COUNT>
1

> <PUBCHEM_CONFORMER_ID>
00021A7000000001

> <PUBCHEM_MMFF94_ENERGY>
2.8091

> <PUBCHEM_FEATURE_SELFOVERLAP>
10.148

> <PUBCHEM_SHAPE_FINGERPRINT>
100836 57 9151177575199839623
11062470 55 11386370344037289728
114248 4 15068343427541095915
13690532 89 18334858324602340522
14123238 8 18411983563791083662
14252887 29 16702312230467965174
17834072 33 18342740762359301948
17834076 25 15936411126229991945
18342897 14 9727635003235460310
187816 3 16950566579572733505
200 152 17967814933602284224
20605781 2 8286204950419634351
20645477 70 14346064288248477104
20719005 15 18409731759571693866
20724930 69 8430321246712954327
20767249 13 18186801383204202554
20828058 44 17846500339742597719
21119208 17 15357698599729797098
22485316 2 18411698764251275027
23402539 116 18334572425825074525
42788 4 18408605855095590368
449060 50 13398630550221468024
49783359 22 17917709106292910503
57483677 66 18412825763881138254

> <PUBCHEM_SHAPE_MULTIPOLES>
216.51
11.46
1.28
0.69
5.53
0
0.01
5.22
-0.04
-0.86
0.22
-0.26
0.04
-0.47

> <PUBCHEM_SHAPE_SELFOVERLAP>
385.306

> <PUBCHEM_SHAPE_VOLUME>
140.8

> <PUBCHEM_COORDINATE_TYPE>
2
5
10

$$$$
