138579
  -OEChem-11012400413D

 21 21  0     1  0  0  0  0  0999 V2000
   -0.7143    0.2351   -0.4604 C   0  0  0  0  0  0  0  0  0  0  0  0
   -2.1286    0.0112   -0.0936 C   0  0  0  0  0  0  0  0  0  0  0  0
   -1.4333    1.2832    0.2944 C   0  0  0  0  0  0  0  0  0  0  0  0
    0.3494   -0.5741    0.2854 C   0  0  2  0  0  0  0  0  0  0  0  0
    1.7511   -0.1715   -0.2050 C   0  0  0  0  0  0  0  0  0  0  0  0
    0.0788   -2.0691    0.1103 C   0  0  0  0  0  0  0  0  0  0  0  0
    2.0969    1.2852    0.0689 C   0  0  0  0  0  0  0  0  0  0  0  0
   -0.4986    0.3858   -1.5103 H   0  0  0  0  0  0  0  0  0  0  0  0
   -2.3900   -0.6627    0.7122 H   0  0  0  0  0  0  0  0  0  0  0  0
   -2.8713    0.0653   -0.8807 H   0  0  0  0  0  0  0  0  0  0  0  0
   -1.7078    2.1884   -0.2336 H   0  0  0  0  0  0  0  0  0  0  0  0
   -1.2099    1.4348    1.3430 H   0  0  0  0  0  0  0  0  0  0  0  0
    0.2922   -0.3597    1.3611 H   0  0  0  0  0  0  0  0  0  0  0  0
    1.8433   -0.3621   -1.2814 H   0  0  0  0  0  0  0  0  0  0  0  0
    2.4982   -0.8023    0.2921 H   0  0  0  0  0  0  0  0  0  0  0  0
   -0.8737   -2.3674    0.5584 H   0  0  0  0  0  0  0  0  0  0  0  0
    0.8652   -2.6615    0.5902 H   0  0  0  0  0  0  0  0  0  0  0  0
    0.0490   -2.3424   -0.9502 H   0  0  0  0  0  0  0  0  0  0  0  0
    3.1307    1.4877   -0.2286 H   0  0  0  0  0  0  0  0  0  0  0  0
    1.9997    1.5176    1.1341 H   0  0  0  0  0  0  0  0  0  0  0  0
    1.4510    1.9654   -0.4942 H   0  0  0  0  0  0  0  0  0  0  0  0
  1  2  1  0  0  0  0
  1  3  1  0  0  0  0
  1  4  1  0  0  0  0
  1  8  1  0  0  0  0
  2  3  1  0  0  0  0
  2  9  1  0  0  0  0
  2 10  1  0  0  0  0
  3 11  1  0  0  0  0
  3 12  1  0  0  0  0
  4  5  1  0  0  0  0
  4  6  1  0  0  0  0
  4 13  1  0  0  0  0
  5  7  1  0  0  0  0
  5 14  1  0  0  0  0
  5 15  1  0  0  0  0
  6 16  1  0  0  0  0
  6 17  1  0  0  0  0
  6 18  1  0  0  0  0
  7 19  1  0  0  0  0
  7 20  1  0  0  0  0
  7 21  1  0  0  0  0
M  END
> <PUBCHEM_COMPOUND_CID>
138579

> <PUBCHEM_CONFORMER_RMSD>
0.4

> <PUBCHEM_CONFORMER_DIVERSEORDER>
3
6
5
7
10
9
2
4
1
8

> <PUBCHEM_MMFF94_PARTIAL_CHARGES>
9
1 -0.19
10 0.1
11 0.1
12 0.1
2 -0.2
3 -0.2
4 0.09
8 0.1
9 0.1

> <PUBCHEM_EFFECTIVE_ROTOR_COUNT>
2.6

> <PUBCHEM_PHARMACOPHORE_FEATURES>
2
1 6 hydrophobe
1 7 hydrophobe

> <PUBCHEM_HEAVY_ATOM_COUNT>
7

> <PUBCHEM_ATOM_DEF_STEREO_COUNT>
0

> <PUBCHEM_ATOM_UDEF_STEREO_COUNT>
1

> <PUBCHEM_BOND_DEF_STEREO_COUNT>
0

> <PUBCHEM_BOND_UDEF_STEREO_COUNT>
0

> <PUBCHEM_ISOTOPIC_ATOM_COUNT>
0

> <PUBCHEM_COMPONENT_COUNT>
1

> <PUBCHEM_CACTVS_TAUTO_COUNT>
1

> <PUBCHEM_CONFORMER_ID>
00021D5300000003

> <PUBCHEM_MMFF94_ENERGY>
9.9831

> <PUBCHEM_FEATURE_SELFOVERLAP>
10.149

> <PUBCHEM_SHAPE_FINGERPRINT>
16714656 1 18266180715144179959
18185500 45 17908701726585888611
20096714 4 18339923723158283764
21040471 1 18409449219385058508
23552423 10 18268146453230486607
23552449 1 17835801172475937696
24536 1 18050270493224297371
29004967 10 17759246189048818211
5084963 1 18201436956595674032

> <PUBCHEM_SHAPE_MULTIPOLES>
144.06
2.71
1.76
0.68
0.24
0.69
0.01
-1.12
0.05
0.22
-0.16
-0.03
-0.01
-0.04

> <PUBCHEM_SHAPE_SELFOVERLAP>
266.202

> <PUBCHEM_SHAPE_VOLUME>
93.8

> <PUBCHEM_COORDINATE_TYPE>
2
5
10

$$$$
