79151
  -OEChem-11012401003D

 86 90  0     0  0  0  0  0  0999 V2000
   -6.3196    3.1544   -1.0745 O   0  0  0  0  0  0  0  0  0  0  0  0
   -6.2743   -3.4180    1.1651 O   0  0  0  0  0  0  0  0  0  0  0  0
   -6.1244    2.7700    1.1919 O   0  0  0  0  0  0  0  0  0  0  0  0
   -6.2069   -2.6385   -1.0053 O   0  0  0  0  0  0  0  0  0  0  0  0
    2.9777    1.3953    0.1054 N   0  0  0  0  0  0  0  0  0  0  0  0
    3.0844   -1.6127   -0.3710 N   0  0  0  0  0  0  0  0  0  0  0  0
    0.0869    1.3697    0.0884 N   0  0  0  0  0  0  0  0  0  0  0  0
    0.1389   -1.5033   -0.0867 N   0  0  0  0  0  0  0  0  0  0  0  0
    4.8507   -2.5408    0.5920 C   0  0  0  0  0  0  0  0  0  0  0  0
    4.3528   -1.3499    0.0972 C   0  0  0  0  0  0  0  0  0  0  0  0
    4.0221    3.3862   -0.1140 C   0  0  0  0  0  0  0  0  0  0  0  0
    4.3119    1.1065   -0.0362 C   0  0  0  0  0  0  0  0  0  0  0  0
    2.7133    2.7423    0.0620 C   0  0  0  0  0  0  0  0  0  0  0  0
    4.9694    2.4203   -0.1733 C   0  0  0  0  0  0  0  0  0  0  0  0
    3.8499   -3.5286    0.4394 C   0  0  0  0  0  0  0  0  0  0  0  0
    2.7503   -2.9291   -0.1428 C   0  0  0  0  0  0  0  0  0  0  0  0
    4.9564   -0.0725   -0.0394 C   0  0  0  0  0  0  0  0  0  0  0  0
   -1.8712    2.3959    0.6855 C   0  0  0  0  0  0  0  0  0  0  0  0
   -1.9224   -2.4246   -0.7150 C   0  0  0  0  0  0  0  0  0  0  0  0
   -0.9580    3.3779    0.6881 C   0  0  0  0  0  0  0  0  0  0  0  0
    0.2624    2.6412    0.3013 C   0  0  0  0  0  0  0  0  0  0  0  0
   -0.9610   -3.3372   -0.9139 C   0  0  0  0  0  0  0  0  0  0  0  0
   -1.2474    1.1354    0.3150 C   0  0  0  0  0  0  0  0  0  0  0  0
    0.3328   -2.7939   -0.5259 C   0  0  0  0  0  0  0  0  0  0  0  0
   -1.1404   -1.2861   -0.1904 C   0  0  0  0  0  0  0  0  0  0  0  0
    1.5379    3.3819    0.1580 C   0  0  0  0  0  0  0  0  0  0  0  0
    6.1946   -2.7519    1.1739 C   0  0  0  0  0  0  0  0  0  0  0  0
    4.1876    4.8648   -0.2045 C   0  0  0  0  0  0  0  0  0  0  0  0
    1.5008   -3.4577   -0.5565 C   0  0  0  0  0  0  0  0  0  0  0  0
   -3.3242    2.5094    1.0040 C   0  0  0  0  0  0  0  0  0  0  0  0
   -3.3832   -2.4556   -0.9521 C   0  0  0  0  0  0  0  0  0  0  0  0
   -1.8631   -0.0496    0.1961 C   0  0  0  0  0  0  0  0  0  0  0  0
    6.4422    2.5754   -0.3472 C   0  0  0  0  0  0  0  0  0  0  0  0
    3.9648   -4.9497    0.8337 C   0  0  0  0  0  0  0  0  0  0  0  0
   -1.0543    4.8220    0.9969 C   0  0  0  0  0  0  0  0  0  0  0  0
   -1.1268   -4.7200   -1.4500 C   0  0  0  0  0  0  0  0  0  0  0  0
   -4.1614    2.7758   -0.2446 C   0  0  0  0  0  0  0  0  0  0  0  0
   -4.1614   -2.9284    0.2789 C   0  0  0  0  0  0  0  0  0  0  0  0
    7.2434   -3.1505    0.1345 C   0  0  0  0  0  0  0  0  0  0  0  0
    4.0939    5.3615   -1.6375 C   0  0  0  0  0  0  0  0  0  0  0  0
   -5.6341    2.8927    0.0779 C   0  0  0  0  0  0  0  0  0  0  0  0
   -5.6534   -2.9649    0.0357 C   0  0  0  0  0  0  0  0  0  0  0  0
   -7.7369    3.2916   -0.9310 C   0  0  0  0  0  0  0  0  0  0  0  0
   -7.7008   -3.5070    1.0906 C   0  0  0  0  0  0  0  0  0  0  0  0
    6.0409   -0.0750   -0.1203 H   0  0  0  0  0  0  0  0  0  0  0  0
    2.2613    0.7069    0.2728 H   0  0  0  0  0  0  0  0  0  0  0  0
    2.4903   -0.9454   -0.8435 H   0  0  0  0  0  0  0  0  0  0  0  0
    1.4777    4.4626    0.1132 H   0  0  0  0  0  0  0  0  0  0  0  0
    6.5320   -1.8419    1.6854 H   0  0  0  0  0  0  0  0  0  0  0  0
    6.1547   -3.5265    1.9490 H   0  0  0  0  0  0  0  0  0  0  0  0
    3.4657    5.3915    0.4287 H   0  0  0  0  0  0  0  0  0  0  0  0
    5.1681    5.1501    0.1961 H   0  0  0  0  0  0  0  0  0  0  0  0
    1.5087   -4.4958   -0.8795 H   0  0  0  0  0  0  0  0  0  0  0  0
   -3.4804    3.3302    1.7165 H   0  0  0  0  0  0  0  0  0  0  0  0
   -3.6849    1.6205    1.5354 H   0  0  0  0  0  0  0  0  0  0  0  0
   -3.7445   -1.4748   -1.2831 H   0  0  0  0  0  0  0  0  0  0  0  0
   -3.6045   -3.1263   -1.7922 H   0  0  0  0  0  0  0  0  0  0  0  0
   -2.9270   -0.1392    0.3797 H   0  0  0  0  0  0  0  0  0  0  0  0
    6.9775    2.1823    0.5233 H   0  0  0  0  0  0  0  0  0  0  0  0
    6.7350    3.6225   -0.4673 H   0  0  0  0  0  0  0  0  0  0  0  0
    6.7842    2.0411   -1.2399 H   0  0  0  0  0  0  0  0  0  0  0  0
    4.7511   -5.4448    0.2546 H   0  0  0  0  0  0  0  0  0  0  0  0
    3.0360   -5.5054    0.6746 H   0  0  0  0  0  0  0  0  0  0  0  0
    4.2153   -5.0351    1.8963 H   0  0  0  0  0  0  0  0  0  0  0  0
   -0.7766    5.4214    0.1242 H   0  0  0  0  0  0  0  0  0  0  0  0
   -2.0696    5.1122    1.2822 H   0  0  0  0  0  0  0  0  0  0  0  0
   -0.3902    5.0840    1.8265 H   0  0  0  0  0  0  0  0  0  0  0  0
   -0.7827   -5.4614   -0.7213 H   0  0  0  0  0  0  0  0  0  0  0  0
   -2.1724   -4.9509   -1.6755 H   0  0  0  0  0  0  0  0  0  0  0  0
   -0.5560   -4.8469   -2.3758 H   0  0  0  0  0  0  0  0  0  0  0  0
   -3.8423    3.7127   -0.7163 H   0  0  0  0  0  0  0  0  0  0  0  0
   -4.0394    1.9578   -0.9642 H   0  0  0  0  0  0  0  0  0  0  0  0
   -3.8395   -3.9400    0.5539 H   0  0  0  0  0  0  0  0  0  0  0  0
   -3.9742   -2.2577    1.1252 H   0  0  0  0  0  0  0  0  0  0  0  0
    6.9684   -4.0851   -0.3656 H   0  0  0  0  0  0  0  0  0  0  0  0
    8.2162   -3.2940    0.6151 H   0  0  0  0  0  0  0  0  0  0  0  0
    7.3529   -2.3775   -0.6335 H   0  0  0  0  0  0  0  0  0  0  0  0
    3.1120    5.1458   -2.0717 H   0  0  0  0  0  0  0  0  0  0  0  0
    4.2448    6.4453   -1.6711 H   0  0  0  0  0  0  0  0  0  0  0  0
    4.8567    4.8968   -2.2716 H   0  0  0  0  0  0  0  0  0  0  0  0
   -8.1705    2.3620   -0.5499 H   0  0  0  0  0  0  0  0  0  0  0  0
   -7.9710    4.1287   -0.2665 H   0  0  0  0  0  0  0  0  0  0  0  0
   -8.1602    3.4976   -1.9176 H   0  0  0  0  0  0  0  0  0  0  0  0
   -8.1328   -2.5184    0.9081 H   0  0  0  0  0  0  0  0  0  0  0  0
   -7.9959   -4.2093    0.3052 H   0  0  0  0  0  0  0  0  0  0  0  0
   -8.0688   -3.8791    2.0505 H   0  0  0  0  0  0  0  0  0  0  0  0
  1 41  1  0  0  0  0
  1 43  1  0  0  0  0
  2 42  1  0  0  0  0
  2 44  1  0  0  0  0
  3 41  2  0  0  0  0
  4 42  2  0  0  0  0
  5 12  1  0  0  0  0
  5 13  1  0  0  0  0
  5 46  1  0  0  0  0
  6 10  1  0  0  0  0
  6 16  1  0  0  0  0
  6 47  1  0  0  0  0
  7 21  2  0  0  0  0
  7 23  1  0  0  0  0
  8 24  1  0  0  0  0
  8 25  2  0  0  0  0
  9 10  2  0  0  0  0
  9 15  1  0  0  0  0
  9 27  1  0  0  0  0
 10 17  1  0  0  0  0
 11 13  1  0  0  0  0
 11 14  2  0  0  0  0
 11 28  1  0  0  0  0
 12 14  1  0  0  0  0
 12 17  2  0  0  0  0
 13 26  2  0  0  0  0
 14 33  1  0  0  0  0
 15 16  2  0  0  0  0
 15 34  1  0  0  0  0
 16 29  1  0  0  0  0
 17 45  1  0  0  0  0
 18 20  2  0  0  0  0
 18 23  1  0  0  0  0
 18 30  1  0  0  0  0
 19 22  2  0  0  0  0
 19 25  1  0  0  0  0
 19 31  1  0  0  0  0
 20 21  1  0  0  0  0
 20 35  1  0  0  0  0
 21 26  1  0  0  0  0
 22 24  1  0  0  0  0
 22 36  1  0  0  0  0
 23 32  2  0  0  0  0
 24 29  2  0  0  0  0
 25 32  1  0  0  0  0
 26 48  1  0  0  0  0
 27 39  1  0  0  0  0
 27 49  1  0  0  0  0
 27 50  1  0  0  0  0
 28 40  1  0  0  0  0
 28 51  1  0  0  0  0
 28 52  1  0  0  0  0
 29 53  1  0  0  0  0
 30 37  1  0  0  0  0
 30 54  1  0  0  0  0
 30 55  1  0  0  0  0
 31 38  1  0  0  0  0
 31 56  1  0  0  0  0
 31 57  1  0  0  0  0
 32 58  1  0  0  0  0
 33 59  1  0  0  0  0
 33 60  1  0  0  0  0
 33 61  1  0  0  0  0
 34 62  1  0  0  0  0
 34 63  1  0  0  0  0
 34 64  1  0  0  0  0
 35 65  1  0  0  0  0
 35 66  1  0  0  0  0
 35 67  1  0  0  0  0
 36 68  1  0  0  0  0
 36 69  1  0  0  0  0
 36 70  1  0  0  0  0
 37 41  1  0  0  0  0
 37 71  1  0  0  0  0
 37 72  1  0  0  0  0
 38 42  1  0  0  0  0
 38 73  1  0  0  0  0
 38 74  1  0  0  0  0
 39 75  1  0  0  0  0
 39 76  1  0  0  0  0
 39 77  1  0  0  0  0
 40 78  1  0  0  0  0
 40 79  1  0  0  0  0
 40 80  1  0  0  0  0
 43 81  1  0  0  0  0
 43 82  1  0  0  0  0
 43 83  1  0  0  0  0
 44 84  1  0  0  0  0
 44 85  1  0  0  0  0
 44 86  1  0  0  0  0
M  END
> <PUBCHEM_COMPOUND_CID>
79151

> <PUBCHEM_CONFORMER_RMSD>
1.2

> <PUBCHEM_CONFORMER_DIVERSEORDER>
1
2
30
26
27
11
13
29
4
34
18
25
5
9
23
15
33
16
3
6
14
7
32
12
31
24
22
17
10
21
28
19
8
20

> <PUBCHEM_MMFF94_PARTIAL_CHARGES>
48
1 -0.43
10 -0.2
11 -0.14
12 0.1
13 0.1
14 -0.14
15 -0.18
16 -0.2
17 -0.11
18 -0.14
19 -0.12
2 -0.43
20 -0.12
21 0.42
22 -0.14
23 0.17
24 0.17
25 0.42
26 -0.14
27 0.18
28 0.14
29 -0.11
3 -0.57
30 0.14
31 0.14
32 -0.14
33 0.14
34 0.18
35 0.14
36 0.14
37 0.06
38 0.06
4 -0.57
41 0.66
42 0.66
43 0.28
44 0.28
45 0.15
46 0.4
47 0.27
48 0.15
5 -0.6
53 0.15
58 0.15
6 0.03
7 -0.62
8 -0.62
9 -0.18

> <PUBCHEM_EFFECTIVE_ROTOR_COUNT>
10

> <PUBCHEM_PHARMACOPHORE_FEATURES>
14
1 3 acceptor
1 39 hydrophobe
1 4 acceptor
1 40 hydrophobe
1 5 cation
1 5 donor
1 6 cation
1 6 donor
1 7 acceptor
1 8 acceptor
5 5 11 12 13 14 rings
5 6 9 10 15 16 rings
5 7 18 20 21 23 rings
5 8 19 22 24 25 rings

> <PUBCHEM_HEAVY_ATOM_COUNT>
44

> <PUBCHEM_ATOM_DEF_STEREO_COUNT>
0

> <PUBCHEM_ATOM_UDEF_STEREO_COUNT>
0

> <PUBCHEM_BOND_DEF_STEREO_COUNT>
0

> <PUBCHEM_BOND_UDEF_STEREO_COUNT>
0

> <PUBCHEM_ISOTOPIC_ATOM_COUNT>
0

> <PUBCHEM_COMPONENT_COUNT>
1

> <PUBCHEM_CACTVS_TAUTO_COUNT>
6

> <PUBCHEM_CONFORMER_ID>
0001352F00000001

> <PUBCHEM_MMFF94_ENERGY>
99.4272

> <PUBCHEM_FEATURE_SELFOVERLAP>
71.049

> <PUBCHEM_SHAPE_FINGERPRINT>
10006869 2 18270680982236339814
10050765 1 18409449202200070481
10675989 125 17979634868374497972
1100329 8 18339921493959376908
12440605 4 18341058492963929707
12677640 9 18270681944050460272
13560911 43 18334850645997888058
1361 2 18124595284296575920
13947935 32 18410574002347171002
14117953 113 18197496217239037046
14394314 77 17765434635838137232
14937079 2 18194685861081737569
15001296 14 18336825299570702000
15276724 80 18339645663239794603
15320467 1 18123750026701710592
15351339 4 18337378435523793923
15400415 2 17185871134751514925
16628084 112 18338233881630352179
19311894 1 17904478503062801258
19611394 137 18046084673906467379
21133410 58 17975406924249107981
21133410 90 17131251498871921330
22311459 1 18124033434113063081
24771293 8 17769933485025839720
58083652 198 18410288147359367475
6036956 94 17830742310871561476
6371009 1 18125715682524463544
9961470 85 18271509945400088608

> <PUBCHEM_SHAPE_MULTIPOLES>
862.1
17.92
9.64
1.07
16.25
1.91
0.08
-2.39
-1.22
-1.1
0.65
0.61
-0.06
-1.69

> <PUBCHEM_SHAPE_SELFOVERLAP>
1862.386

> <PUBCHEM_SHAPE_VOLUME>
479.8

> <PUBCHEM_COORDINATE_TYPE>
2
5
10

$$$$
