16416
  -OEChem-11012401183D

 34 36  0     0  0  0  0  0  0999 V2000
   -0.0382    0.0041   -0.0121 Si  0  0  0  0  0  0  0  0  0  0  0  0
   -0.5930    1.3663   -0.8017 O   0  0  0  0  0  0  0  0  0  0  0  0
   -0.5727    0.0063    1.5694 O   0  0  0  0  0  0  0  0  0  0  0  0
   -0.5883   -1.3631   -0.7967 O   0  0  0  0  0  0  0  0  0  0  0  0
   -3.2972   -0.0034    0.0121 N   0  0  0  0  0  0  0  0  0  0  0  0
   -3.0779    1.2030   -0.7820 C   0  0  0  0  0  0  0  0  0  0  0  0
   -3.0589    0.0802    1.4509 C   0  0  0  0  0  0  0  0  0  0  0  0
   -3.0721   -1.2921   -0.6378 C   0  0  0  0  0  0  0  0  0  0  0  0
   -1.7745    1.2895   -1.5962 C   0  0  0  0  0  0  0  0  0  0  0  0
   -1.7469    0.7374    1.9158 C   0  0  0  0  0  0  0  0  0  0  0  0
   -1.7573   -2.0267   -0.3205 C   0  0  0  0  0  0  0  0  0  0  0  0
    1.8177    0.0015   -0.0050 C   0  0  0  0  0  0  0  0  0  0  0  0
    2.5770    1.2085   -0.0032 C   0  0  0  0  0  0  0  0  0  0  0  0
    2.5740   -1.2075   -0.0016 C   0  0  0  0  0  0  0  0  0  0  0  0
    3.9718    1.2069    0.0012 C   0  0  0  0  0  0  0  0  0  0  0  0
    3.9689   -1.2091    0.0031 C   0  0  0  0  0  0  0  0  0  0  0  0
    4.6677   -0.0018    0.0045 C   0  0  0  0  0  0  0  0  0  0  0  0
   -3.1677    2.0931   -0.1469 H   0  0  0  0  0  0  0  0  0  0  0  0
   -3.9098    1.2753   -1.4944 H   0  0  0  0  0  0  0  0  0  0  0  0
   -3.1461   -0.9145    1.9051 H   0  0  0  0  0  0  0  0  0  0  0  0
   -3.8831    0.6640    1.8805 H   0  0  0  0  0  0  0  0  0  0  0  0
   -3.1753   -1.1882   -1.7250 H   0  0  0  0  0  0  0  0  0  0  0  0
   -3.8937   -1.9538   -0.3348 H   0  0  0  0  0  0  0  0  0  0  0  0
   -1.6959    0.4894   -2.3432 H   0  0  0  0  0  0  0  0  0  0  0  0
   -1.8091    2.2208   -2.1751 H   0  0  0  0  0  0  0  0  0  0  0  0
   -1.6684    1.7841    1.5952 H   0  0  0  0  0  0  0  0  0  0  0  0
   -1.7670    0.7734    3.0121 H   0  0  0  0  0  0  0  0  0  0  0  0
   -1.6641   -2.2734    0.7448 H   0  0  0  0  0  0  0  0  0  0  0  0
   -1.7867   -2.9935   -0.8381 H   0  0  0  0  0  0  0  0  0  0  0  0
    2.0665    2.1708   -0.0037 H   0  0  0  0  0  0  0  0  0  0  0  0
    2.0614   -2.1686   -0.0006 H   0  0  0  0  0  0  0  0  0  0  0  0
    4.5163    2.1465    0.0028 H   0  0  0  0  0  0  0  0  0  0  0  0
    4.5112   -2.1501    0.0061 H   0  0  0  0  0  0  0  0  0  0  0  0
    5.7538   -0.0031    0.0085 H   0  0  0  0  0  0  0  0  0  0  0  0
  1  2  1  0  0  0  0
  1  3  1  0  0  0  0
  1  4  1  0  0  0  0
  1 12  1  0  0  0  0
  2  9  1  0  0  0  0
  3 10  1  0  0  0  0
  4 11  1  0  0  0  0
  5  6  1  0  0  0  0
  5  7  1  0  0  0  0
  5  8  1  0  0  0  0
  6  9  1  0  0  0  0
  6 18  1  0  0  0  0
  6 19  1  0  0  0  0
  7 10  1  0  0  0  0
  7 20  1  0  0  0  0
  7 21  1  0  0  0  0
  8 11  1  0  0  0  0
  8 22  1  0  0  0  0
  8 23  1  0  0  0  0
  9 24  1  0  0  0  0
  9 25  1  0  0  0  0
 10 26  1  0  0  0  0
 10 27  1  0  0  0  0
 11 28  1  0  0  0  0
 11 29  1  0  0  0  0
 12 13  2  0  0  0  0
 12 14  1  0  0  0  0
 13 15  1  0  0  0  0
 13 30  1  0  0  0  0
 14 16  2  0  0  0  0
 14 31  1  0  0  0  0
 15 17  2  0  0  0  0
 15 32  1  0  0  0  0
 16 17  1  0  0  0  0
 16 33  1  0  0  0  0
 17 34  1  0  0  0  0
M  END
> <PUBCHEM_COMPOUND_CID>
16416

> <PUBCHEM_CONFORMER_RMSD>
0.6

> <PUBCHEM_CONFORMER_DIVERSEORDER>
1

> <PUBCHEM_MMFF94_PARTIAL_CHARGES>
22
1 1.11
10 0.28
11 0.28
12 -0.22
13 -0.15
14 -0.15
15 -0.15
16 -0.15
17 -0.15
2 -0.58
3 -0.58
30 0.15
31 0.15
32 0.15
33 0.15
34 0.15
4 -0.58
5 -0.81
6 0.27
7 0.27
8 0.27
9 0.28

> <PUBCHEM_EFFECTIVE_ROTOR_COUNT>
2.8

> <PUBCHEM_PHARMACOPHORE_FEATURES>
2
1 5 cation
6 12 13 14 15 16 17 rings

> <PUBCHEM_HEAVY_ATOM_COUNT>
17

> <PUBCHEM_ATOM_DEF_STEREO_COUNT>
0

> <PUBCHEM_ATOM_UDEF_STEREO_COUNT>
0

> <PUBCHEM_BOND_DEF_STEREO_COUNT>
0

> <PUBCHEM_BOND_UDEF_STEREO_COUNT>
0

> <PUBCHEM_ISOTOPIC_ATOM_COUNT>
0

> <PUBCHEM_COMPONENT_COUNT>
1

> <PUBCHEM_CACTVS_TAUTO_COUNT>
1

> <PUBCHEM_CONFORMER_ID>
0000402000000001

> <PUBCHEM_MMFF94_ENERGY>
55.4609

> <PUBCHEM_FEATURE_SELFOVERLAP>
10.148

> <PUBCHEM_SHAPE_FINGERPRINT>
10366900 7 17603305960012225624
10922523 26 18187082823863269142
10948715 1 18117554021071124837
11132069 177 18410006663274795860
11315181 36 17917991690257004018
11615757 297 18272652350844766880
12173636 292 17846502517090478960
12403814 3 18335421283562362851
12592029 89 18263076617920936515
12916754 54 18412263952046285398
12932764 1 18334016077669020546
13024252 1 15864070970905073541
13214271 11 17676209086654553885
13296908 3 18040155110823921712
14144814 61 18130791144425794338
14289901 80 18187080672279955780
15219456 202 18261109647574401412
15309172 13 18340774762295950990
15775835 57 18409731755107999438
16945 1 15913325793141684665
18186145 218 18343868805660449646
200 152 18060131050840990782
20645477 70 18336821979904114118
2306618 200 18342454816242651393
23402539 116 17313094251143705012
23419403 2 17485059111062993157
23559900 14 17847057784080689298
4028521 119 17603852374193910205
5104073 3 18411696612868344930
633830 44 17313384513412415684
69090 78 18335695035734292311

> <PUBCHEM_SHAPE_MULTIPOLES>
345.48
7.56
1.7
1.35
6.62
0.37
-0.43
0
-0.01
-0.25
0.43
-1.36
-0.37
0

> <PUBCHEM_SHAPE_SELFOVERLAP>
713.189

> <PUBCHEM_SHAPE_VOLUME>
195.5

> <PUBCHEM_COORDINATE_TYPE>
2
5
10

$$$$
