12484762
  -OEChem-11012400443D

 31 32  0     0  0  0  0  0  0999 V2000
    3.4759   -0.7166   -0.0076 S   0  0  0  0  0  0  0  0  0  0  0  0
    0.7145    0.4021   -0.0027 Si  0  0  0  0  0  0  0  0  0  0  0  0
    0.3207   -0.5067   -1.3583 O   0  0  0  0  0  0  0  0  0  0  0  0
    0.3219   -0.4915    1.3635 O   0  0  0  0  0  0  0  0  0  0  0  0
   -0.2244    1.7939   -0.0101 O   0  0  0  0  0  0  0  0  0  0  0  0
   -2.4945   -0.3616    0.0030 N   0  0  0  0  0  0  0  0  0  0  0  0
   -2.0839   -1.1061   -1.1838 C   0  0  0  0  0  0  0  0  0  0  0  0
   -2.1263   -0.9090    1.3055 C   0  0  0  0  0  0  0  0  0  0  0  0
   -2.6044    1.0896   -0.1138 C   0  0  0  0  0  0  0  0  0  0  0  0
   -0.6204   -1.5721   -1.2538 C   0  0  0  0  0  0  0  0  0  0  0  0
   -0.9230   -0.2752    2.0230 C   0  0  0  0  0  0  0  0  0  0  0  0
   -1.4304    1.8363   -0.7685 C   0  0  0  0  0  0  0  0  0  0  0  0
    2.5308    0.8344   -0.0058 C   0  0  0  0  0  0  0  0  0  0  0  0
    5.1436   -0.0173    0.0093 C   0  0  0  0  0  0  0  0  0  0  0  0
   -2.3258   -0.5342   -2.0883 H   0  0  0  0  0  0  0  0  0  0  0  0
   -2.7132   -2.0038   -1.2361 H   0  0  0  0  0  0  0  0  0  0  0  0
   -1.9724   -1.9925    1.2277 H   0  0  0  0  0  0  0  0  0  0  0  0
   -2.9964   -0.7900    1.9639 H   0  0  0  0  0  0  0  0  0  0  0  0
   -2.8118    1.5309    0.8689 H   0  0  0  0  0  0  0  0  0  0  0  0
   -3.4982    1.2987   -0.7157 H   0  0  0  0  0  0  0  0  0  0  0  0
   -0.3589   -2.2559   -0.4365 H   0  0  0  0  0  0  0  0  0  0  0  0
   -0.5071   -2.1644   -2.1703 H   0  0  0  0  0  0  0  0  0  0  0  0
   -1.0786    0.7886    2.2423 H   0  0  0  0  0  0  0  0  0  0  0  0
   -0.8321   -0.7595    3.0033 H   0  0  0  0  0  0  0  0  0  0  0  0
   -1.2604    1.5219   -1.8059 H   0  0  0  0  0  0  0  0  0  0  0  0
   -1.7088    2.8956   -0.8321 H   0  0  0  0  0  0  0  0  0  0  0  0
    2.7831    1.4175   -0.8963 H   0  0  0  0  0  0  0  0  0  0  0  0
    2.7852    1.4174    0.8840 H   0  0  0  0  0  0  0  0  0  0  0  0
    5.2943    0.5858    0.9084 H   0  0  0  0  0  0  0  0  0  0  0  0
    5.3073    0.5981   -0.8792 H   0  0  0  0  0  0  0  0  0  0  0  0
    5.8749   -0.8299    0.0091 H   0  0  0  0  0  0  0  0  0  0  0  0
  1 13  1  0  0  0  0
  1 14  1  0  0  0  0
  2  3  1  0  0  0  0
  2  4  1  0  0  0  0
  2  5  1  0  0  0  0
  2 13  1  0  0  0  0
  3 10  1  0  0  0  0
  4 11  1  0  0  0  0
  5 12  1  0  0  0  0
  6  7  1  0  0  0  0
  6  8  1  0  0  0  0
  6  9  1  0  0  0  0
  7 10  1  0  0  0  0
  7 15  1  0  0  0  0
  7 16  1  0  0  0  0
  8 11  1  0  0  0  0
  8 17  1  0  0  0  0
  8 18  1  0  0  0  0
  9 12  1  0  0  0  0
  9 19  1  0  0  0  0
  9 20  1  0  0  0  0
 10 21  1  0  0  0  0
 10 22  1  0  0  0  0
 11 23  1  0  0  0  0
 11 24  1  0  0  0  0
 12 25  1  0  0  0  0
 12 26  1  0  0  0  0
 13 27  1  0  0  0  0
 13 28  1  0  0  0  0
 14 29  1  0  0  0  0
 14 30  1  0  0  0  0
 14 31  1  0  0  0  0
M  END
> <PUBCHEM_COMPOUND_CID>
12484762

> <PUBCHEM_CONFORMER_RMSD>
0.6

> <PUBCHEM_CONFORMER_DIVERSEORDER>
1
2

> <PUBCHEM_MMFF94_PARTIAL_CHARGES>
14
1 -0.46
10 0.28
11 0.28
12 0.28
13 0.15
14 0.23
2 0.97
3 -0.58
4 -0.58
5 -0.58
6 -0.81
7 0.27
8 0.27
9 0.27

> <PUBCHEM_EFFECTIVE_ROTOR_COUNT>
3.8

> <PUBCHEM_PHARMACOPHORE_FEATURES>
2
1 14 hydrophobe
1 6 cation

> <PUBCHEM_HEAVY_ATOM_COUNT>
14

> <PUBCHEM_ATOM_DEF_STEREO_COUNT>
0

> <PUBCHEM_ATOM_UDEF_STEREO_COUNT>
0

> <PUBCHEM_BOND_DEF_STEREO_COUNT>
0

> <PUBCHEM_BOND_UDEF_STEREO_COUNT>
0

> <PUBCHEM_ISOTOPIC_ATOM_COUNT>
0

> <PUBCHEM_COMPONENT_COUNT>
1

> <PUBCHEM_CACTVS_TAUTO_COUNT>
1

> <PUBCHEM_CONFORMER_ID>
00BE809A00000001

> <PUBCHEM_MMFF94_ENERGY>
42.46

> <PUBCHEM_FEATURE_SELFOVERLAP>
10.148

> <PUBCHEM_SHAPE_FINGERPRINT>
12423570 1 12317438959454487387
12491281 212 18338515218635177616
12932764 1 18271809051364787096
13024252 1 17240202131626836801
14577589 140 18413390921331237526
14817 1 11591804986593964129
15309172 13 17989214728688086158
15775835 57 18273496754136454110
16945 1 17240752991305407185
18186145 218 17240475940477431292
20711983 138 17604153713336257808
2306618 200 17846216631330158840
23402539 116 18335419076044157287
23419403 2 16882169453296722807
23559900 14 17967812739723452088
4175511 318 18341892965911458796
5084963 1 17845926459076270263
68250623 7 18046054961153485538

> <PUBCHEM_SHAPE_MULTIPOLES>
287.59
5.78
1.61
1.5
9.03
0.41
0.46
-0.35
-0.01
-0.81
-0.44
-0.86
-0.49
0.1

> <PUBCHEM_SHAPE_SELFOVERLAP>
546.982

> <PUBCHEM_SHAPE_VOLUME>
176.5

> <PUBCHEM_COORDINATE_TYPE>
2
5
10

$$$$
