141866
  -OEChem-11012401233D

 28 27  0     0  0  0  0  0  0999 V2000
   -4.2114   -0.8360   -1.3597 F   0  0  0  0  0  0  0  0  0  0  0  0
    4.2116    0.8358   -1.3598 F   0  0  0  0  0  0  0  0  0  0  0  0
   -1.7414   -0.0901   -0.2621 O   0  0  0  0  0  0  0  0  0  0  0  0
    1.7414    0.0899   -0.2623 O   0  0  0  0  0  0  0  0  0  0  0  0
   -5.3398    1.9176    0.2097 O   0  5  0  0  0  0  0  0  0  0  0  0
   -4.2670   -0.4652    2.0407 O   0  5  0  0  0  0  0  0  0  0  0  0
    5.3399   -1.9176    0.2101 O   0  5  0  0  0  0  0  0  0  0  0  0
    4.2666    0.4655    2.0406 O   0  5  0  0  0  0  0  0  0  0  0  0
   -6.3854    0.3031   -0.8534 O   0  0  0  0  0  0  0  0  0  0  0  0
   -4.3533   -2.1834    0.6729 O   0  0  0  0  0  0  0  0  0  0  0  0
    6.3856   -0.3030   -0.8532 O   0  0  0  0  0  0  0  0  0  0  0  0
    4.3531    2.1835    0.6726 O   0  0  0  0  0  0  0  0  0  0  0  0
   -0.2962    1.7179   -0.2617 O   0  0  0  0  0  0  0  0  0  0  0  0
    0.2963   -1.7179   -0.2620 O   0  0  0  0  0  0  0  0  0  0  0  0
   -5.3873    0.7940   -0.3094 N   0  3  0  0  0  0  0  0  0  0  0  0
   -4.2615   -0.9718    0.9105 N   0  3  0  0  0  0  0  0  0  0  0  0
    5.3873   -0.7940   -0.3092 N   0  3  0  0  0  0  0  0  0  0  0  0
    4.2613    0.9719    0.9104 N   0  3  0  0  0  0  0  0  0  0  0  0
   -4.1428   -0.0444   -0.2629 C   0  0  0  0  0  0  0  0  0  0  0  0
    4.1428    0.0444   -0.2629 C   0  0  0  0  0  0  0  0  0  0  0  0
   -2.8770    0.7804   -0.2626 C   0  0  0  0  0  0  0  0  0  0  0  0
    2.8770   -0.7805   -0.2626 C   0  0  0  0  0  0  0  0  0  0  0  0
   -0.5426    0.5274   -0.2617 C   0  0  0  0  0  0  0  0  0  0  0  0
    0.5427   -0.5273   -0.2620 C   0  0  0  0  0  0  0  0  0  0  0  0
   -2.8370    1.4000   -1.1671 H   0  0  0  0  0  0  0  0  0  0  0  0
   -2.8200    1.4334    0.6174 H   0  0  0  0  0  0  0  0  0  0  0  0
    2.8371   -1.4003   -1.1672 H   0  0  0  0  0  0  0  0  0  0  0  0
    2.8200   -1.4335    0.6174 H   0  0  0  0  0  0  0  0  0  0  0  0
  1 19  1  0  0  0  0
  2 20  1  0  0  0  0
  3 21  1  0  0  0  0
  3 23  1  0  0  0  0
  4 22  1  0  0  0  0
  4 24  1  0  0  0  0
  5 15  1  0  0  0  0
  6 16  1  0  0  0  0
  7 17  1  0  0  0  0
  8 18  1  0  0  0  0
  9 15  2  0  0  0  0
 10 16  2  0  0  0  0
 11 17  2  0  0  0  0
 12 18  2  0  0  0  0
 13 23  2  0  0  0  0
 14 24  2  0  0  0  0
 15 19  1  0  0  0  0
 16 19  1  0  0  0  0
 17 20  1  0  0  0  0
 18 20  1  0  0  0  0
 19 21  1  0  0  0  0
 20 22  1  0  0  0  0
 21 25  1  0  0  0  0
 21 26  1  0  0  0  0
 22 27  1  0  0  0  0
 22 28  1  0  0  0  0
 23 24  1  0  0  0  0
M  CHG  8   5  -1   6  -1   7  -1   8  -1  15   1  16   1  17   1  18   1
M  END
> <PUBCHEM_COMPOUND_CID>
141866

> <PUBCHEM_CONFORMER_RMSD>
1

> <PUBCHEM_CONFORMER_DIVERSEORDER>
1
5
39
12
3
17
11
32
6
16
33
28
36
26
9
8
43
18
31
4
27
15
2
38
35
41
29
20
7
13
30
24
22
25
10
21
14
19
34
40
44
42
23
37

> <PUBCHEM_MMFF94_PARTIAL_CHARGES>
24
1 -0.34
10 -0.52
11 -0.52
12 -0.52
13 -0.57
14 -0.57
15 0.8
16 0.8
17 0.8
18 0.8
19 0.82
2 -0.34
20 0.82
21 0.28
22 0.28
23 0.72
24 0.72
3 -0.43
4 -0.43
5 -0.52
6 -0.52
7 -0.52
8 -0.52
9 -0.52

> <PUBCHEM_EFFECTIVE_ROTOR_COUNT>
11

> <PUBCHEM_PHARMACOPHORE_FEATURES>
14
1 10 acceptor
1 11 acceptor
1 12 acceptor
1 13 acceptor
1 14 acceptor
1 5 acceptor
1 5 anion
1 6 acceptor
1 6 anion
1 7 acceptor
1 7 anion
1 8 acceptor
1 8 anion
1 9 acceptor

> <PUBCHEM_HEAVY_ATOM_COUNT>
24

> <PUBCHEM_ATOM_DEF_STEREO_COUNT>
0

> <PUBCHEM_ATOM_UDEF_STEREO_COUNT>
0

> <PUBCHEM_BOND_DEF_STEREO_COUNT>
0

> <PUBCHEM_BOND_UDEF_STEREO_COUNT>
0

> <PUBCHEM_ISOTOPIC_ATOM_COUNT>
0

> <PUBCHEM_COMPONENT_COUNT>
1

> <PUBCHEM_CACTVS_TAUTO_COUNT>
1

> <PUBCHEM_CONFORMER_ID>
00022A2A00000001

> <PUBCHEM_MMFF94_ENERGY>
45.727

> <PUBCHEM_FEATURE_SELFOVERLAP>
71.385

> <PUBCHEM_SHAPE_FINGERPRINT>
11045977 3 18410574015216222427
11315181 36 18334018298415104029
12403259 415 18335410249839346412
12916748 109 10231756699308777510
13533116 47 15357969032725710104
14528608 73 18202279221030701276
15348495 7 18410574032396091938
15788980 27 18113902671376784751
17349148 13 15719395022771099158
17834072 33 16487247798824302773
17844677 252 18131072636150409705
18222031 100 17821727256163158460
220451 1 15791452616814295528
23035841 295 17967814916380275539
23402539 116 18333170565827397791
23557571 272 17968377823389448869
23559900 14 18040440988353302254
300161 21 14345794963586429416
34797466 226 16343704373901146893
4073 2 18186806902348246810
5104073 3 18410573976561517321
542803 24 17748828514228615580
54446538 1 15770056124838016794
59755656 215 18339647728987624430
7495541 125 18412263939588501920
90127 26 18343022198422889729

> <PUBCHEM_SHAPE_MULTIPOLES>
389.01
16.54
1.69
1.17
0
0
0.5
0
-0.06
0
0.25
0
0
0.9

> <PUBCHEM_SHAPE_SELFOVERLAP>
793.029

> <PUBCHEM_SHAPE_VOLUME>
223.4

> <PUBCHEM_COORDINATE_TYPE>
2
5
10

$$$$
