12996975
  -OEChem-11012401203D

 26 26  0     0  0  0  0  0  0999 V2000
   -2.5398    1.9564    0.2696 O   0  0  0  0  0  0  0  0  0  0  0  0
    1.5922   -2.5548    0.6595 O   0  0  0  0  0  0  0  0  0  0  0  0
    1.2132   -2.0449   -0.4043 N   0  0  0  0  0  0  0  0  0  0  0  0
    2.1359    0.6756   -0.0860 C   0  0  0  0  0  0  0  0  0  0  0  0
    0.6915    0.2859   -0.0787 C   0  0  0  0  0  0  0  0  0  0  0  0
    2.5798    1.2976    1.2495 C   0  0  0  0  0  0  0  0  0  0  0  0
    2.4795    1.6235   -1.2482 C   0  0  0  0  0  0  0  0  0  0  0  0
    0.2895   -1.0405   -0.2357 C   0  0  0  0  0  0  0  0  0  0  0  0
   -0.2633    1.2887    0.0907 C   0  0  0  0  0  0  0  0  0  0  0  0
   -2.0218   -0.3618   -0.0540 C   0  0  0  0  0  0  0  0  0  0  0  0
   -1.6201    0.9648    0.1031 C   0  0  0  0  0  0  0  0  0  0  0  0
   -1.0671   -1.3644   -0.2233 C   0  0  0  0  0  0  0  0  0  0  0  0
   -3.4696   -0.7263   -0.0421 C   0  0  0  0  0  0  0  0  0  0  0  0
    2.7782   -0.2006   -0.2283 H   0  0  0  0  0  0  0  0  0  0  0  0
    2.0795    2.2515    1.4476 H   0  0  0  0  0  0  0  0  0  0  0  0
    3.6591    1.4855    1.2450 H   0  0  0  0  0  0  0  0  0  0  0  0
    2.3606    0.6232    2.0848 H   0  0  0  0  0  0  0  0  0  0  0  0
    2.1875    1.1841   -2.2085 H   0  0  0  0  0  0  0  0  0  0  0  0
    3.5577    1.8148   -1.2813 H   0  0  0  0  0  0  0  0  0  0  0  0
    1.9753    2.5913   -1.1547 H   0  0  0  0  0  0  0  0  0  0  0  0
    0.0292    2.3282    0.2147 H   0  0  0  0  0  0  0  0  0  0  0  0
   -1.3834   -2.3988   -0.3458 H   0  0  0  0  0  0  0  0  0  0  0  0
   -3.9275   -0.4566    0.9154 H   0  0  0  0  0  0  0  0  0  0  0  0
   -4.0004   -0.2249   -0.8583 H   0  0  0  0  0  0  0  0  0  0  0  0
   -3.6171   -1.8036   -0.1769 H   0  0  0  0  0  0  0  0  0  0  0  0
   -3.4419    1.6009    0.2593 H   0  0  0  0  0  0  0  0  0  0  0  0
  1 11  1  0  0  0  0
  1 26  1  0  0  0  0
  2  3  2  0  0  0  0
  3  8  1  0  0  0  0
  4  5  1  0  0  0  0
  4  6  1  0  0  0  0
  4  7  1  0  0  0  0
  4 14  1  0  0  0  0
  5  8  2  0  0  0  0
  5  9  1  0  0  0  0
  6 15  1  0  0  0  0
  6 16  1  0  0  0  0
  6 17  1  0  0  0  0
  7 18  1  0  0  0  0
  7 19  1  0  0  0  0
  7 20  1  0  0  0  0
  8 12  1  0  0  0  0
  9 11  2  0  0  0  0
  9 21  1  0  0  0  0
 10 11  1  0  0  0  0
 10 12  2  0  0  0  0
 10 13  1  0  0  0  0
 12 22  1  0  0  0  0
 13 23  1  0  0  0  0
 13 24  1  0  0  0  0
 13 25  1  0  0  0  0
M  END
> <PUBCHEM_COMPOUND_CID>
12996975

> <PUBCHEM_CONFORMER_RMSD>
0.6

> <PUBCHEM_CONFORMER_DIVERSEORDER>
1
2

> <PUBCHEM_MMFF94_PARTIAL_CHARGES>
14
1 -0.53
10 -0.14
11 0.08
12 -0.15
13 0.14
2 -0.16
21 0.15
22 0.15
26 0.45
3 -0.14
4 0.14
5 -0.14
8 0.3
9 -0.15

> <PUBCHEM_EFFECTIVE_ROTOR_COUNT>
2

> <PUBCHEM_PHARMACOPHORE_FEATURES>
3
1 1 donor
3 4 6 7 hydrophobe
6 5 8 9 10 11 12 rings

> <PUBCHEM_HEAVY_ATOM_COUNT>
13

> <PUBCHEM_ATOM_DEF_STEREO_COUNT>
0

> <PUBCHEM_ATOM_UDEF_STEREO_COUNT>
0

> <PUBCHEM_BOND_DEF_STEREO_COUNT>
0

> <PUBCHEM_BOND_UDEF_STEREO_COUNT>
0

> <PUBCHEM_ISOTOPIC_ATOM_COUNT>
0

> <PUBCHEM_COMPONENT_COUNT>
1

> <PUBCHEM_CACTVS_TAUTO_COUNT>
12

> <PUBCHEM_CONFORMER_ID>
00C6516F00000001

> <PUBCHEM_MMFF94_ENERGY>
36.6448

> <PUBCHEM_FEATURE_SELFOVERLAP>
15.223

> <PUBCHEM_SHAPE_FINGERPRINT>
13140716 1 17907858749534450433
13380535 21 18269008517723308369
13538477 17 17826789545268293480
14614273 12 18335127718084292557
15490181 7 18200866378738104524
15490181 8 18261120706962129818
15775835 57 18201156671409242080
16945 1 18339642364351385957
19021347 11 18408887355842254230
193761 8 18267585715169287917
20511035 2 18198053682018048133
20645476 183 17607530433883298638
21040471 1 18412828009911397444
21501502 16 18340208475548397689
2334 1 18411983525115285525
23402539 116 18127121111951342836
23419403 2 15675668450631166587
23463225 33 18334570252793168680
23552423 10 18335708191335196895
2748010 2 18338800001079357333
305870 269 18411409605767982576
43471831 8 18336539508225874522
5084963 1 18129958886869246332
528862 383 18335130986280071962
53812653 166 18201998850124544233
53812653 8 18264214788464791724
57177213 63 18335430087760075133
7364860 26 18200875067641827014
81228 2 17333648774642438130

> <PUBCHEM_SHAPE_MULTIPOLES>
250.81
4.36
2.33
0.9
1.19
1.07
0.01
-1.37
0.08
-0.39
0.18
-0.72
-0.2
-0.3

> <PUBCHEM_SHAPE_SELFOVERLAP>
519.313

> <PUBCHEM_SHAPE_VOLUME>
145.9

> <PUBCHEM_COORDINATE_TYPE>
2
5
10

$$$$
