73790
  -OEChem-11012400523D

 27 27  0     0  0  0  0  0  0999 V2000
    1.7012   -0.4391    0.2768 O   0  0  0  0  0  0  0  0  0  0  0  0
   -1.6991   -0.4398   -0.2760 O   0  0  0  0  0  0  0  0  0  0  0  0
    1.3575    0.4175   -1.8410 O   0  0  0  0  0  0  0  0  0  0  0  0
   -1.3623    0.4196    1.8417 O   0  0  0  0  0  0  0  0  0  0  0  0
   -0.0144    1.1277    0.0058 C   0  0  0  0  0  0  0  0  0  0  0  0
   -0.3879    2.4169   -0.6479 C   0  0  0  0  0  0  0  0  0  0  0  0
    0.3855    2.4198    0.6381 C   0  0  0  0  0  0  0  0  0  0  0  0
    1.0819    0.3449   -0.6510 C   0  0  0  0  0  0  0  0  0  0  0  0
   -1.0863    0.3493    0.6518 C   0  0  0  0  0  0  0  0  0  0  0  0
    2.7750   -1.2455   -0.2178 C   0  0  0  0  0  0  0  0  0  0  0  0
   -2.7663   -1.2550    0.2187 C   0  0  0  0  0  0  0  0  0  0  0  0
    3.3539   -2.0511    0.9258 C   0  0  0  0  0  0  0  0  0  0  0  0
   -3.3387   -2.0653   -0.9249 C   0  0  0  0  0  0  0  0  0  0  0  0
   -1.4224    2.7395   -0.6107 H   0  0  0  0  0  0  0  0  0  0  0  0
    0.1330    2.7388   -1.5419 H   0  0  0  0  0  0  0  0  0  0  0  0
    1.4257    2.7225    0.5968 H   0  0  0  0  0  0  0  0  0  0  0  0
   -0.1301    2.7634    1.5272 H   0  0  0  0  0  0  0  0  0  0  0  0
    2.3967   -1.9216   -0.9926 H   0  0  0  0  0  0  0  0  0  0  0  0
    3.5499   -0.5995   -0.6454 H   0  0  0  0  0  0  0  0  0  0  0  0
   -2.3825   -1.9279    0.9935 H   0  0  0  0  0  0  0  0  0  0  0  0
   -3.5464   -0.6153    0.6461 H   0  0  0  0  0  0  0  0  0  0  0  0
    4.1791   -2.6809    0.5822 H   0  0  0  0  0  0  0  0  0  0  0  0
    3.7200   -1.3886    1.7170 H   0  0  0  0  0  0  0  0  0  0  0  0
    2.5856   -2.6887    1.3754 H   0  0  0  0  0  0  0  0  0  0  0  0
   -4.1588   -2.7018   -0.5812 H   0  0  0  0  0  0  0  0  0  0  0  0
   -3.7102   -1.4059   -1.7162 H   0  0  0  0  0  0  0  0  0  0  0  0
   -2.5653   -2.6968   -1.3744 H   0  0  0  0  0  0  0  0  0  0  0  0
  1  8  1  0  0  0  0
  1 10  1  0  0  0  0
  2  9  1  0  0  0  0
  2 11  1  0  0  0  0
  3  8  2  0  0  0  0
  4  9  2  0  0  0  0
  5  6  1  0  0  0  0
  5  7  1  0  0  0  0
  5  8  1  0  0  0  0
  5  9  1  0  0  0  0
  6  7  1  0  0  0  0
  6 14  1  0  0  0  0
  6 15  1  0  0  0  0
  7 16  1  0  0  0  0
  7 17  1  0  0  0  0
 10 12  1  0  0  0  0
 10 18  1  0  0  0  0
 10 19  1  0  0  0  0
 11 13  1  0  0  0  0
 11 20  1  0  0  0  0
 11 21  1  0  0  0  0
 12 22  1  0  0  0  0
 12 23  1  0  0  0  0
 12 24  1  0  0  0  0
 13 25  1  0  0  0  0
 13 26  1  0  0  0  0
 13 27  1  0  0  0  0
M  END
> <PUBCHEM_COMPOUND_CID>
73790

> <PUBCHEM_CONFORMER_RMSD>
0.8

> <PUBCHEM_CONFORMER_DIVERSEORDER>
1
4
24
22
7
26
15
12
32
28
30
37
3
6
21
39
38
27
23
11
5
34
41
2
40
9
8
14
35
31
10
17
42
18
16
33
36
13
25
29
20
19

> <PUBCHEM_MMFF94_PARTIAL_CHARGES>
14
1 -0.43
10 0.28
11 0.28
14 0.1
15 0.1
16 0.1
17 0.1
2 -0.43
3 -0.57
4 -0.57
6 -0.2
7 -0.2
8 0.72
9 0.72

> <PUBCHEM_EFFECTIVE_ROTOR_COUNT>
6.6

> <PUBCHEM_PHARMACOPHORE_FEATURES>
2
1 3 acceptor
1 4 acceptor

> <PUBCHEM_HEAVY_ATOM_COUNT>
13

> <PUBCHEM_ATOM_DEF_STEREO_COUNT>
0

> <PUBCHEM_ATOM_UDEF_STEREO_COUNT>
0

> <PUBCHEM_BOND_DEF_STEREO_COUNT>
0

> <PUBCHEM_BOND_UDEF_STEREO_COUNT>
0

> <PUBCHEM_ISOTOPIC_ATOM_COUNT>
0

> <PUBCHEM_COMPONENT_COUNT>
1

> <PUBCHEM_CACTVS_TAUTO_COUNT>
1

> <PUBCHEM_CONFORMER_ID>
0001203E00000001

> <PUBCHEM_MMFF94_ENERGY>
18.6844

> <PUBCHEM_FEATURE_SELFOVERLAP>
10.149

> <PUBCHEM_SHAPE_FINGERPRINT>
12423570 1 11986662658332187181
14817 1 15390047709235248753
16945 1 17843990060107072905
17834072 14 18266718286120115878
20361792 2 18337402603199273015
20524608 308 17832702370762253466
20645477 70 17841718710156488879
20653085 51 10087344682254568798
20653091 64 17985280796058235713
20671657 53 18338227262848352975
20871998 184 17903651686970210912
22112679 90 18198649707388080240
22713019 5 15575264368671388174
23419403 2 17175968722736316996
23526113 38 17386283310965158075
23552423 10 18053394480926846745
257057 1 18410565189058636814
3086196 2 18266443322762362114
3250762 1 18338495496109106604
58143232 49 18411978066122649238
6338986 31 18409725153585198302
81228 2 18194970642713189809

> <PUBCHEM_SHAPE_MULTIPOLES>
244.06
4.57
2.72
1.3
0.06
0.71
0
-5.5
0.01
-0.02
-0.01
0
0.11
-0.87

> <PUBCHEM_SHAPE_SELFOVERLAP>
481.432

> <PUBCHEM_SHAPE_VOLUME>
147.5

> <PUBCHEM_COORDINATE_TYPE>
2
5
10

$$$$
