138304
  -OEChem-11012401223D

 19 20  0     1  0  0  0  0  0999 V2000
   -0.7191    0.1784    0.0861 C   0  0  1  0  0  0  0  0  0  0  0  0
    0.0383   -1.0068   -0.4102 C   0  0  2  0  0  0  0  0  0  0  0  0
   -0.6300   -1.0599    0.9387 C   0  0  0  0  0  0  0  0  0  0  0  0
    0.2418    1.3226    0.2335 C   0  0  0  0  0  0  0  0  0  0  0  0
    1.4767   -0.6102   -0.5757 C   0  0  0  0  0  0  0  0  0  0  0  0
    1.6328    0.6752    0.2469 C   0  0  0  0  0  0  0  0  0  0  0  0
   -2.0405    0.5008   -0.5193 C   0  0  0  0  0  0  0  0  0  0  0  0
   -0.3531   -1.6145   -1.2124 H   0  0  0  0  0  0  0  0  0  0  0  0
   -1.5056   -1.6914    1.0373 H   0  0  0  0  0  0  0  0  0  0  0  0
   -0.0125   -1.0378    1.8284 H   0  0  0  0  0  0  0  0  0  0  0  0
    0.0592    1.8961    1.1475 H   0  0  0  0  0  0  0  0  0  0  0  0
    0.1634    2.0032   -0.6223 H   0  0  0  0  0  0  0  0  0  0  0  0
    1.6810   -0.4069   -1.6328 H   0  0  0  0  0  0  0  0  0  0  0  0
    2.1597   -1.3935   -0.2343 H   0  0  0  0  0  0  0  0  0  0  0  0
    1.9085    0.4199    1.2775 H   0  0  0  0  0  0  0  0  0  0  0  0
    2.4092    1.3364   -0.1486 H   0  0  0  0  0  0  0  0  0  0  0  0
   -1.9140    0.9707   -1.5006 H   0  0  0  0  0  0  0  0  0  0  0  0
   -2.6637   -0.3894   -0.6582 H   0  0  0  0  0  0  0  0  0  0  0  0
   -2.5914    1.1965    0.1221 H   0  0  0  0  0  0  0  0  0  0  0  0
  1  2  1  0  0  0  0
  1  3  1  0  0  0  0
  1  4  1  0  0  0  0
  1  7  1  0  0  0  0
  2  3  1  0  0  0  0
  2  5  1  0  0  0  0
  2  8  1  0  0  0  0
  3  9  1  0  0  0  0
  3 10  1  0  0  0  0
  4  6  1  0  0  0  0
  4 11  1  0  0  0  0
  4 12  1  0  0  0  0
  5  6  1  0  0  0  0
  5 13  1  0  0  0  0
  5 14  1  0  0  0  0
  6 15  1  0  0  0  0
  6 16  1  0  0  0  0
  7 17  1  0  0  0  0
  7 18  1  0  0  0  0
  7 19  1  0  0  0  0
M  END
> <PUBCHEM_COMPOUND_CID>
138304

> <PUBCHEM_CONFORMER_RMSD>
0.4

> <PUBCHEM_CONFORMER_DIVERSEORDER>
2
3
1

> <PUBCHEM_MMFF94_PARTIAL_CHARGES>
9
1 -0.19
10 0.1
2 -0.19
3 -0.2
4 0.09
5 0.09
7 0.09
8 0.1
9 0.1

> <PUBCHEM_EFFECTIVE_ROTOR_COUNT>
0.8

> <PUBCHEM_PHARMACOPHORE_FEATURES>
1
6 1 2 3 4 5 6 rings

> <PUBCHEM_HEAVY_ATOM_COUNT>
7

> <PUBCHEM_ATOM_DEF_STEREO_COUNT>
0

> <PUBCHEM_ATOM_UDEF_STEREO_COUNT>
2

> <PUBCHEM_BOND_DEF_STEREO_COUNT>
0

> <PUBCHEM_BOND_UDEF_STEREO_COUNT>
0

> <PUBCHEM_ISOTOPIC_ATOM_COUNT>
0

> <PUBCHEM_COMPONENT_COUNT>
1

> <PUBCHEM_CACTVS_TAUTO_COUNT>
1

> <PUBCHEM_CONFORMER_ID>
00021C4000000002

> <PUBCHEM_MMFF94_ENERGY>
18.796

> <PUBCHEM_FEATURE_SELFOVERLAP>
5.074

> <PUBCHEM_SHAPE_FINGERPRINT>
12423570 1 8618758770385040678
137420 1 17472093703717354771
20096714 4 18410851074998324549
21040471 1 18260827090012679021
29004967 10 18131072614754220107
5943 1 14925061768005397707

> <PUBCHEM_SHAPE_MULTIPOLES>
144.06
2.04
1.33
0.87
0.22
0.04
-0.07
0.33
0.33
-0.07
-0.12
0.07
-0.15
0.29

> <PUBCHEM_SHAPE_SELFOVERLAP>
295.339

> <PUBCHEM_SHAPE_VOLUME>
84.2

> <PUBCHEM_COORDINATE_TYPE>
2
5
10

$$$$
