13654641
  -OEChem-11012401163D

 28 29  0     1  0  0  0  0  0999 V2000
    2.5394    2.5841   -0.3776 O   0  0  0  0  0  0  0  0  0  0  0  0
    2.5673   -2.7434   -0.3261 O   0  0  0  0  0  0  0  0  0  0  0  0
   -5.0957   -0.4798   -0.4312 O   0  0  0  0  0  0  0  0  0  0  0  0
    1.4988   -0.7650   -0.8215 N   0  0  0  0  0  0  0  0  0  0  0  0
    3.5254    0.5993    0.2385 N   0  0  0  0  0  0  0  0  0  0  0  0
    1.1794    0.5987   -0.4289 C   0  0  1  0  0  0  0  0  0  0  0  0
    0.2905    0.6580    0.8042 C   0  0  0  0  0  0  0  0  0  0  0  0
    2.4743    1.3651   -0.2283 C   0  0  0  0  0  0  0  0  0  0  0  0
   -1.1477    0.3540    0.4741 C   0  0  0  0  0  0  0  0  0  0  0  0
    3.3477   -0.7439    0.7463 C   0  0  0  0  0  0  0  0  0  0  0  0
    2.4751   -1.5239   -0.2046 C   0  0  0  0  0  0  0  0  0  0  0  0
   -2.0005    1.3901    0.1229 C   0  0  0  0  0  0  0  0  0  0  0  0
   -1.5970   -0.9575    0.5266 C   0  0  0  0  0  0  0  0  0  0  0  0
   -3.3321    1.1087   -0.1824 C   0  0  0  0  0  0  0  0  0  0  0  0
   -2.9286   -1.2389    0.2212 C   0  0  0  0  0  0  0  0  0  0  0  0
   -3.7962   -0.2058   -0.1333 C   0  0  0  0  0  0  0  0  0  0  0  0
    0.6815    1.0495   -1.2968 H   0  0  0  0  0  0  0  0  0  0  0  0
    0.3408    1.6566    1.2593 H   0  0  0  0  0  0  0  0  0  0  0  0
    0.6348   -0.0271    1.5889 H   0  0  0  0  0  0  0  0  0  0  0  0
    0.8621   -1.2386   -1.4551 H   0  0  0  0  0  0  0  0  0  0  0  0
    2.8852   -0.6983    1.7354 H   0  0  0  0  0  0  0  0  0  0  0  0
    4.3337   -1.2113    0.8124 H   0  0  0  0  0  0  0  0  0  0  0  0
    4.4065    1.0683    0.4249 H   0  0  0  0  0  0  0  0  0  0  0  0
   -1.6484    2.4169    0.0794 H   0  0  0  0  0  0  0  0  0  0  0  0
   -0.9302   -1.7694    0.8028 H   0  0  0  0  0  0  0  0  0  0  0  0
   -4.0030    1.9177   -0.4584 H   0  0  0  0  0  0  0  0  0  0  0  0
   -3.2777   -2.2671    0.2635 H   0  0  0  0  0  0  0  0  0  0  0  0
   -5.2429   -1.4375   -0.3464 H   0  0  0  0  0  0  0  0  0  0  0  0
  1  8  2  0  0  0  0
  2 11  2  0  0  0  0
  3 16  1  0  0  0  0
  3 28  1  0  0  0  0
  4  6  1  0  0  0  0
  4 11  1  0  0  0  0
  4 20  1  0  0  0  0
  5  8  1  0  0  0  0
  5 10  1  0  0  0  0
  5 23  1  0  0  0  0
  6  7  1  0  0  0  0
  6  8  1  0  0  0  0
  6 17  1  0  0  0  0
  7  9  1  0  0  0  0
  7 18  1  0  0  0  0
  7 19  1  0  0  0  0
  9 12  2  0  0  0  0
  9 13  1  0  0  0  0
 10 11  1  0  0  0  0
 10 21  1  0  0  0  0
 10 22  1  0  0  0  0
 12 14  1  0  0  0  0
 12 24  1  0  0  0  0
 13 15  2  0  0  0  0
 13 25  1  0  0  0  0
 14 16  2  0  0  0  0
 14 26  1  0  0  0  0
 15 16  1  0  0  0  0
 15 27  1  0  0  0  0
M  END
> <PUBCHEM_COMPOUND_CID>
13654641

> <PUBCHEM_CONFORMER_RMSD>
0.6

> <PUBCHEM_CONFORMER_DIVERSEORDER>
1
4
10
5
9
6
8
3
2
7

> <PUBCHEM_MMFF94_PARTIAL_CHARGES>
23
1 -0.57
10 0.36
11 0.57
12 -0.15
13 -0.15
14 -0.15
15 -0.15
16 0.08
2 -0.57
20 0.37
23 0.37
24 0.15
25 0.15
26 0.15
27 0.15
28 0.45
3 -0.53
4 -0.73
5 -0.73
6 0.36
7 0.14
8 0.57
9 -0.14

> <PUBCHEM_EFFECTIVE_ROTOR_COUNT>
2.8

> <PUBCHEM_PHARMACOPHORE_FEATURES>
7
1 1 acceptor
1 2 acceptor
1 3 donor
1 4 donor
1 5 donor
6 4 5 6 8 10 11 rings
6 9 12 13 14 15 16 rings

> <PUBCHEM_HEAVY_ATOM_COUNT>
16

> <PUBCHEM_ATOM_DEF_STEREO_COUNT>
1

> <PUBCHEM_ATOM_UDEF_STEREO_COUNT>
0

> <PUBCHEM_BOND_DEF_STEREO_COUNT>
0

> <PUBCHEM_BOND_UDEF_STEREO_COUNT>
0

> <PUBCHEM_ISOTOPIC_ATOM_COUNT>
0

> <PUBCHEM_COMPONENT_COUNT>
1

> <PUBCHEM_CACTVS_TAUTO_COUNT>
8

> <PUBCHEM_CONFORMER_ID>
00D05A7100000001

> <PUBCHEM_MMFF94_ENERGY>
50.3253

> <PUBCHEM_FEATURE_SELFOVERLAP>
35.53

> <PUBCHEM_SHAPE_FINGERPRINT>
10608611 8 18407758140384416709
10616163 171 18267588085854637463
10922523 26 18259704475914060565
116883 192 18192993721038933932
13296908 3 18272373014308140943
14144814 61 18411141311724136985
14251717 144 18411135831398809486
14350558 41 18341614797832602210
14415576 193 18262804080844969812
15375462 6 18409732888889889861
15442244 35 18195531393738385480
15477762 27 18410856529870450110
15536298 74 18341613681062243746
16945 1 18338812155705033528
17492 89 18412263900591749487
17990270 104 18410297978153586986
18186145 218 17676206853693494729
200 152 18131348613800576713
20201158 50 18411140233645219082
20279233 1 18335144206310533555
20281475 54 18273497892619363731
20559304 39 18413672409351339456
20645477 70 18408884044659982191
20671657 53 18197224646172398854
21501502 16 18343028757107112409
21501925 9 18412539890630647586
221490 88 18336557087437378658
23402539 116 18410000031966909181
23559900 14 18340482275202324674
3060560 45 18339089288934071068
5104073 3 18410293592897033105
57812782 119 18260829284878045833
58051976 378 18341051908045763284
69090 78 18410289220741689543
7364860 26 18411420626722733192
74978 22 18336837389681866913
81539 233 18262241152619430220
93112 12 18408325475451597669
9709674 26 18409453587325100787

> <PUBCHEM_SHAPE_MULTIPOLES>
301.7
7.8
2.11
0.79
4.81
0.15
0.05
0.98
-0.56
-1.81
-0.27
-0.13
0.03
0.01

> <PUBCHEM_SHAPE_SELFOVERLAP>
641.329

> <PUBCHEM_SHAPE_VOLUME>
166.4

> <PUBCHEM_COORDINATE_TYPE>
2
5
10

$$$$
