79032
  -OEChem-11012400453D

 25 25  0     0  0  0  0  0  0999 V2000
    1.1498    0.2794    0.0029 C   0  0  0  0  0  0  0  0  0  0  0  0
    1.0030   -1.1482   -0.5647 C   0  0  0  0  0  0  0  0  0  0  0  0
   -0.1405    1.0833   -0.3007 C   0  0  0  0  0  0  0  0  0  0  0  0
   -0.2271   -1.8815   -0.0231 C   0  0  0  0  0  0  0  0  0  0  0  0
   -1.4239    0.3236   -0.0579 C   0  0  0  0  0  0  0  0  0  0  0  0
    2.3489    0.9731   -0.6679 C   0  0  0  0  0  0  0  0  0  0  0  0
    1.4114    0.2368    1.5224 C   0  0  0  0  0  0  0  0  0  0  0  0
   -1.4458   -1.0137    0.0744 C   0  0  0  0  0  0  0  0  0  0  0  0
   -2.6757    1.1472    0.0146 C   0  0  0  0  0  0  0  0  0  0  0  0
    1.9002   -1.7439   -0.3546 H   0  0  0  0  0  0  0  0  0  0  0  0
    0.9211   -1.0938   -1.6593 H   0  0  0  0  0  0  0  0  0  0  0  0
   -0.1430    1.4011   -1.3521 H   0  0  0  0  0  0  0  0  0  0  0  0
   -0.1404    2.0010    0.3019 H   0  0  0  0  0  0  0  0  0  0  0  0
   -0.0111   -2.2919    0.9703 H   0  0  0  0  0  0  0  0  0  0  0  0
   -0.4445   -2.7357   -0.6749 H   0  0  0  0  0  0  0  0  0  0  0  0
    2.2240    1.0196   -1.7555 H   0  0  0  0  0  0  0  0  0  0  0  0
    2.4669    1.9995   -0.3027 H   0  0  0  0  0  0  0  0  0  0  0  0
    3.2815    0.4352   -0.4640 H   0  0  0  0  0  0  0  0  0  0  0  0
    1.5808    1.2446    1.9188 H   0  0  0  0  0  0  0  0  0  0  0  0
    0.5726   -0.1921    2.0794 H   0  0  0  0  0  0  0  0  0  0  0  0
    2.3010   -0.3615    1.7498 H   0  0  0  0  0  0  0  0  0  0  0  0
   -2.3877   -1.5228    0.2613 H   0  0  0  0  0  0  0  0  0  0  0  0
   -2.6148    1.8585    0.8446 H   0  0  0  0  0  0  0  0  0  0  0  0
   -3.5678    0.5309    0.1683 H   0  0  0  0  0  0  0  0  0  0  0  0
   -2.8144    1.7082   -0.9152 H   0  0  0  0  0  0  0  0  0  0  0  0
  1  2  1  0  0  0  0
  1  3  1  0  0  0  0
  1  6  1  0  0  0  0
  1  7  1  0  0  0  0
  2  4  1  0  0  0  0
  2 10  1  0  0  0  0
  2 11  1  0  0  0  0
  3  5  1  0  0  0  0
  3 12  1  0  0  0  0
  3 13  1  0  0  0  0
  4  8  1  0  0  0  0
  4 14  1  0  0  0  0
  4 15  1  0  0  0  0
  5  8  2  0  0  0  0
  5  9  1  0  0  0  0
  6 16  1  0  0  0  0
  6 17  1  0  0  0  0
  6 18  1  0  0  0  0
  7 19  1  0  0  0  0
  7 20  1  0  0  0  0
  7 21  1  0  0  0  0
  8 22  1  0  0  0  0
  9 23  1  0  0  0  0
  9 24  1  0  0  0  0
  9 25  1  0  0  0  0
M  END
> <PUBCHEM_COMPOUND_CID>
79032

> <PUBCHEM_CONFORMER_RMSD>
0.4

> <PUBCHEM_CONFORMER_DIVERSEORDER>
2
1

> <PUBCHEM_MMFF94_PARTIAL_CHARGES>
6
22 0.15
3 0.14
4 0.14
5 -0.28
8 -0.29
9 0.14

> <PUBCHEM_EFFECTIVE_ROTOR_COUNT>
0.8

> <PUBCHEM_PHARMACOPHORE_FEATURES>
2
3 1 6 7 hydrophobe
6 1 2 3 4 5 8 rings

> <PUBCHEM_HEAVY_ATOM_COUNT>
9

> <PUBCHEM_ATOM_DEF_STEREO_COUNT>
0

> <PUBCHEM_ATOM_UDEF_STEREO_COUNT>
0

> <PUBCHEM_BOND_DEF_STEREO_COUNT>
0

> <PUBCHEM_BOND_UDEF_STEREO_COUNT>
0

> <PUBCHEM_ISOTOPIC_ATOM_COUNT>
0

> <PUBCHEM_COMPONENT_COUNT>
1

> <PUBCHEM_CACTVS_TAUTO_COUNT>
1

> <PUBCHEM_CONFORMER_ID>
000134B800000002

> <PUBCHEM_MMFF94_ENERGY>
12.1204

> <PUBCHEM_FEATURE_SELFOVERLAP>
10.148

> <PUBCHEM_SHAPE_FINGERPRINT>
12423570 1 11798914541240685850
137420 1 16379505700740510054
16945 1 18120660398510753862
18185500 45 17755851270856914106
20653085 51 17971782062076986028
21040471 1 18412541024412329831
21922407 69 16806152392974354545
23235685 24 18411136926641804861
23552423 10 18334858281647685255
241688 4 16968017736028755043
24536 1 18409157827154755687
2748010 2 18410864247816151823
5084963 1 18270397174928155197
528886 8 18410018714747391196
68250623 7 18041007292612923890

> <PUBCHEM_SHAPE_MULTIPOLES>
185.22
2.97
1.68
0.97
0.75
0.6
0.34
-1.3
-0.12
0.27
-0.18
-0.51
-0.08
-0.03

> <PUBCHEM_SHAPE_SELFOVERLAP>
362.011

> <PUBCHEM_SHAPE_VOLUME>
112.2

> <PUBCHEM_COORDINATE_TYPE>
2
5
10

$$$$
