140900
  -OEChem-11012401103D

 34 34  0     0  0  0  0  0  0999 V2000
    0.7316    3.2531   -0.0010 O   0  0  0  0  0  0  0  0  0  0  0  0
    0.9612   -0.4065    0.0012 C   0  0  0  0  0  0  0  0  0  0  0  0
    1.9797   -1.4992   -0.0005 C   0  0  0  0  0  0  0  0  0  0  0  0
   -2.8085   -0.1026   -0.0001 C   0  0  0  0  0  0  0  0  0  0  0  0
   -1.3615    0.2585    0.0016 C   0  0  0  0  0  0  0  0  0  0  0  0
   -0.3922   -0.7445    0.0018 C   0  0  0  0  0  0  0  0  0  0  0  0
    1.3450    0.9346    0.0004 C   0  0  0  0  0  0  0  0  0  0  0  0
   -0.9775    1.5995    0.0006 C   0  0  0  0  0  0  0  0  0  0  0  0
    0.3757    1.9375    0.0001 C   0  0  0  0  0  0  0  0  0  0  0  0
    1.8948   -2.3782   -1.2616 C   0  0  0  0  0  0  0  0  0  0  0  0
    1.8968   -2.3803    1.2593 C   0  0  0  0  0  0  0  0  0  0  0  0
   -3.2210   -0.8879    1.2594 C   0  0  0  0  0  0  0  0  0  0  0  0
   -3.2187   -0.8859   -1.2615 C   0  0  0  0  0  0  0  0  0  0  0  0
    2.7945    1.3020    0.0002 C   0  0  0  0  0  0  0  0  0  0  0  0
    2.9972   -1.0987   -0.0009 H   0  0  0  0  0  0  0  0  0  0  0  0
   -3.4048    0.8200    0.0002 H   0  0  0  0  0  0  0  0  0  0  0  0
   -0.6942   -1.7883    0.0017 H   0  0  0  0  0  0  0  0  0  0  0  0
   -1.7310    2.3834   -0.0001 H   0  0  0  0  0  0  0  0  0  0  0  0
    0.9508   -2.9309   -1.3159 H   0  0  0  0  0  0  0  0  0  0  0  0
    2.7087   -3.1115   -1.2742 H   0  0  0  0  0  0  0  0  0  0  0  0
    1.9794   -1.7675   -2.1674 H   0  0  0  0  0  0  0  0  0  0  0  0
    1.9828   -1.7711    2.1660 H   0  0  0  0  0  0  0  0  0  0  0  0
    2.7108   -3.1135    1.2695 H   0  0  0  0  0  0  0  0  0  0  0  0
    0.9529   -2.9331    1.3142 H   0  0  0  0  0  0  0  0  0  0  0  0
   -2.7343   -1.8680    1.3092 H   0  0  0  0  0  0  0  0  0  0  0  0
   -4.3039   -1.0527    1.2712 H   0  0  0  0  0  0  0  0  0  0  0  0
   -2.9550   -0.3348    2.1670 H   0  0  0  0  0  0  0  0  0  0  0  0
   -2.9512   -0.3312   -2.1678 H   0  0  0  0  0  0  0  0  0  0  0  0
   -4.3015   -1.0507   -1.2755 H   0  0  0  0  0  0  0  0  0  0  0  0
   -2.7318   -1.8658   -1.3121 H   0  0  0  0  0  0  0  0  0  0  0  0
    3.2906    0.9179   -0.8976 H   0  0  0  0  0  0  0  0  0  0  0  0
    2.9577    2.3845    0.0010 H   0  0  0  0  0  0  0  0  0  0  0  0
    3.2911    0.9168    0.8973 H   0  0  0  0  0  0  0  0  0  0  0  0
   -0.0723    3.8003   -0.0011 H   0  0  0  0  0  0  0  0  0  0  0  0
  1  9  1  0  0  0  0
  1 34  1  0  0  0  0
  2  3  1  0  0  0  0
  2  6  1  0  0  0  0
  2  7  2  0  0  0  0
  3 10  1  0  0  0  0
  3 11  1  0  0  0  0
  3 15  1  0  0  0  0
  4  5  1  0  0  0  0
  4 12  1  0  0  0  0
  4 13  1  0  0  0  0
  4 16  1  0  0  0  0
  5  6  2  0  0  0  0
  5  8  1  0  0  0  0
  6 17  1  0  0  0  0
  7  9  1  0  0  0  0
  7 14  1  0  0  0  0
  8  9  2  0  0  0  0
  8 18  1  0  0  0  0
 10 19  1  0  0  0  0
 10 20  1  0  0  0  0
 10 21  1  0  0  0  0
 11 22  1  0  0  0  0
 11 23  1  0  0  0  0
 11 24  1  0  0  0  0
 12 25  1  0  0  0  0
 12 26  1  0  0  0  0
 12 27  1  0  0  0  0
 13 28  1  0  0  0  0
 13 29  1  0  0  0  0
 13 30  1  0  0  0  0
 14 31  1  0  0  0  0
 14 32  1  0  0  0  0
 14 33  1  0  0  0  0
M  END
> <PUBCHEM_COMPOUND_CID>
140900

> <PUBCHEM_CONFORMER_RMSD>
0.6

> <PUBCHEM_CONFORMER_DIVERSEORDER>
1
3
2

> <PUBCHEM_MMFF94_PARTIAL_CHARGES>
13
1 -0.53
14 0.14
17 0.15
18 0.15
2 -0.14
3 0.14
34 0.45
4 0.14
5 -0.14
6 -0.15
7 -0.14
8 -0.15
9 0.08

> <PUBCHEM_EFFECTIVE_ROTOR_COUNT>
2

> <PUBCHEM_PHARMACOPHORE_FEATURES>
4
1 1 donor
3 3 10 11 hydrophobe
3 4 12 13 hydrophobe
6 2 5 6 7 8 9 rings

> <PUBCHEM_HEAVY_ATOM_COUNT>
14

> <PUBCHEM_ATOM_DEF_STEREO_COUNT>
0

> <PUBCHEM_ATOM_UDEF_STEREO_COUNT>
0

> <PUBCHEM_BOND_DEF_STEREO_COUNT>
0

> <PUBCHEM_BOND_UDEF_STEREO_COUNT>
0

> <PUBCHEM_ISOTOPIC_ATOM_COUNT>
0

> <PUBCHEM_COMPONENT_COUNT>
1

> <PUBCHEM_CACTVS_TAUTO_COUNT>
17

> <PUBCHEM_CONFORMER_ID>
0002266400000001

> <PUBCHEM_MMFF94_ENERGY>
37.1336

> <PUBCHEM_FEATURE_SELFOVERLAP>
20.297

> <PUBCHEM_SHAPE_FINGERPRINT>
1 1 18193273232988451125
116883 192 17982441608043324789
12524768 44 18413672396176371719
12553582 1 18266182721131966187
12759256 9 18339639065679365537
13140716 1 17978229688018636921
14817 1 16013533306837668011
161256 15 18340495469420992236
16945 1 18338517568050853697
17990270 104 18411982446888707071
193761 8 18194683666158082080
20201158 50 18261106426359387995
20361792 2 18340767031613489111
20645476 183 17316767891380707772
20645477 70 18411975880369313879
20711985 344 17834119641013326727
20871998 184 17766838329744475919
20871998 22 18269562636875926374
21501502 16 18338795594073984080
21524375 3 17834673077666895896
21650355 55 17324058362073972970
232386 152 17756142289520488730
2334 1 18410293571105755993
23388829 49 18342443859612079228
23419403 2 14646320035630872993
23552423 10 18261399879825891764
23557571 272 17551514345618707926
23559900 14 16758595951896705678
23598291 2 18059861636480853927
257057 1 18121477103669222947
2748010 2 18339074870006275372
3060560 45 18195234748868594540
3071541 236 16969961148569342233
576247 118 17908459924407207607
6338986 31 18194379122843348999
7364860 26 18343303694890098476
81228 2 17762615097002751249

> <PUBCHEM_SHAPE_MULTIPOLES>
282.24
4.53
2.97
1.07
2.98
1.13
0
-1.99
0
-2.13
0
0.28
-0.76
0

> <PUBCHEM_SHAPE_SELFOVERLAP>
574.521

> <PUBCHEM_SHAPE_VOLUME>
167.1

> <PUBCHEM_COORDINATE_TYPE>
2
5
10

$$$$
