145163
  -OEChem-11012401273D

 30 32  0     0  0  0  0  0  0999 V2000
   -1.9955   -1.5675   -1.0956 O   0  5  0  0  0  0  0  0  0  0  0  0
   -1.9966    1.5757   -1.0866 O   0  5  0  0  0  0  0  0  0  0  0  0
   -1.9105   -1.6290    1.1052 O   0  0  0  0  0  0  0  0  0  0  0  0
   -1.9395    1.6022    1.1158 O   0  0  0  0  0  0  0  0  0  0  0  0
   -1.6011   -1.1483    0.0037 N   0  3  0  0  0  0  0  0  0  0  0  0
   -1.6018    1.1505    0.0103 N   0  3  0  0  0  0  0  0  0  0  0  0
    0.1896    0.0050   -1.2670 C   0  0  0  0  0  0  0  0  0  0  0  0
    0.2011   -0.0019    1.2647 C   0  0  0  0  0  0  0  0  0  0  0  0
    1.9971    1.2593   -0.0059 C   0  0  0  0  0  0  0  0  0  0  0  0
    1.9974   -1.2559   -0.0128 C   0  0  0  0  0  0  0  0  0  0  0  0
   -0.6720    0.0015    0.0028 C   0  0  0  0  0  0  0  0  0  0  0  0
    1.1067    1.2526   -1.2640 C   0  0  0  0  0  0  0  0  0  0  0  0
    1.1069   -1.2425   -1.2708 C   0  0  0  0  0  0  0  0  0  0  0  0
    1.1182    1.2458    1.2602 C   0  0  0  0  0  0  0  0  0  0  0  0
    1.1185   -1.2493    1.2534 C   0  0  0  0  0  0  0  0  0  0  0  0
    2.8815    0.0018   -0.0134 C   0  0  0  0  0  0  0  0  0  0  0  0
   -0.3984    0.0075   -2.1936 H   0  0  0  0  0  0  0  0  0  0  0  0
   -0.3778   -0.0041    2.1972 H   0  0  0  0  0  0  0  0  0  0  0  0
    2.6307    2.1533   -0.0064 H   0  0  0  0  0  0  0  0  0  0  0  0
    2.6312   -2.1498   -0.0180 H   0  0  0  0  0  0  0  0  0  0  0  0
    0.5233    2.1787   -1.3087 H   0  0  0  0  0  0  0  0  0  0  0  0
    1.7378    1.2476   -2.1620 H   0  0  0  0  0  0  0  0  0  0  0  0
    1.7380   -1.2324   -2.1687 H   0  0  0  0  0  0  0  0  0  0  0  0
    0.5239   -2.1684   -1.3206 H   0  0  0  0  0  0  0  0  0  0  0  0
    1.7581    1.2345    2.1520 H   0  0  0  0  0  0  0  0  0  0  0  0
    0.5388    2.1735    1.3164 H   0  0  0  0  0  0  0  0  0  0  0  0
    0.5417   -2.1787    1.3056 H   0  0  0  0  0  0  0  0  0  0  0  0
    1.7588   -1.2415    2.1450 H   0  0  0  0  0  0  0  0  0  0  0  0
    3.5314    0.0042   -0.8971 H   0  0  0  0  0  0  0  0  0  0  0  0
    3.5395   -0.0005    0.8643 H   0  0  0  0  0  0  0  0  0  0  0  0
  1  5  1  0  0  0  0
  2  6  1  0  0  0  0
  3  5  2  0  0  0  0
  4  6  2  0  0  0  0
  5 11  1  0  0  0  0
  6 11  1  0  0  0  0
  7 11  1  0  0  0  0
  7 12  1  0  0  0  0
  7 13  1  0  0  0  0
  7 17  1  0  0  0  0
  8 11  1  0  0  0  0
  8 14  1  0  0  0  0
  8 15  1  0  0  0  0
  8 18  1  0  0  0  0
  9 12  1  0  0  0  0
  9 14  1  0  0  0  0
  9 16  1  0  0  0  0
  9 19  1  0  0  0  0
 10 13  1  0  0  0  0
 10 15  1  0  0  0  0
 10 16  1  0  0  0  0
 10 20  1  0  0  0  0
 12 21  1  0  0  0  0
 12 22  1  0  0  0  0
 13 23  1  0  0  0  0
 13 24  1  0  0  0  0
 14 25  1  0  0  0  0
 14 26  1  0  0  0  0
 15 27  1  0  0  0  0
 15 28  1  0  0  0  0
 16 29  1  0  0  0  0
 16 30  1  0  0  0  0
M  CHG  4   1  -1   2  -1   5   1   6   1
M  END
> <PUBCHEM_COMPOUND_CID>
145163

> <PUBCHEM_CONFORMER_RMSD>
0.6

> <PUBCHEM_CONFORMER_DIVERSEORDER>
1

> <PUBCHEM_MMFF94_PARTIAL_CHARGES>
7
1 -0.52
11 0.48
2 -0.52
3 -0.52
4 -0.52
5 0.8
6 0.8

> <PUBCHEM_EFFECTIVE_ROTOR_COUNT>
3.2

> <PUBCHEM_PHARMACOPHORE_FEATURES>
10
1 1 acceptor
1 1 anion
1 2 acceptor
1 2 anion
1 3 acceptor
1 4 acceptor
6 7 8 10 11 13 15 rings
6 7 8 9 11 12 14 rings
6 7 9 10 12 13 16 rings
6 8 9 10 14 15 16 rings

> <PUBCHEM_HEAVY_ATOM_COUNT>
16

> <PUBCHEM_ATOM_DEF_STEREO_COUNT>
0

> <PUBCHEM_ATOM_UDEF_STEREO_COUNT>
0

> <PUBCHEM_BOND_DEF_STEREO_COUNT>
0

> <PUBCHEM_BOND_UDEF_STEREO_COUNT>
0

> <PUBCHEM_ISOTOPIC_ATOM_COUNT>
0

> <PUBCHEM_COMPONENT_COUNT>
1

> <PUBCHEM_CACTVS_TAUTO_COUNT>
1

> <PUBCHEM_CONFORMER_ID>
0002370B00000001

> <PUBCHEM_MMFF94_ENERGY>
48.781

> <PUBCHEM_FEATURE_SELFOVERLAP>
63.395

> <PUBCHEM_SHAPE_FINGERPRINT>
10863032 1 18343861091814692500
10948715 1 18338234869172117444
12138202 97 18341043013057619789
12423570 1 12956247583030125298
12491281 212 18129104433259056568
13024252 1 15650467618648395694
13380536 237 18266999748217283948
144361 1 18338783576792062460
15557651 10 17610095323632807860
15775835 57 18042968675101219237
16945 1 18194683670584495956
21501502 16 18413671313717687684
21922407 69 17676481795592593864
22344851 262 18186811248749414636
23419403 2 16392312709038384525
23559900 14 18191308174984622398
241688 4 18040151812199517008
2748010 2 18273495671962847204
5084963 1 18263361546145980116
528886 8 17676771972510441962
68250623 7 18409449185194151150

> <PUBCHEM_SHAPE_MULTIPOLES>
295.83
3.09
1.88
1.49
0.16
0
0
-0.01
-0.03
0.49
0.02
0.05
0
0

> <PUBCHEM_SHAPE_SELFOVERLAP>
649.903

> <PUBCHEM_SHAPE_VOLUME>
154.9

> <PUBCHEM_COORDINATE_TYPE>
2
5
10

$$$$
