66188
  -OEChem-11012400543D

 21 20  0     0  0  0  0  0  0999 V2000
    0.0006   -0.0014   -0.0034 Si  0  0  0  0  0  0  0  0  0  0  0  0
   -0.8405    1.2383    1.0561 C   0  0  0  0  0  0  0  0  0  0  0  0
    0.8442   -1.2418    1.0537 C   0  0  0  0  0  0  0  0  0  0  0  0
    1.2444    0.8422   -1.0565 C   0  0  0  0  0  0  0  0  0  0  0  0
   -1.2476   -0.8385   -1.0561 C   0  0  0  0  0  0  0  0  0  0  0  0
   -1.5490    2.2807    0.6107 C   0  0  0  0  0  0  0  0  0  0  0  0
    1.5517   -2.2841    0.6060 C   0  0  0  0  0  0  0  0  0  0  0  0
    2.2866    1.5473   -0.6055 C   0  0  0  0  0  0  0  0  0  0  0  0
   -2.2904   -1.5428   -0.6049 C   0  0  0  0  0  0  0  0  0  0  0  0
   -0.7406    1.0927    2.1270 H   0  0  0  0  0  0  0  0  0  0  0  0
    0.7468   -1.0967    2.1249 H   0  0  0  0  0  0  0  0  0  0  0  0
    1.1011    0.7464   -2.1281 H   0  0  0  0  0  0  0  0  0  0  0  0
   -1.1068   -0.7395   -2.1278 H   0  0  0  0  0  0  0  0  0  0  0  0
   -2.0126    2.9641    1.3148 H   0  0  0  0  0  0  0  0  0  0  0  0
   -1.6873    2.4830   -0.4463 H   0  0  0  0  0  0  0  0  0  0  0  0
    2.0168   -2.9678    1.3086 H   0  0  0  0  0  0  0  0  0  0  0  0
    1.6874   -2.4857   -0.4515 H   0  0  0  0  0  0  0  0  0  0  0  0
    2.9725    2.0127   -1.3060 H   0  0  0  0  0  0  0  0  0  0  0  0
    2.4862    1.6812    0.4526 H   0  0  0  0  0  0  0  0  0  0  0  0
   -2.9791   -2.0041   -1.3053 H   0  0  0  0  0  0  0  0  0  0  0  0
   -2.4876   -1.6799    0.4532 H   0  0  0  0  0  0  0  0  0  0  0  0
  1  2  1  0  0  0  0
  1  3  1  0  0  0  0
  1  4  1  0  0  0  0
  1  5  1  0  0  0  0
  2  6  2  0  0  0  0
  2 10  1  0  0  0  0
  3  7  2  0  0  0  0
  3 11  1  0  0  0  0
  4  8  2  0  0  0  0
  4 12  1  0  0  0  0
  5  9  2  0  0  0  0
  5 13  1  0  0  0  0
  6 14  1  0  0  0  0
  6 15  1  0  0  0  0
  7 16  1  0  0  0  0
  7 17  1  0  0  0  0
  8 18  1  0  0  0  0
  8 19  1  0  0  0  0
  9 20  1  0  0  0  0
  9 21  1  0  0  0  0
M  END
> <PUBCHEM_COMPOUND_CID>
66188

> <PUBCHEM_CONFORMER_RMSD>
0.6

> <PUBCHEM_CONFORMER_DIVERSEORDER>
1
3
2
4

> <PUBCHEM_MMFF94_PARTIAL_CHARGES>
21
1 0.92
10 0.15
11 0.15
12 0.15
13 0.15
14 0.15
15 0.15
16 0.15
17 0.15
18 0.15
19 0.15
2 -0.38
20 0.15
21 0.15
3 -0.38
4 -0.38
5 -0.38
6 -0.3
7 -0.3
8 -0.3
9 -0.3

> <PUBCHEM_EFFECTIVE_ROTOR_COUNT>
4

> <PUBCHEM_PHARMACOPHORE_FEATURES>
0

> <PUBCHEM_HEAVY_ATOM_COUNT>
9

> <PUBCHEM_ATOM_DEF_STEREO_COUNT>
0

> <PUBCHEM_ATOM_UDEF_STEREO_COUNT>
0

> <PUBCHEM_BOND_DEF_STEREO_COUNT>
0

> <PUBCHEM_BOND_UDEF_STEREO_COUNT>
0

> <PUBCHEM_ISOTOPIC_ATOM_COUNT>
0

> <PUBCHEM_COMPONENT_COUNT>
1

> <PUBCHEM_CACTVS_TAUTO_COUNT>
1

> <PUBCHEM_CONFORMER_ID>
0001028C00000001

> <PUBCHEM_MMFF94_ENERGY>
6.1336

> <PUBCHEM_FEATURE_SELFOVERLAP>
0

> <PUBCHEM_SHAPE_FINGERPRINT>
10702982 57 18267605523437235316
12423570 1 16408706599254728273
13380536 167 18340205189618847873
13380536 261 18411983597723515262
137420 1 11778857778239221540
14993402 34 17762338015729949285
15219459 52 18050847715264385637
187816 3 17978232982495897236
20711985 344 17847064393602763021
23211744 25 17617084150367563103
4369600 1 17981598583013834147
68250623 7 18267325165036093871
68419 9 18341334405061068972

> <PUBCHEM_SHAPE_MULTIPOLES>
203.43
2.68
2.67
1.28
0
0
0
0
-0.52
-0.01
0.52
0
0
-1.32

> <PUBCHEM_SHAPE_SELFOVERLAP>
365.505

> <PUBCHEM_SHAPE_VOLUME>
129.2

> <PUBCHEM_COORDINATE_TYPE>
2
5
10

$$$$
