143097
  -OEChem-11012400373D

 22 24  0     0  0  0  0  0  0999 V2000
    2.4595   -1.1159    0.0003 O   0  0  0  0  0  0  0  0  0  0  0  0
   -2.4595   -1.1159    0.0001 O   0  0  0  0  0  0  0  0  0  0  0  0
    2.5174    1.1520    0.0003 N   0  0  0  0  0  0  0  0  0  0  0  0
   -2.5174    1.1519   -0.0001 N   0  0  0  0  0  0  0  0  0  0  0  0
    1.1745   -0.6600    0.0003 C   0  0  0  0  0  0  0  0  0  0  0  0
   -1.1745   -0.6602    0.0003 C   0  0  0  0  0  0  0  0  0  0  0  0
    1.2108    0.7282    0.0003 C   0  0  0  0  0  0  0  0  0  0  0  0
   -1.2107    0.7283    0.0002 C   0  0  0  0  0  0  0  0  0  0  0  0
    0.0000   -1.3958    0.0003 C   0  0  0  0  0  0  0  0  0  0  0  0
    0.0000    1.4367    0.0002 C   0  0  0  0  0  0  0  0  0  0  0  0
    3.2011    0.0280    0.0000 C   0  0  0  0  0  0  0  0  0  0  0  0
   -3.2011    0.0280   -0.0001 C   0  0  0  0  0  0  0  0  0  0  0  0
    4.6611   -0.1527   -0.0013 C   0  0  0  0  0  0  0  0  0  0  0  0
   -4.6611   -0.1526   -0.0009 C   0  0  0  0  0  0  0  0  0  0  0  0
    0.0000   -2.4795    0.0003 H   0  0  0  0  0  0  0  0  0  0  0  0
    0.0000    2.5229    0.0002 H   0  0  0  0  0  0  0  0  0  0  0  0
    5.1718    0.8149   -0.0009 H   0  0  0  0  0  0  0  0  0  0  0  0
    4.9806   -0.7073    0.8859 H   0  0  0  0  0  0  0  0  0  0  0  0
    4.9791   -0.7058   -0.8900 H   0  0  0  0  0  0  0  0  0  0  0  0
   -4.9794   -0.7060   -0.8894 H   0  0  0  0  0  0  0  0  0  0  0  0
   -4.9804   -0.7070    0.8866 H   0  0  0  0  0  0  0  0  0  0  0  0
   -5.1718    0.8150   -0.0007 H   0  0  0  0  0  0  0  0  0  0  0  0
  1  5  1  0  0  0  0
  1 11  1  0  0  0  0
  2  6  1  0  0  0  0
  2 12  1  0  0  0  0
  3  7  1  0  0  0  0
  3 11  2  0  0  0  0
  4  8  1  0  0  0  0
  4 12  2  0  0  0  0
  5  7  2  0  0  0  0
  5  9  1  0  0  0  0
  6  8  1  0  0  0  0
  6  9  2  0  0  0  0
  7 10  1  0  0  0  0
  8 10  2  0  0  0  0
  9 15  1  0  0  0  0
 10 16  1  0  0  0  0
 11 13  1  0  0  0  0
 12 14  1  0  0  0  0
 13 17  1  0  0  0  0
 13 18  1  0  0  0  0
 13 19  1  0  0  0  0
 14 20  1  0  0  0  0
 14 21  1  0  0  0  0
 14 22  1  0  0  0  0
M  END
> <PUBCHEM_COMPOUND_CID>
143097

> <PUBCHEM_CONFORMER_RMSD>
0.4

> <PUBCHEM_CONFORMER_DIVERSEORDER>
1

> <PUBCHEM_MMFF94_PARTIAL_CHARGES>
16
1 -0.28
10 -0.15
11 0.3
12 0.3
13 0.18
14 0.18
15 0.15
16 0.15
2 -0.28
3 -0.57
4 -0.57
5 0.14
6 0.14
7 0.23
8 0.23
9 -0.15

> <PUBCHEM_EFFECTIVE_ROTOR_COUNT>
0

> <PUBCHEM_PHARMACOPHORE_FEATURES>
3
5 1 3 5 7 11 rings
5 2 4 6 8 12 rings
6 5 6 7 8 9 10 rings

> <PUBCHEM_HEAVY_ATOM_COUNT>
14

> <PUBCHEM_ATOM_DEF_STEREO_COUNT>
0

> <PUBCHEM_ATOM_UDEF_STEREO_COUNT>
0

> <PUBCHEM_BOND_DEF_STEREO_COUNT>
0

> <PUBCHEM_BOND_UDEF_STEREO_COUNT>
0

> <PUBCHEM_ISOTOPIC_ATOM_COUNT>
0

> <PUBCHEM_COMPONENT_COUNT>
1

> <PUBCHEM_CACTVS_TAUTO_COUNT>
1

> <PUBCHEM_CONFORMER_ID>
00022EF900000001

> <PUBCHEM_MMFF94_ENERGY>
15.2786

> <PUBCHEM_FEATURE_SELFOVERLAP>
15.457

> <PUBCHEM_SHAPE_FINGERPRINT>
10608611 8 18410569587105446720
10967382 1 18410855451575397318
11132069 177 18341325664918698738
11401426 45 18341607131184109948
11471102 20 18410853269694879948
12032990 46 18410580582221373699
13380535 76 18410576188470213154
13690532 89 18408322164279745290
14115302 16 17967824876435886846
14144814 61 18410573959381660537
14325111 11 18410855455838644640
14911166 2 18410011043793252399
14993402 34 18409167722674990196
15196674 1 18410855464423233029
15536298 74 18271525398671060168
16945 1 18410573985151470628
18522853 276 18342175565826794072
193761 8 17690280413102092993
200 152 18060132146432093695
20201158 50 18410857650566965410
20510252 161 18201720596157099329
20645477 70 18339075982598341239
21267235 1 18410865360028077891
23402539 116 18131061632823537917
23402655 69 18341322298265907581
23463225 33 18408040689113078590
23559900 14 18343020017555228376
2748010 2 18050287269097556148
5104073 3 18338799021441731713
528886 8 18411132545653681307
53655031 270 18411419492418649097
53812653 166 18343015618685843216
69090 78 18202559605265209687
7364860 26 18269274736981880568
8809292 202 18187932832129982419

> <PUBCHEM_SHAPE_MULTIPOLES>
266.41
7.38
1.35
0.59
0
0.05
0
-0.37
0
0
0
0
0
0

> <PUBCHEM_SHAPE_SELFOVERLAP>
603.718

> <PUBCHEM_SHAPE_VOLUME>
144.9

> <PUBCHEM_COORDINATE_TYPE>
2
5
10

$$$$
