18232
  -OEChem-11012400463D

 24 24  0     0  0  0  0  0  0999 V2000
    3.7648    0.0391   -0.0978 O   0  0  0  0  0  0  0  0  0  0  0  0
    0.1063   -0.2781    0.2204 N   0  0  0  0  0  0  0  0  0  0  0  0
   -0.2951    1.0316   -0.3120 C   0  0  0  0  0  0  0  0  0  0  0  0
   -0.8335   -1.3299   -0.1921 C   0  0  0  0  0  0  0  0  0  0  0  0
   -1.6960    1.4158    0.1665 C   0  0  0  0  0  0  0  0  0  0  0  0
   -2.2521   -1.0229    0.2905 C   0  0  0  0  0  0  0  0  0  0  0  0
   -2.7188    0.3447   -0.1948 C   0  0  0  0  0  0  0  0  0  0  0  0
    1.4652   -0.6095   -0.2074 C   0  0  0  0  0  0  0  0  0  0  0  0
    2.4595    0.4091    0.3267 C   0  0  0  0  0  0  0  0  0  0  0  0
   -0.2641    1.0371   -1.4095 H   0  0  0  0  0  0  0  0  0  0  0  0
    0.3559    1.8352    0.0420 H   0  0  0  0  0  0  0  0  0  0  0  0
   -0.5284   -2.2912    0.2388 H   0  0  0  0  0  0  0  0  0  0  0  0
   -0.8338   -1.4473   -1.2839 H   0  0  0  0  0  0  0  0  0  0  0  0
   -1.9912    2.3724   -0.2797 H   0  0  0  0  0  0  0  0  0  0  0  0
   -1.6871    1.5597    1.2546 H   0  0  0  0  0  0  0  0  0  0  0  0
   -2.2813   -1.0511    1.3872 H   0  0  0  0  0  0  0  0  0  0  0  0
   -2.9406   -1.7967   -0.0674 H   0  0  0  0  0  0  0  0  0  0  0  0
   -3.6915    0.5890    0.2461 H   0  0  0  0  0  0  0  0  0  0  0  0
   -2.8545    0.3205   -1.2830 H   0  0  0  0  0  0  0  0  0  0  0  0
    1.5448   -0.6723   -1.3011 H   0  0  0  0  0  0  0  0  0  0  0  0
    1.7517   -1.5986    0.1734 H   0  0  0  0  0  0  0  0  0  0  0  0
    2.4461    0.4408    1.4213 H   0  0  0  0  0  0  0  0  0  0  0  0
    2.2991    1.4159   -0.0634 H   0  0  0  0  0  0  0  0  0  0  0  0
    4.3824    0.6932    0.2715 H   0  0  0  0  0  0  0  0  0  0  0  0
  1  9  1  0  0  0  0
  1 24  1  0  0  0  0
  2  3  1  0  0  0  0
  2  4  1  0  0  0  0
  2  8  1  0  0  0  0
  3  5  1  0  0  0  0
  3 10  1  0  0  0  0
  3 11  1  0  0  0  0
  4  6  1  0  0  0  0
  4 12  1  0  0  0  0
  4 13  1  0  0  0  0
  5  7  1  0  0  0  0
  5 14  1  0  0  0  0
  5 15  1  0  0  0  0
  6  7  1  0  0  0  0
  6 16  1  0  0  0  0
  6 17  1  0  0  0  0
  7 18  1  0  0  0  0
  7 19  1  0  0  0  0
  8  9  1  0  0  0  0
  8 20  1  0  0  0  0
  8 21  1  0  0  0  0
  9 22  1  0  0  0  0
  9 23  1  0  0  0  0
M  END
> <PUBCHEM_COMPOUND_CID>
18232

> <PUBCHEM_CONFORMER_RMSD>
0.6

> <PUBCHEM_CONFORMER_DIVERSEORDER>
1
8
3
5
6
4
7
2

> <PUBCHEM_MMFF94_PARTIAL_CHARGES>
7
1 -0.68
2 -0.81
24 0.4
3 0.27
4 0.27
8 0.27
9 0.28

> <PUBCHEM_EFFECTIVE_ROTOR_COUNT>
3.2

> <PUBCHEM_PHARMACOPHORE_FEATURES>
4
1 1 acceptor
1 1 donor
1 2 cation
6 2 3 4 5 6 7 rings

> <PUBCHEM_HEAVY_ATOM_COUNT>
9

> <PUBCHEM_ATOM_DEF_STEREO_COUNT>
0

> <PUBCHEM_ATOM_UDEF_STEREO_COUNT>
0

> <PUBCHEM_BOND_DEF_STEREO_COUNT>
0

> <PUBCHEM_BOND_UDEF_STEREO_COUNT>
0

> <PUBCHEM_ISOTOPIC_ATOM_COUNT>
0

> <PUBCHEM_COMPONENT_COUNT>
1

> <PUBCHEM_CACTVS_TAUTO_COUNT>
1

> <PUBCHEM_CONFORMER_ID>
0000473800000001

> <PUBCHEM_MMFF94_ENERGY>
2.7225

> <PUBCHEM_FEATURE_SELFOVERLAP>
20.297

> <PUBCHEM_SHAPE_FINGERPRINT>
10857977 72 18338227266873989617
11062470 55 15646770085038814141
12897270 3 18412824685590678196
12932764 1 17775560957709781774
13024252 1 14490471976292031605
14325111 11 18411136901066945928
14390081 3 18343298150124307664
15310529 11 14764355898680431271
16714656 1 18411136939626699583
20645464 45 18131637767936180606
20871998 184 18200879590242565367
21040471 1 18265337192447324029
21293036 1 18337096922187581741
23235685 24 18411412874275095869
23552423 10 18115305729638838020
369184 2 16732697246685290105
6333449 129 18341891896242912925
75552 356 18408042930896083551

> <PUBCHEM_SHAPE_MULTIPOLES>
174.37
4.65
1.38
0.65
3.71
0.03
0
0.24
0.11
-0.76
0
-0.04
0
0.1

> <PUBCHEM_SHAPE_SELFOVERLAP>
330.106

> <PUBCHEM_SHAPE_VOLUME>
108.7

> <PUBCHEM_COORDINATE_TYPE>
2
5
10

$$$$
