80574
  -OEChem-11012400433D

 26 26  0     0  0  0  0  0  0999 V2000
    0.0552   -2.2346    0.0114 N   0  0  0  0  0  0  0  0  0  0  0  0
    1.5658    0.2307   -0.0002 C   0  0  0  0  0  0  0  0  0  0  0  0
    0.0284    0.2051    0.0026 C   0  0  0  0  0  0  0  0  0  0  0  0
    2.0611    1.6932   -0.0063 C   0  0  0  0  0  0  0  0  0  0  0  0
    2.0952   -0.4900   -1.2591 C   0  0  0  0  0  0  0  0  0  0  0  0
    2.2049   -0.4623    1.2246 C   0  0  0  0  0  0  0  0  0  0  0  0
   -0.6298   -0.9998    0.0081 C   0  0  0  0  0  0  0  0  0  0  0  0
   -0.6216    1.4162   -0.0006 C   0  0  0  0  0  0  0  0  0  0  0  0
   -2.0247   -0.9949    0.0105 C   0  0  0  0  0  0  0  0  0  0  0  0
   -2.0165    1.4210    0.0018 C   0  0  0  0  0  0  0  0  0  0  0  0
   -2.7180    0.2155    0.0073 C   0  0  0  0  0  0  0  0  0  0  0  0
    3.1592    1.7169   -0.0182 H   0  0  0  0  0  0  0  0  0  0  0  0
    1.7519    2.2415   -0.9046 H   0  0  0  0  0  0  0  0  0  0  0  0
    1.7658    2.2459    0.8939 H   0  0  0  0  0  0  0  0  0  0  0  0
    1.5783   -0.1311   -2.1580 H   0  0  0  0  0  0  0  0  0  0  0  0
    3.1594   -0.2586   -1.3993 H   0  0  0  0  0  0  0  0  0  0  0  0
    2.0428   -1.5774   -1.2690 H   0  0  0  0  0  0  0  0  0  0  0  0
    3.2920   -0.3117    1.2243 H   0  0  0  0  0  0  0  0  0  0  0  0
    1.8210   -0.0154    2.1504 H   0  0  0  0  0  0  0  0  0  0  0  0
    2.0568   -1.5362    1.3189 H   0  0  0  0  0  0  0  0  0  0  0  0
   -0.1613    2.3944   -0.0036 H   0  0  0  0  0  0  0  0  0  0  0  0
   -2.5845   -1.9268    0.0148 H   0  0  0  0  0  0  0  0  0  0  0  0
   -2.5580    2.3627   -0.0004 H   0  0  0  0  0  0  0  0  0  0  0  0
   -3.8041    0.2193    0.0091 H   0  0  0  0  0  0  0  0  0  0  0  0
   -0.5050   -3.0792    0.0079 H   0  0  0  0  0  0  0  0  0  0  0  0
    1.0469   -2.3579    0.0518 H   0  0  0  0  0  0  0  0  0  0  0  0
  1  7  1  0  0  0  0
  1 25  1  0  0  0  0
  1 26  1  0  0  0  0
  2  3  1  0  0  0  0
  2  4  1  0  0  0  0
  2  5  1  0  0  0  0
  2  6  1  0  0  0  0
  3  7  1  0  0  0  0
  3  8  2  0  0  0  0
  4 12  1  0  0  0  0
  4 13  1  0  0  0  0
  4 14  1  0  0  0  0
  5 15  1  0  0  0  0
  5 16  1  0  0  0  0
  5 17  1  0  0  0  0
  6 18  1  0  0  0  0
  6 19  1  0  0  0  0
  6 20  1  0  0  0  0
  7  9  2  0  0  0  0
  8 10  1  0  0  0  0
  8 21  1  0  0  0  0
  9 11  1  0  0  0  0
  9 22  1  0  0  0  0
 10 11  2  0  0  0  0
 10 23  1  0  0  0  0
 11 24  1  0  0  0  0
M  END
> <PUBCHEM_COMPOUND_CID>
80574

> <PUBCHEM_CONFORMER_RMSD>
0.4

> <PUBCHEM_CONFORMER_DIVERSEORDER>
1

> <PUBCHEM_MMFF94_PARTIAL_CHARGES>
14
1 -0.9
10 -0.15
11 -0.15
2 0.14
21 0.15
22 0.15
23 0.15
24 0.15
25 0.4
26 0.4
3 -0.14
7 0.1
8 -0.15
9 -0.15

> <PUBCHEM_EFFECTIVE_ROTOR_COUNT>
1

> <PUBCHEM_PHARMACOPHORE_FEATURES>
4
1 1 cation
1 1 donor
4 2 4 5 6 hydrophobe
6 3 7 8 9 10 11 rings

> <PUBCHEM_HEAVY_ATOM_COUNT>
11

> <PUBCHEM_ATOM_DEF_STEREO_COUNT>
0

> <PUBCHEM_ATOM_UDEF_STEREO_COUNT>
0

> <PUBCHEM_BOND_DEF_STEREO_COUNT>
0

> <PUBCHEM_BOND_UDEF_STEREO_COUNT>
0

> <PUBCHEM_ISOTOPIC_ATOM_COUNT>
0

> <PUBCHEM_COMPONENT_COUNT>
1

> <PUBCHEM_CACTVS_TAUTO_COUNT>
1

> <PUBCHEM_CONFORMER_ID>
00013ABE00000001

> <PUBCHEM_MMFF94_ENERGY>
60.9685

> <PUBCHEM_FEATURE_SELFOVERLAP>
20.297

> <PUBCHEM_SHAPE_FINGERPRINT>
12326174 3 15051738590475611500
12423570 1 16010693152555425734
12524768 44 18269560605345553637
12897270 3 18410296887026133077
12932764 1 18040156201640386253
15775835 57 18113902641175065028
16945 1 18338517422211687821
18185500 45 17974002052898315282
19973954 147 18342182171481376285
20645464 45 18059565901969757112
20645476 183 17676780854207768447
20871998 184 17912367829060386847
21040471 1 18338517413458196941
22802520 49 18199494158278082750
23552423 10 18188211008444864596
23559900 14 18055644919795653734
241688 4 17329713115472177491
2748010 2 18338237166979406541
29004967 10 16487254369839233992
369184 2 18114172060273384985
5084963 1 18059863834981583936

> <PUBCHEM_SHAPE_MULTIPOLES>
221.39
3.61
1.84
0.9
0.41
0.14
-0.01
-0.5
0.05
0.08
0
-0.62
0.14
0

> <PUBCHEM_SHAPE_SELFOVERLAP>
457.022

> <PUBCHEM_SHAPE_VOLUME>
128.3

> <PUBCHEM_COORDINATE_TYPE>
2
5
10

$$$$
