5463061
  -OEChem-11012401003D

 28 28  0     0  0  0  0  0  0999 V2000
   -0.8869   -0.4831    0.6190 S   0  0  0  0  0  0  0  0  0  0  0  0
   -1.0523   -1.9240    0.7150 O   0  0  0  0  0  0  0  0  0  0  0  0
   -1.2653    0.3701    1.7335 O   0  0  0  0  0  0  0  0  0  0  0  0
    0.8199   -0.1847    0.2632 C   0  0  0  0  0  0  0  0  0  0  0  0
   -1.7319    0.0932   -0.8159 C   0  0  0  0  0  0  0  0  0  0  0  0
    1.5594   -1.1702   -0.3663 C   0  0  0  0  0  0  0  0  0  0  0  0
    1.3822    1.0277    0.6212 C   0  0  0  0  0  0  0  0  0  0  0  0
    3.4900    0.2803   -0.2935 C   0  0  0  0  0  0  0  0  0  0  0  0
    2.9055   -0.9357   -0.6468 C   0  0  0  0  0  0  0  0  0  0  0  0
    2.7284    1.2621    0.3405 C   0  0  0  0  0  0  0  0  0  0  0  0
   -3.1846   -0.1761   -0.6142 C   0  0  0  0  0  0  0  0  0  0  0  0
    4.9291    0.5316   -0.5939 C   0  0  0  0  0  0  0  0  0  0  0  0
   -4.1182    0.7857   -0.5759 C   0  0  0  0  0  0  0  0  0  0  0  0
   -5.5753    0.5230   -0.3861 C   0  0  0  0  0  0  0  0  0  0  0  0
   -1.5135    1.1578   -0.9402 H   0  0  0  0  0  0  0  0  0  0  0  0
   -1.3620   -0.4593   -1.6840 H   0  0  0  0  0  0  0  0  0  0  0  0
    1.1208   -2.1200   -0.6561 H   0  0  0  0  0  0  0  0  0  0  0  0
    0.8037    1.8061    1.1088 H   0  0  0  0  0  0  0  0  0  0  0  0
    3.4885   -1.7083   -1.1412 H   0  0  0  0  0  0  0  0  0  0  0  0
    3.1726    2.2136    0.6208 H   0  0  0  0  0  0  0  0  0  0  0  0
   -3.4920   -1.2150   -0.5193 H   0  0  0  0  0  0  0  0  0  0  0  0
    5.5504    0.2076    0.2470 H   0  0  0  0  0  0  0  0  0  0  0  0
    5.2456   -0.0087   -1.4927 H   0  0  0  0  0  0  0  0  0  0  0  0
    5.1144    1.5954   -0.7780 H   0  0  0  0  0  0  0  0  0  0  0  0
   -3.8219    1.8258   -0.6827 H   0  0  0  0  0  0  0  0  0  0  0  0
   -5.9315    1.0333    0.5141 H   0  0  0  0  0  0  0  0  0  0  0  0
   -5.7951   -0.5442   -0.2824 H   0  0  0  0  0  0  0  0  0  0  0  0
   -6.1375    0.9054   -1.2435 H   0  0  0  0  0  0  0  0  0  0  0  0
  1  2  2  0  0  0  0
  1  3  2  0  0  0  0
  1  4  1  0  0  0  0
  1  5  1  0  0  0  0
  4  6  2  0  0  0  0
  4  7  1  0  0  0  0
  5 11  1  0  0  0  0
  5 15  1  0  0  0  0
  5 16  1  0  0  0  0
  6  9  1  0  0  0  0
  6 17  1  0  0  0  0
  7 10  2  0  0  0  0
  7 18  1  0  0  0  0
  8  9  2  0  0  0  0
  8 10  1  0  0  0  0
  8 12  1  0  0  0  0
  9 19  1  0  0  0  0
 10 20  1  0  0  0  0
 11 13  2  0  0  0  0
 11 21  1  0  0  0  0
 12 22  1  0  0  0  0
 12 23  1  0  0  0  0
 12 24  1  0  0  0  0
 13 14  1  0  0  0  0
 13 25  1  0  0  0  0
 14 26  1  0  0  0  0
 14 27  1  0  0  0  0
 14 28  1  0  0  0  0
M  END
> <PUBCHEM_COMPOUND_CID>
5463061

> <PUBCHEM_CONFORMER_RMSD>
0.6

> <PUBCHEM_CONFORMER_DIVERSEORDER>
1
2
3

> <PUBCHEM_MMFF94_PARTIAL_CHARGES>
20
1 1.2
10 -0.15
11 -0.29
12 0.14
13 -0.29
14 0.14
17 0.15
18 0.15
19 0.15
2 -0.65
20 0.15
21 0.15
25 0.15
3 -0.65
4 -0.01
5 0.24
6 -0.15
7 -0.15
8 -0.14
9 -0.15

> <PUBCHEM_EFFECTIVE_ROTOR_COUNT>
3

> <PUBCHEM_PHARMACOPHORE_FEATURES>
4
1 14 hydrophobe
1 2 acceptor
1 3 acceptor
6 4 6 7 8 9 10 rings

> <PUBCHEM_HEAVY_ATOM_COUNT>
14

> <PUBCHEM_ATOM_DEF_STEREO_COUNT>
0

> <PUBCHEM_ATOM_UDEF_STEREO_COUNT>
0

> <PUBCHEM_BOND_DEF_STEREO_COUNT>
1

> <PUBCHEM_BOND_UDEF_STEREO_COUNT>
0

> <PUBCHEM_ISOTOPIC_ATOM_COUNT>
0

> <PUBCHEM_COMPONENT_COUNT>
1

> <PUBCHEM_CACTVS_TAUTO_COUNT>
1

> <PUBCHEM_CONFORMER_ID>
00535C1500000001

> <PUBCHEM_MMFF94_ENERGY>
17.0171

> <PUBCHEM_FEATURE_SELFOVERLAP>
20.315

> <PUBCHEM_SHAPE_FINGERPRINT>
10498660 4 17678165010936301397
11401426 45 18060696213198376584
11471102 20 18343302556997993798
12251169 10 11819277754184875745
124424 183 18333171674419401618
12500047 106 18187084000753308578
12730499 353 18408610257764460723
12815109 37 12823293502922512733
14115302 16 15554439738668473293
14252887 29 11242241927536274956
14911166 2 18343867723207326332
14943859 89 17240202131642596227
14993402 34 17203612596873767660
15775835 57 17676201372872236875
16752209 62 15554449553059056463
16945 1 17774172309236950090
18186145 218 18339911671828158949
187816 3 18060701693244317531
200 152 17131834261176928160
20279233 1 18335427872052861374
20645477 56 17967814976362059732
20645477 70 18201159849648644358
20671657 53 15195283148911541737
21119208 17 17418091026984193357
212847 35 18113893836507841500
21501925 9 9655574132311383447
22485316 2 11815894557101498373
22854114 59 12107785198771791565
23402539 116 18187919599203510855
23402655 69 18273213075736136141
23557571 272 18041855028551377843
23559900 14 16056587803397286586
23598291 2 17129599946344267414
25 1 18410006620061547759
2748010 2 17912932978711900600
276578 36 16515677814864081185
3060560 45 17989487420519883134
366044 4 17894629253772491123
4047638 21 18040154007059511788
4072396 5 18341319030017282818
42 15 8574712416560365149
449060 50 14056717950390680456
4990 188 18342174453820570175
522135 26 18131346388975771655
8030462 33 17703518748297299946
83771 10 11095884873547140003

> <PUBCHEM_SHAPE_MULTIPOLES>
280.22
9.53
1.29
1.05
6.15
0.28
0.24
-2.77
-3.26
-0.41
0.16
0.27
-0.02
0.38

> <PUBCHEM_SHAPE_SELFOVERLAP>
557.428

> <PUBCHEM_SHAPE_VOLUME>
166.7

> <PUBCHEM_COORDINATE_TYPE>
2
5
10

$$$$
