14767866
  -OEChem-11012400313D

 34 33  0     0  0  0  0  0  0999 V2000
    0.8340   -0.0001   -0.1017 Si  0  0  0  0  0  0  0  0  0  0  0  0
   -0.7373    0.1037    0.5863 N   0  0  0  0  0  0  0  0  0  0  0  0
    2.0932   -0.1088    1.2790 C   0  0  0  0  0  0  0  0  0  0  0  0
    1.1629    1.5266   -1.1312 C   0  0  0  0  0  0  0  0  0  0  0  0
    0.9520   -1.5262   -1.1762 C   0  0  0  0  0  0  0  0  0  0  0  0
   -1.9794    0.2028   -0.1680 C   0  0  0  0  0  0  0  0  0  0  0  0
    3.5482   -0.1976    0.8376 C   0  0  0  0  0  0  0  0  0  0  0  0
    1.0923    2.8521   -0.3843 C   0  0  0  0  0  0  0  0  0  0  0  0
    0.6971   -2.8507   -0.4687 C   0  0  0  0  0  0  0  0  0  0  0  0
   -3.1764   -0.0394    0.7480 C   0  0  0  0  0  0  0  0  0  0  0  0
   -4.4866    0.0376   -0.0207 C   0  0  0  0  0  0  0  0  0  0  0  0
    1.9800    0.7665    1.9292 H   0  0  0  0  0  0  0  0  0  0  0  0
    1.8632   -0.9837    1.8983 H   0  0  0  0  0  0  0  0  0  0  0  0
    2.1545    1.4356   -1.5893 H   0  0  0  0  0  0  0  0  0  0  0  0
    0.4432    1.5538   -1.9578 H   0  0  0  0  0  0  0  0  0  0  0  0
    0.2399   -1.4302   -2.0042 H   0  0  0  0  0  0  0  0  0  0  0  0
    1.9487   -1.5595   -1.6311 H   0  0  0  0  0  0  0  0  0  0  0  0
   -0.7544    0.7816    1.3480 H   0  0  0  0  0  0  0  0  0  0  0  0
   -2.0599    1.1935   -0.6323 H   0  0  0  0  0  0  0  0  0  0  0  0
   -1.9984   -0.5413   -0.9741 H   0  0  0  0  0  0  0  0  0  0  0  0
    4.2027   -0.2571    1.7136 H   0  0  0  0  0  0  0  0  0  0  0  0
    3.7296   -1.0870    0.2247 H   0  0  0  0  0  0  0  0  0  0  0  0
    3.8473    0.6815    0.2568 H   0  0  0  0  0  0  0  0  0  0  0  0
    1.2953    3.6804   -1.0712 H   0  0  0  0  0  0  0  0  0  0  0  0
    0.1017    3.0167    0.0532 H   0  0  0  0  0  0  0  0  0  0  0  0
    1.8314    2.8994    0.4226 H   0  0  0  0  0  0  0  0  0  0  0  0
    0.7846   -3.6785   -1.1802 H   0  0  0  0  0  0  0  0  0  0  0  0
    1.4211   -3.0239    0.3348 H   0  0  0  0  0  0  0  0  0  0  0  0
   -0.3076   -2.8889   -0.0340 H   0  0  0  0  0  0  0  0  0  0  0  0
   -3.0964   -1.0268    1.2189 H   0  0  0  0  0  0  0  0  0  0  0  0
   -3.1914    0.7041    1.5542 H   0  0  0  0  0  0  0  0  0  0  0  0
   -4.6152    1.0234   -0.4790 H   0  0  0  0  0  0  0  0  0  0  0  0
   -4.5221   -0.7173   -0.8127 H   0  0  0  0  0  0  0  0  0  0  0  0
   -5.3316   -0.1370    0.6526 H   0  0  0  0  0  0  0  0  0  0  0  0
  1  2  1  0  0  0  0
  1  3  1  0  0  0  0
  1  4  1  0  0  0  0
  1  5  1  0  0  0  0
  2  6  1  0  0  0  0
  2 18  1  0  0  0  0
  3  7  1  0  0  0  0
  3 12  1  0  0  0  0
  3 13  1  0  0  0  0
  4  8  1  0  0  0  0
  4 14  1  0  0  0  0
  4 15  1  0  0  0  0
  5  9  1  0  0  0  0
  5 16  1  0  0  0  0
  5 17  1  0  0  0  0
  6 10  1  0  0  0  0
  6 19  1  0  0  0  0
  6 20  1  0  0  0  0
  7 21  1  0  0  0  0
  7 22  1  0  0  0  0
  7 23  1  0  0  0  0
  8 24  1  0  0  0  0
  8 25  1  0  0  0  0
  8 26  1  0  0  0  0
  9 27  1  0  0  0  0
  9 28  1  0  0  0  0
  9 29  1  0  0  0  0
 10 11  1  0  0  0  0
 10 30  1  0  0  0  0
 10 31  1  0  0  0  0
 11 32  1  0  0  0  0
 11 33  1  0  0  0  0
 11 34  1  0  0  0  0
M  END
> <PUBCHEM_COMPOUND_CID>
14767866

> <PUBCHEM_CONFORMER_RMSD>
0.6

> <PUBCHEM_CONFORMER_DIVERSEORDER>
1
169
146
57
155
19
172
53
113
165
150
27
46
158
42
143
161
3
156
116
159
102
51
20
119
112
114
88
41
25
160
128
106
49
131
171
76
134
124
52
157
98
56
2
108
75
61
72
62
26
151
70
67
83
166
152
79
121
147
153
168
149
81
21
85
54
44
97
145
60
63
99
50
66
80
82
65
47
90
77
45
64
96
111
86
7
78
84
69
4
109
173
68
5
167
9
94
120
163
8
137
6
136
118
115
140
125
133
103
104
14
107
139
95
91
15
105
13
93
123
12
174
11
162
132
170
10
130
154
59
117
138
164
129
135
122
142
127
71
141
126
29
28
73
31
35
32
101
17
34
33
30
74
16
100
55
37
43
89
38
18
48
92
39
58
36
40
110
87
22
23
24
148
144

> <PUBCHEM_MMFF94_PARTIAL_CHARGES>
7
1 0.59
18 0.36
2 -0.98
3 -0.08
4 -0.08
5 -0.08
6 0.27

> <PUBCHEM_EFFECTIVE_ROTOR_COUNT>
6

> <PUBCHEM_PHARMACOPHORE_FEATURES>
1
1 11 hydrophobe

> <PUBCHEM_HEAVY_ATOM_COUNT>
11

> <PUBCHEM_ATOM_DEF_STEREO_COUNT>
0

> <PUBCHEM_ATOM_UDEF_STEREO_COUNT>
0

> <PUBCHEM_BOND_DEF_STEREO_COUNT>
0

> <PUBCHEM_BOND_UDEF_STEREO_COUNT>
0

> <PUBCHEM_ISOTOPIC_ATOM_COUNT>
0

> <PUBCHEM_COMPONENT_COUNT>
1

> <PUBCHEM_CACTVS_TAUTO_COUNT>
1

> <PUBCHEM_CONFORMER_ID>
00E156FA00000001

> <PUBCHEM_MMFF94_ENERGY>
-8.5141

> <PUBCHEM_FEATURE_SELFOVERLAP>
5.074

> <PUBCHEM_SHAPE_FINGERPRINT>
10219947 1 18410571773464852938
10756046 70 18263637532386446124
12725867 57 18266750081842012846
12932764 1 17386021593381243571
13380536 167 17906727364796192854
13380536 305 18339939210857826236
13922767 16 18113613487139694489
14344429 50 17676211272840321873
14993402 34 18410859888782841084
20511035 2 17897737697392173920
20645477 70 18334015029955456687
20711985 327 18334296426947626833
20711985 344 17469048765209622083
20871998 22 18263648350939643783
21524375 3 17684951475522354733
21730867 7 17775565304084823147
23558518 356 17110729419330061028
2748010 2 18051131393601530311
3060560 45 18339656627779592589
3248919 1 18340217340614039585
68250623 7 17900826264388877850
68419 9 17690269839319910724
81228 2 17683816405744140813

> <PUBCHEM_SHAPE_MULTIPOLES>
239.61
5.53
2.47
1.2
7.14
0.01
-0.01
0.09
-1.77
-1.58
1.03
-0.6
-0.06
-0.11

> <PUBCHEM_SHAPE_SELFOVERLAP>
413.067

> <PUBCHEM_SHAPE_VOLUME>
159.6

> <PUBCHEM_COORDINATE_TYPE>
2
5
10

$$$$
