735923
  -OEChem-11012401003D

 21 21  0     0  0  0  0  0  0999 V2000
   -1.6886   -2.7508   -0.1697 O   0  5  0  0  0  0  0  0  0  0  0  0
    0.3295   -1.9953    0.2493 O   0  0  0  0  0  0  0  0  0  0  0  0
    4.0220    0.3212   -1.1759 O   0  0  0  0  0  0  0  0  0  0  0  0
    3.6830    0.1222    1.0714 O   0  0  0  0  0  0  0  0  0  0  0  0
   -0.8905   -1.8069    0.0344 N   0  3  0  0  0  0  0  0  0  0  0  0
   -0.5467    0.6187    0.2413 C   0  0  0  0  0  0  0  0  0  0  0  0
   -1.3873   -0.4726    0.0211 C   0  0  0  0  0  0  0  0  0  0  0  0
   -1.0652    1.9136    0.2210 C   0  0  0  0  0  0  0  0  0  0  0  0
   -2.7462   -0.2689   -0.2192 C   0  0  0  0  0  0  0  0  0  0  0  0
    0.8798    0.4508    0.4956 C   0  0  0  0  0  0  0  0  0  0  0  0
   -2.4241    2.1170   -0.0195 C   0  0  0  0  0  0  0  0  0  0  0  0
   -3.2646    1.0259   -0.2396 C   0  0  0  0  0  0  0  0  0  0  0  0
    1.8424    0.4472   -0.4497 C   0  0  0  0  0  0  0  0  0  0  0  0
    3.2567    0.2778   -0.0604 C   0  0  0  0  0  0  0  0  0  0  0  0
   -0.4254    2.7763    0.3912 H   0  0  0  0  0  0  0  0  0  0  0  0
   -3.4353   -1.0909   -0.3956 H   0  0  0  0  0  0  0  0  0  0  0  0
    1.1393    0.3413    1.5466 H   0  0  0  0  0  0  0  0  0  0  0  0
   -2.8280    3.1252   -0.0352 H   0  0  0  0  0  0  0  0  0  0  0  0
   -4.3226    1.1851   -0.4267 H   0  0  0  0  0  0  0  0  0  0  0  0
    1.6021    0.5656   -1.5012 H   0  0  0  0  0  0  0  0  0  0  0  0
    4.9754    0.2124   -0.9719 H   0  0  0  0  0  0  0  0  0  0  0  0
  1  5  1  0  0  0  0
  2  5  2  0  0  0  0
  3 14  1  0  0  0  0
  3 21  1  0  0  0  0
  4 14  2  0  0  0  0
  5  7  1  0  0  0  0
  6  7  1  0  0  0  0
  6  8  2  0  0  0  0
  6 10  1  0  0  0  0
  7  9  2  0  0  0  0
  8 11  1  0  0  0  0
  8 15  1  0  0  0  0
  9 12  1  0  0  0  0
  9 16  1  0  0  0  0
 10 13  2  0  0  0  0
 10 17  1  0  0  0  0
 11 12  2  0  0  0  0
 11 18  1  0  0  0  0
 12 19  1  0  0  0  0
 13 14  1  0  0  0  0
 13 20  1  0  0  0  0
M  CHG  2   1  -1   5   1
M  END
> <PUBCHEM_COMPOUND_CID>
735923

> <PUBCHEM_CONFORMER_RMSD>
0.6

> <PUBCHEM_CONFORMER_DIVERSEORDER>
1
2

> <PUBCHEM_MMFF94_PARTIAL_CHARGES>
21
1 -0.52
10 -0.18
11 -0.15
12 -0.15
13 -0.14
14 0.71
15 0.15
16 0.15
17 0.15
18 0.15
19 0.15
2 -0.52
20 0.15
21 0.5
3 -0.65
4 -0.57
5 0.91
6 0.03
7 0.13
8 -0.15
9 -0.15

> <PUBCHEM_EFFECTIVE_ROTOR_COUNT>
3

> <PUBCHEM_PHARMACOPHORE_FEATURES>
7
1 1 acceptor
1 1 anion
1 2 acceptor
1 3 acceptor
1 4 acceptor
3 3 4 14 anion
6 6 7 8 9 11 12 rings

> <PUBCHEM_HEAVY_ATOM_COUNT>
14

> <PUBCHEM_ATOM_DEF_STEREO_COUNT>
0

> <PUBCHEM_ATOM_UDEF_STEREO_COUNT>
0

> <PUBCHEM_BOND_DEF_STEREO_COUNT>
1

> <PUBCHEM_BOND_UDEF_STEREO_COUNT>
0

> <PUBCHEM_ISOTOPIC_ATOM_COUNT>
0

> <PUBCHEM_COMPONENT_COUNT>
1

> <PUBCHEM_CACTVS_TAUTO_COUNT>
1

> <PUBCHEM_CONFORMER_ID>
000B3AB300000001

> <PUBCHEM_MMFF94_ENERGY>
48.0738

> <PUBCHEM_FEATURE_SELFOVERLAP>
35.66

> <PUBCHEM_SHAPE_FINGERPRINT>
12716758 59 18341893004334049352
13024252 1 14129058119180963805
13380535 76 18340482270707092119
13862211 1 18339072804902699703
14325111 11 18338516331116174696
14614273 12 18117271467867965893
14993402 34 18259985967875806045
15669948 3 18336265734130371406
15775835 57 18040720242605210596
16945 1 18411698798605771201
17870717 6 18057067777682342182
18186145 218 18059858311944188120
193761 8 17834392702592320089
20279233 1 17917992785172990452
20510252 161 18272652337543439385
20645476 183 17895204323881009102
20645477 56 18410858767717677632
20871998 184 18200879602990076823
21501502 16 18051406276188751577
21524375 3 18188486857151749529
2334 1 17906731762689684193
23402539 116 18342162371871981213
23463225 33 18116708522045455290
23552423 10 17834671600693862321
23557571 272 18126286574225810592
23559900 14 18272652342814014416
2748010 2 18194128412843544943
305870 269 18118965793457564809
3071541 236 18334852831318239075
4175511 318 17894906326143986085
43471831 8 18336261228636299275
53812653 8 18409165476665667641
5706482 22 18338791230629557795
6333449 129 18413105065366799489
7364860 26 17838332973955589447
77492 1 17748820826342832592
81228 2 18266454506656506995
9709674 26 18272936024892342654

> <PUBCHEM_SHAPE_MULTIPOLES>
259.66
5.82
2.24
0.78
5.31
1.32
0.02
-1.72
0.74
-1.86
-0.03
0.55
-0.09
-0.13

> <PUBCHEM_SHAPE_SELFOVERLAP>
547.451

> <PUBCHEM_SHAPE_VOLUME>
145.3

> <PUBCHEM_COORDINATE_TYPE>
2
5
10

$$$$
