135411730
  -OEChem-11012401133D

 74 82  0     0  0  0  0  0  0999 V2000
   -2.0804   -0.1330    0.0881 N   0  0  0  0  0  0  0  0  0  0  0  0
    2.2233    0.1472   -0.1151 N   0  0  0  0  0  0  0  0  0  0  0  0
    0.1244   -2.0361   -0.1912 N   0  0  0  0  0  0  0  0  0  0  0  0
   -0.1422    2.0392   -0.2020 N   0  0  0  0  0  0  0  0  0  0  0  0
   -4.6276   -5.3349    1.1938 N   0  0  0  0  0  0  0  0  0  0  0  0
   -5.2824    4.7043    1.1562 N   0  0  0  0  0  0  0  0  0  0  0  0
    5.2575   -4.8107   -0.7546 N   0  0  0  0  0  0  0  0  0  0  0  0
    4.9135    4.5292    1.5477 N   0  0  0  0  0  0  0  0  0  0  0  0
   -2.7612   -1.3311    0.0272 C   0  0  0  0  0  0  0  0  0  0  0  0
   -2.9117    0.9656    0.0196 C   0  0  0  0  0  0  0  0  0  0  0  0
    2.7203   -0.9521   -0.7778 C   0  0  0  0  0  0  0  0  0  0  0  0
    2.5733    1.2998   -0.7814 C   0  0  0  0  0  0  0  0  0  0  0  0
   -2.3020   -2.5989    0.0806 C   0  0  0  0  0  0  0  0  0  0  0  0
   -2.6217    2.2828    0.0650 C   0  0  0  0  0  0  0  0  0  0  0  0
    2.5485   -2.2537   -0.2167 C   0  0  0  0  0  0  0  0  0  0  0  0
    2.2330    2.5696   -0.2244 C   0  0  0  0  0  0  0  0  0  0  0  0
   -0.8301   -2.8410    0.1816 C   0  0  0  0  0  0  0  0  0  0  0  0
   -1.1939    2.7145    0.1664 C   0  0  0  0  0  0  0  0  0  0  0  0
    1.3053   -2.7111    0.0567 C   0  0  0  0  0  0  0  0  0  0  0  0
    0.9405    2.8627    0.0454 C   0  0  0  0  0  0  0  0  0  0  0  0
   -4.1647   -0.9430   -0.1088 C   0  0  0  0  0  0  0  0  0  0  0  0
   -4.2525    0.3969   -0.1134 C   0  0  0  0  0  0  0  0  0  0  0  0
    3.4001   -0.4880   -1.8871 C   0  0  0  0  0  0  0  0  0  0  0  0
    3.3079    0.9247   -1.8894 C   0  0  0  0  0  0  0  0  0  0  0  0
   -0.3640   -4.1244    0.7296 C   0  0  0  0  0  0  0  0  0  0  0  0
   -0.8996    4.0496    0.7103 C   0  0  0  0  0  0  0  0  0  0  0  0
    0.9571   -3.9919    0.6308 C   0  0  0  0  0  0  0  0  0  0  0  0
    0.4277    4.0894    0.6143 C   0  0  0  0  0  0  0  0  0  0  0  0
   -3.2300   -3.7476    0.0225 C   0  0  0  0  0  0  0  0  0  0  0  0
   -3.6905    3.3012   -0.0023 C   0  0  0  0  0  0  0  0  0  0  0  0
    3.7232   -3.1204    0.0414 C   0  0  0  0  0  0  0  0  0  0  0  0
    3.2843    3.5826    0.0331 C   0  0  0  0  0  0  0  0  0  0  0  0
   -3.5857   -4.3204   -1.1935 C   0  0  0  0  0  0  0  0  0  0  0  0
   -4.1146    3.8152   -1.2228 C   0  0  0  0  0  0  0  0  0  0  0  0
    4.3892   -3.0799    1.2614 C   0  0  0  0  0  0  0  0  0  0  0  0
    3.6374    4.5116   -0.9392 C   0  0  0  0  0  0  0  0  0  0  0  0
   -3.7736   -4.2870    1.1772 C   0  0  0  0  0  0  0  0  0  0  0  0
   -4.3010    3.7746    1.1480 C   0  0  0  0  0  0  0  0  0  0  0  0
    4.1929   -3.9951   -0.9251 C   0  0  0  0  0  0  0  0  0  0  0  0
    3.9464    3.6330    1.2491 C   0  0  0  0  0  0  0  0  0  0  0  0
   -4.4619   -5.4000   -1.2173 C   0  0  0  0  0  0  0  0  0  0  0  0
   -5.1218    4.7733   -1.2551 C   0  0  0  0  0  0  0  0  0  0  0  0
    5.4888   -3.9039    1.4745 C   0  0  0  0  0  0  0  0  0  0  0  0
    4.6280    5.4495   -0.6695 C   0  0  0  0  0  0  0  0  0  0  0  0
   -4.9502   -5.8655   -0.0070 C   0  0  0  0  0  0  0  0  0  0  0  0
   -5.6683    5.1806   -0.0488 C   0  0  0  0  0  0  0  0  0  0  0  0
    5.8793   -4.7437    0.4440 C   0  0  0  0  0  0  0  0  0  0  0  0
    5.2299    5.4165    0.5780 C   0  0  0  0  0  0  0  0  0  0  0  0
   -1.0790   -0.0671    0.1915 H   0  0  0  0  0  0  0  0  0  0  0  0
    1.7066    0.1149    0.7539 H   0  0  0  0  0  0  0  0  0  0  0  0
   -5.0036   -1.6158   -0.1910 H   0  0  0  0  0  0  0  0  0  0  0  0
   -5.1719    0.9540   -0.1997 H   0  0  0  0  0  0  0  0  0  0  0  0
    3.9257   -1.0995   -2.6081 H   0  0  0  0  0  0  0  0  0  0  0  0
    3.7497    1.5970   -2.6124 H   0  0  0  0  0  0  0  0  0  0  0  0
   -0.9260   -4.9547    1.1134 H   0  0  0  0  0  0  0  0  0  0  0  0
   -1.5654    4.8013    1.0902 H   0  0  0  0  0  0  0  0  0  0  0  0
    1.6626   -4.7480    0.9397 H   0  0  0  0  0  0  0  0  0  0  0  0
    1.0284    4.9317    0.9217 H   0  0  0  0  0  0  0  0  0  0  0  0
   -3.1879   -3.9367   -2.1295 H   0  0  0  0  0  0  0  0  0  0  0  0
   -3.6689    3.4793   -2.1556 H   0  0  0  0  0  0  0  0  0  0  0  0
    4.0629   -2.4116    2.0541 H   0  0  0  0  0  0  0  0  0  0  0  0
    3.1500    4.5171   -1.9108 H   0  0  0  0  0  0  0  0  0  0  0  0
   -3.5364   -3.8849    2.1580 H   0  0  0  0  0  0  0  0  0  0  0  0
   -4.0157    3.4134    2.1319 H   0  0  0  0  0  0  0  0  0  0  0  0
    3.7175   -4.0744   -1.8985 H   0  0  0  0  0  0  0  0  0  0  0  0
    3.7173    2.9351    2.0493 H   0  0  0  0  0  0  0  0  0  0  0  0
   -4.7530   -5.8625   -2.1533 H   0  0  0  0  0  0  0  0  0  0  0  0
   -5.4681    5.1880   -2.1948 H   0  0  0  0  0  0  0  0  0  0  0  0
    6.0232   -3.8892    2.4174 H   0  0  0  0  0  0  0  0  0  0  0  0
    4.9195    6.1832   -1.4122 H   0  0  0  0  0  0  0  0  0  0  0  0
   -5.6365   -6.7052    0.0288 H   0  0  0  0  0  0  0  0  0  0  0  0
   -6.4567    5.9255   -0.0197 H   0  0  0  0  0  0  0  0  0  0  0  0
    6.7307   -5.4061    0.5599 H   0  0  0  0  0  0  0  0  0  0  0  0
    6.0080    6.1266    0.8381 H   0  0  0  0  0  0  0  0  0  0  0  0
  1  9  1  0  0  0  0
  1 10  1  0  0  0  0
  1 49  1  0  0  0  0
  2 11  1  0  0  0  0
  2 12  1  0  0  0  0
  2 50  1  0  0  0  0
  3 17  2  0  0  0  0
  3 19  1  0  0  0  0
  4 18  2  0  0  0  0
  4 20  1  0  0  0  0
  5 37  1  0  0  0  0
  5 45  2  0  0  0  0
  6 38  1  0  0  0  0
  6 46  2  0  0  0  0
  7 39  1  0  0  0  0
  7 47  2  0  0  0  0
  8 40  1  0  0  0  0
  8 48  2  0  0  0  0
  9 13  2  0  0  0  0
  9 21  1  0  0  0  0
 10 14  2  0  0  0  0
 10 22  1  0  0  0  0
 11 15  1  0  0  0  0
 11 23  2  0  0  0  0
 12 16  1  0  0  0  0
 12 24  2  0  0  0  0
 13 17  1  0  0  0  0
 13 29  1  0  0  0  0
 14 18  1  0  0  0  0
 14 30  1  0  0  0  0
 15 19  2  0  0  0  0
 15 31  1  0  0  0  0
 16 20  2  0  0  0  0
 16 32  1  0  0  0  0
 17 25  1  0  0  0  0
 18 26  1  0  0  0  0
 19 27  1  0  0  0  0
 20 28  1  0  0  0  0
 21 22  2  0  0  0  0
 21 51  1  0  0  0  0
 22 52  1  0  0  0  0
 23 24  1  0  0  0  0
 23 53  1  0  0  0  0
 24 54  1  0  0  0  0
 25 27  2  0  0  0  0
 25 55  1  0  0  0  0
 26 28  2  0  0  0  0
 26 56  1  0  0  0  0
 27 57  1  0  0  0  0
 28 58  1  0  0  0  0
 29 33  1  0  0  0  0
 29 37  2  0  0  0  0
 30 34  1  0  0  0  0
 30 38  2  0  0  0  0
 31 35  1  0  0  0  0
 31 39  2  0  0  0  0
 32 36  1  0  0  0  0
 32 40  2  0  0  0  0
 33 41  2  0  0  0  0
 33 59  1  0  0  0  0
 34 42  2  0  0  0  0
 34 60  1  0  0  0  0
 35 43  2  0  0  0  0
 35 61  1  0  0  0  0
 36 44  2  0  0  0  0
 36 62  1  0  0  0  0
 37 63  1  0  0  0  0
 38 64  1  0  0  0  0
 39 65  1  0  0  0  0
 40 66  1  0  0  0  0
 41 45  1  0  0  0  0
 41 67  1  0  0  0  0
 42 46  1  0  0  0  0
 42 68  1  0  0  0  0
 43 47  1  0  0  0  0
 43 69  1  0  0  0  0
 44 48  1  0  0  0  0
 44 70  1  0  0  0  0
 45 71  1  0  0  0  0
 46 72  1  0  0  0  0
 47 73  1  0  0  0  0
 48 74  1  0  0  0  0
M  END
> <PUBCHEM_COMPOUND_CID>
135411730

> <PUBCHEM_CONFORMER_RMSD>
1

> <PUBCHEM_CONFORMER_DIVERSEORDER>
1
2

> <PUBCHEM_MMFF94_PARTIAL_CHARGES>
74
1 -0.6
10 0.1
11 -0.2
12 -0.2
13 -0.01
14 -0.01
15 0.02
16 0.02
17 0.42
18 0.42
19 0.17
2 0.03
20 0.17
21 -0.15
22 -0.15
23 -0.15
24 -0.15
25 -0.14
26 -0.14
27 -0.15
28 -0.15
29 0.03
3 -0.62
30 0.03
31 0.03
32 0.03
33 -0.15
34 -0.15
35 -0.15
36 -0.15
37 0.16
38 0.16
39 0.16
4 -0.62
40 0.16
41 -0.15
42 -0.15
43 -0.15
44 -0.15
45 0.16
46 0.16
47 0.16
48 0.16
49 0.4
5 -0.62
50 0.27
51 0.15
52 0.15
53 0.15
54 0.15
55 0.15
56 0.15
57 0.15
58 0.15
59 0.15
6 -0.62
60 0.15
61 0.15
62 0.15
63 0.15
64 0.15
65 0.15
66 0.15
67 0.15
68 0.15
69 0.15
7 -0.62
70 0.15
71 0.15
72 0.15
73 0.15
74 0.15
8 -0.62
9 0.1

> <PUBCHEM_EFFECTIVE_ROTOR_COUNT>
4

> <PUBCHEM_PHARMACOPHORE_FEATURES>
18
1 1 cation
1 1 donor
1 2 cation
1 2 donor
1 3 acceptor
1 4 acceptor
1 5 acceptor
1 6 acceptor
1 7 acceptor
1 8 acceptor
5 1 9 10 21 22 rings
5 2 11 12 23 24 rings
5 3 17 19 25 27 rings
5 4 18 20 26 28 rings
6 5 29 33 37 41 45 rings
6 6 30 34 38 42 46 rings
6 7 31 35 39 43 47 rings
6 8 32 36 40 44 48 rings

> <PUBCHEM_HEAVY_ATOM_COUNT>
48

> <PUBCHEM_ATOM_DEF_STEREO_COUNT>
0

> <PUBCHEM_ATOM_UDEF_STEREO_COUNT>
0

> <PUBCHEM_BOND_DEF_STEREO_COUNT>
0

> <PUBCHEM_BOND_UDEF_STEREO_COUNT>
0

> <PUBCHEM_ISOTOPIC_ATOM_COUNT>
0

> <PUBCHEM_COMPONENT_COUNT>
1

> <PUBCHEM_CACTVS_TAUTO_COUNT>
-1

> <PUBCHEM_CONFORMER_ID>
0812381200000001

> <PUBCHEM_MMFF94_ENERGY>
186.2484

> <PUBCHEM_FEATURE_SELFOVERLAP>
91.357

> <PUBCHEM_SHAPE_FINGERPRINT>
102385 1 18410574006636837124
10439779 11 18410291372688850060
10653451 467 17265260242623101592
1100329 8 18193842539461640053
11136131 41 18191012616424851338
14117953 113 17547858911214894599
14394314 77 17978516661397310227
14725015 67 17765148758583284216
15297060 5 17767959845006992731
15320294 125 17536596201522590958
15320467 1 18338800116658384717
15483637 11 18410298033655748485
15890870 6 17831304900168490471
16664035 1 17834394523263691672
19311894 1 18265613182461855666
21779490 112 17831887981293778468
21796203 349 17689761525793623528
22311459 1 18338234856715237051
3383291 50 18050289159310655491
3388396 114 17981872357478349735
3882209 13 18123435449859006399
4394409 98 17684934600722059901
463206 1 18120383046882190376
6703917 75 17042902188587255342
9961470 85 18268978826430132608

> <PUBCHEM_SHAPE_MULTIPOLES>
947.97
13.53
13.37
1.29
0.9
0.35
-0.14
-0.25
0.6
-2.41
1.38
0.6
-0.03
-0.04

> <PUBCHEM_SHAPE_SELFOVERLAP>
2181.894

> <PUBCHEM_SHAPE_VOLUME>
477.3

> <PUBCHEM_COORDINATE_TYPE>
2
5
10

$$$$
