641496
  -OEChem-11012400563D

 14 14  0     0  0  0  0  0  0999 V2000
   -0.3641    1.1720   -0.0250 O   0  0  0  0  0  0  0  0  0  0  0  0
   -2.2719   -0.0328    0.1002 O   0  0  0  0  0  0  0  0  0  0  0  0
   -0.2932   -1.1772   -0.0458 N   0  0  0  0  0  0  0  0  0  0  0  0
    1.7656    0.0354    0.3849 C   0  0  0  0  0  0  0  0  0  0  0  0
    1.1434   -1.2119   -0.1988 C   0  0  0  0  0  0  0  0  0  0  0  0
    1.0652    1.2319   -0.2239 C   0  0  0  0  0  0  0  0  0  0  0  0
   -1.0451   -0.0174    0.0084 C   0  0  0  0  0  0  0  0  0  0  0  0
    1.6182    0.0406    1.4718 H   0  0  0  0  0  0  0  0  0  0  0  0
    2.8416    0.0671    0.1876 H   0  0  0  0  0  0  0  0  0  0  0  0
    1.3569   -1.3001   -1.2693 H   0  0  0  0  0  0  0  0  0  0  0  0
    1.5159   -2.1108    0.3017 H   0  0  0  0  0  0  0  0  0  0  0  0
    1.4214    2.1548    0.2445 H   0  0  0  0  0  0  0  0  0  0  0  0
    1.2521    1.3084   -1.3005 H   0  0  0  0  0  0  0  0  0  0  0  0
   -0.7910   -2.0622   -0.0426 H   0  0  0  0  0  0  0  0  0  0  0  0
  1  6  1  0  0  0  0
  1  7  1  0  0  0  0
  2  7  2  0  0  0  0
  3  5  1  0  0  0  0
  3  7  1  0  0  0  0
  3 14  1  0  0  0  0
  4  5  1  0  0  0  0
  4  6  1  0  0  0  0
  4  8  1  0  0  0  0
  4  9  1  0  0  0  0
  5 10  1  0  0  0  0
  5 11  1  0  0  0  0
  6 12  1  0  0  0  0
  6 13  1  0  0  0  0
M  END
> <PUBCHEM_COMPOUND_CID>
641496

> <PUBCHEM_CONFORMER_RMSD>
0.4

> <PUBCHEM_CONFORMER_DIVERSEORDER>
1

> <PUBCHEM_MMFF94_PARTIAL_CHARGES>
7
1 -0.43
14 0.37
2 -0.57
3 -0.73
5 0.3
6 0.28
7 0.78

> <PUBCHEM_EFFECTIVE_ROTOR_COUNT>
1

> <PUBCHEM_PHARMACOPHORE_FEATURES>
3
1 2 acceptor
1 3 donor
6 1 3 4 5 6 7 rings

> <PUBCHEM_HEAVY_ATOM_COUNT>
7

> <PUBCHEM_ATOM_DEF_STEREO_COUNT>
0

> <PUBCHEM_ATOM_UDEF_STEREO_COUNT>
0

> <PUBCHEM_BOND_DEF_STEREO_COUNT>
0

> <PUBCHEM_BOND_UDEF_STEREO_COUNT>
0

> <PUBCHEM_ISOTOPIC_ATOM_COUNT>
0

> <PUBCHEM_COMPONENT_COUNT>
1

> <PUBCHEM_CACTVS_TAUTO_COUNT>
2

> <PUBCHEM_CONFORMER_ID>
0009C9D800000001

> <PUBCHEM_MMFF94_ENERGY>
8.573

> <PUBCHEM_FEATURE_SELFOVERLAP>
15.223

> <PUBCHEM_SHAPE_FINGERPRINT>
16714656 1 18410860962424353774
18185500 45 18341044211316643198
20096714 4 18338800142538945290
21040471 1 18267585903973847044
23552423 10 17756440261540416742
29004967 10 18334299751188854627

> <PUBCHEM_SHAPE_MULTIPOLES>
127.34
2.25
1.39
0.61
0.75
0.01
0
-0.01
-0.18
-0.36
0.12
-0.1
0
0

> <PUBCHEM_SHAPE_SELFOVERLAP>
248.701

> <PUBCHEM_SHAPE_VOLUME>
75.6

> <PUBCHEM_COORDINATE_TYPE>
2
5
10

$$$$
