5374406
  -OEChem-11012400413D

 26 26  0     0  0  0  0  0  0999 V2000
    0.3318   -2.0517    0.0895 O   0  0  0  0  0  0  0  0  0  0  0  0
    3.6599    0.6819   -0.0224 N   0  0  0  0  0  0  0  0  0  0  0  0
   -1.1694   -0.2523    0.0609 C   0  0  0  0  0  0  0  0  0  0  0  0
    2.5735   -0.1412   -0.1349 C   0  0  0  0  0  0  0  0  0  0  0  0
    0.1893   -0.8372    0.1682 C   0  0  0  0  0  0  0  0  0  0  0  0
    1.3350    0.1048    0.3336 C   0  0  0  0  0  0  0  0  0  0  0  0
   -1.3152    1.0024   -0.4964 C   0  0  0  0  0  0  0  0  0  0  0  0
   -2.2484   -0.9798    0.5217 C   0  0  0  0  0  0  0  0  0  0  0  0
    2.8370   -1.4320   -0.8686 C   0  0  0  0  0  0  0  0  0  0  0  0
   -2.5932    1.5525   -0.5970 C   0  0  0  0  0  0  0  0  0  0  0  0
   -3.5264   -0.4298    0.4209 C   0  0  0  0  0  0  0  0  0  0  0  0
   -3.6986    0.8363   -0.1383 C   0  0  0  0  0  0  0  0  0  0  0  0
    3.6248    1.9459    0.6627 C   0  0  0  0  0  0  0  0  0  0  0  0
    1.1149    1.0376    0.8447 H   0  0  0  0  0  0  0  0  0  0  0  0
   -0.4785    1.5759   -0.8829 H   0  0  0  0  0  0  0  0  0  0  0  0
   -2.1291   -1.9645    0.9639 H   0  0  0  0  0  0  0  0  0  0  0  0
    2.0737   -1.6409   -1.6254 H   0  0  0  0  0  0  0  0  0  0  0  0
    3.7859   -1.3910   -1.4173 H   0  0  0  0  0  0  0  0  0  0  0  0
    2.9116   -2.2702   -0.1678 H   0  0  0  0  0  0  0  0  0  0  0  0
    4.5403    0.3692   -0.4174 H   0  0  0  0  0  0  0  0  0  0  0  0
   -2.7284    2.5363   -1.0372 H   0  0  0  0  0  0  0  0  0  0  0  0
   -4.3873   -0.9869    0.7789 H   0  0  0  0  0  0  0  0  0  0  0  0
   -4.6938    1.2641   -0.2176 H   0  0  0  0  0  0  0  0  0  0  0  0
    4.6153    2.4104    0.6267 H   0  0  0  0  0  0  0  0  0  0  0  0
    3.3567    1.8202    1.7169 H   0  0  0  0  0  0  0  0  0  0  0  0
    2.9191    2.6359    0.1886 H   0  0  0  0  0  0  0  0  0  0  0  0
  1  5  2  0  0  0  0
  2  4  1  0  0  0  0
  2 13  1  0  0  0  0
  2 20  1  0  0  0  0
  3  5  1  0  0  0  0
  3  7  2  0  0  0  0
  3  8  1  0  0  0  0
  4  6  2  0  0  0  0
  4  9  1  0  0  0  0
  5  6  1  0  0  0  0
  6 14  1  0  0  0  0
  7 10  1  0  0  0  0
  7 15  1  0  0  0  0
  8 11  2  0  0  0  0
  8 16  1  0  0  0  0
  9 17  1  0  0  0  0
  9 18  1  0  0  0  0
  9 19  1  0  0  0  0
 10 12  2  0  0  0  0
 10 21  1  0  0  0  0
 11 12  1  0  0  0  0
 11 22  1  0  0  0  0
 12 23  1  0  0  0  0
 13 24  1  0  0  0  0
 13 25  1  0  0  0  0
 13 26  1  0  0  0  0
M  END
> <PUBCHEM_COMPOUND_CID>
5374406

> <PUBCHEM_CONFORMER_RMSD>
0.6

> <PUBCHEM_CONFORMER_DIVERSEORDER>
5
2
7
3
11
12
6
10
4
9
13
1
8

> <PUBCHEM_MMFF94_PARTIAL_CHARGES>
20
1 -0.57
10 -0.15
11 -0.15
12 -0.15
13 0.37
14 0.15
15 0.15
16 0.15
2 -0.87
20 0.4
21 0.15
22 0.15
23 0.15
3 0.09
4 -0.04
5 0.47
6 -0.14
7 -0.15
8 -0.15
9 0.14

> <PUBCHEM_EFFECTIVE_ROTOR_COUNT>
3

> <PUBCHEM_PHARMACOPHORE_FEATURES>
4
1 1 acceptor
1 2 cation
1 2 donor
6 3 7 8 10 11 12 rings

> <PUBCHEM_HEAVY_ATOM_COUNT>
13

> <PUBCHEM_ATOM_DEF_STEREO_COUNT>
0

> <PUBCHEM_ATOM_UDEF_STEREO_COUNT>
0

> <PUBCHEM_BOND_DEF_STEREO_COUNT>
1

> <PUBCHEM_BOND_UDEF_STEREO_COUNT>
0

> <PUBCHEM_ISOTOPIC_ATOM_COUNT>
0

> <PUBCHEM_COMPONENT_COUNT>
1

> <PUBCHEM_CACTVS_TAUTO_COUNT>
5

> <PUBCHEM_CONFORMER_ID>
005201C600000005

> <PUBCHEM_MMFF94_ENERGY>
41.5693

> <PUBCHEM_FEATURE_SELFOVERLAP>
20.297

> <PUBCHEM_SHAPE_FINGERPRINT>
10608611 8 18337107869547808357
11031198 65 17989489645212734532
11132069 177 18113618993176913845
11543360 7 17346306129189197149
11715629 250 18408318882555453188
12932764 1 17968380031002482291
13214271 11 18334293201859639231
14325111 11 18409167696926337238
15219456 202 18411984637100462510
15775835 57 18272932743041228710
16945 1 17968101915017225159
17846911 113 18333725836247470377
18175812 5 18408889507726345263
18186145 218 18201449051397587890
19786989 88 17632301172236651382
20279233 1 18410577279454826606
20281475 54 9799396867453001585
20510252 161 18410858754832568217
20645477 56 18335140877921895053
20645477 70 18059859407050118110
20671657 53 17628651756159199358
21028194 46 18334017159605133750
22943178 12 18409735049258413538
23402539 116 18339349847171941572
23557571 272 18266191684564747534
23559900 14 18260830354488712270
2748010 2 18335706026529138078
5104073 3 18335141956000729393
6333449 129 18334857204058923015
7364860 26 18119241770945319274
90316 7 16660634129404257981

> <PUBCHEM_SHAPE_MULTIPOLES>
256.68
7.08
1.82
0.8
1.4
0.1
-0.04
2.43
0.18
0.83
-0.01
0.09
0.02
1.08

> <PUBCHEM_SHAPE_SELFOVERLAP>
528.788

> <PUBCHEM_SHAPE_VOLUME>
147.9

> <PUBCHEM_COORDINATE_TYPE>
2
5
10

$$$$
