97194
  -OEChem-11012401163D

 32 36  0     0  0  0  0  0  0999 V2000
    4.8319    1.1404   -0.0004 O   0  0  0  0  0  0  0  0  0  0  0  0
   -4.8318    1.1403    0.0001 O   0  0  0  0  0  0  0  0  0  0  0  0
    1.4224   -0.1255   -0.0001 C   0  0  0  0  0  0  0  0  0  0  0  0
   -1.4224   -0.1255    0.0000 C   0  0  0  0  0  0  0  0  0  0  0  0
    0.7086    1.0994   -0.0001 C   0  0  0  0  0  0  0  0  0  0  0  0
   -0.7087    1.0995    0.0000 C   0  0  0  0  0  0  0  0  0  0  0  0
    0.7174   -1.3585    0.0001 C   0  0  0  0  0  0  0  0  0  0  0  0
   -0.7174   -1.3586    0.0000 C   0  0  0  0  0  0  0  0  0  0  0  0
    2.8408   -0.1500    0.0001 C   0  0  0  0  0  0  0  0  0  0  0  0
   -2.8408   -0.1500   -0.0001 C   0  0  0  0  0  0  0  0  0  0  0  0
    1.4996    2.3485   -0.0001 C   0  0  0  0  0  0  0  0  0  0  0  0
   -1.4996    2.3485    0.0004 C   0  0  0  0  0  0  0  0  0  0  0  0
    1.4906   -2.5501    0.0003 C   0  0  0  0  0  0  0  0  0  0  0  0
   -1.4905   -2.5501   -0.0002 C   0  0  0  0  0  0  0  0  0  0  0  0
    3.6075    1.1164   -0.0001 C   0  0  0  0  0  0  0  0  0  0  0  0
   -3.6076    1.1164   -0.0004 C   0  0  0  0  0  0  0  0  0  0  0  0
    3.5650   -1.3441    0.0002 C   0  0  0  0  0  0  0  0  0  0  0  0
   -3.5649   -1.3441   -0.0002 C   0  0  0  0  0  0  0  0  0  0  0  0
    2.8349    2.3696   -0.0001 C   0  0  0  0  0  0  0  0  0  0  0  0
   -2.8349    2.3695    0.0004 C   0  0  0  0  0  0  0  0  0  0  0  0
    2.8845   -2.5458    0.0003 C   0  0  0  0  0  0  0  0  0  0  0  0
   -2.8844   -2.5459   -0.0002 C   0  0  0  0  0  0  0  0  0  0  0  0
    0.9979    3.3069   -0.0002 H   0  0  0  0  0  0  0  0  0  0  0  0
   -0.9980    3.3069    0.0011 H   0  0  0  0  0  0  0  0  0  0  0  0
    1.0210   -3.5301    0.0005 H   0  0  0  0  0  0  0  0  0  0  0  0
   -1.0208   -3.5301   -0.0002 H   0  0  0  0  0  0  0  0  0  0  0  0
    4.6510   -1.3542    0.0002 H   0  0  0  0  0  0  0  0  0  0  0  0
   -4.6509   -1.3543   -0.0003 H   0  0  0  0  0  0  0  0  0  0  0  0
    3.3822    3.3054   -0.0002 H   0  0  0  0  0  0  0  0  0  0  0  0
   -3.3822    3.3054    0.0009 H   0  0  0  0  0  0  0  0  0  0  0  0
    3.4310   -3.4841    0.0004 H   0  0  0  0  0  0  0  0  0  0  0  0
   -3.4309   -3.4843   -0.0002 H   0  0  0  0  0  0  0  0  0  0  0  0
  1 15  2  0  0  0  0
  2 16  2  0  0  0  0
  3  5  2  0  0  0  0
  3  7  1  0  0  0  0
  3  9  1  0  0  0  0
  4  6  2  0  0  0  0
  4  8  1  0  0  0  0
  4 10  1  0  0  0  0
  5  6  1  0  0  0  0
  5 11  1  0  0  0  0
  6 12  1  0  0  0  0
  7  8  2  0  0  0  0
  7 13  1  0  0  0  0
  8 14  1  0  0  0  0
  9 15  1  0  0  0  0
  9 17  2  0  0  0  0
 10 16  1  0  0  0  0
 10 18  2  0  0  0  0
 11 19  2  0  0  0  0
 11 23  1  0  0  0  0
 12 20  2  0  0  0  0
 12 24  1  0  0  0  0
 13 21  2  0  0  0  0
 13 25  1  0  0  0  0
 14 22  2  0  0  0  0
 14 26  1  0  0  0  0
 15 19  1  0  0  0  0
 16 20  1  0  0  0  0
 17 21  1  0  0  0  0
 17 27  1  0  0  0  0
 18 22  1  0  0  0  0
 18 28  1  0  0  0  0
 19 29  1  0  0  0  0
 20 30  1  0  0  0  0
 21 31  1  0  0  0  0
 22 32  1  0  0  0  0
M  END
> <PUBCHEM_COMPOUND_CID>
97194

> <PUBCHEM_CONFORMER_RMSD>
0.6

> <PUBCHEM_CONFORMER_DIVERSEORDER>
1

> <PUBCHEM_MMFF94_PARTIAL_CHARGES>
28
1 -0.57
10 0.09
11 -0.18
12 -0.18
13 -0.15
14 -0.15
15 0.47
16 0.47
17 -0.15
18 -0.15
19 -0.14
2 -0.57
20 -0.14
21 -0.15
22 -0.15
23 0.15
24 0.15
25 0.15
26 0.15
27 0.15
28 0.15
29 0.15
30 0.15
31 0.15
32 0.15
5 0.03
6 0.03
9 0.09

> <PUBCHEM_EFFECTIVE_ROTOR_COUNT>
0

> <PUBCHEM_PHARMACOPHORE_FEATURES>
7
1 1 acceptor
1 2 acceptor
6 3 4 5 6 7 8 rings
6 3 5 9 11 15 19 rings
6 3 7 9 13 17 21 rings
6 4 6 10 12 16 20 rings
6 4 8 10 14 18 22 rings

> <PUBCHEM_HEAVY_ATOM_COUNT>
22

> <PUBCHEM_ATOM_DEF_STEREO_COUNT>
0

> <PUBCHEM_ATOM_UDEF_STEREO_COUNT>
0

> <PUBCHEM_BOND_DEF_STEREO_COUNT>
0

> <PUBCHEM_BOND_UDEF_STEREO_COUNT>
0

> <PUBCHEM_ISOTOPIC_ATOM_COUNT>
0

> <PUBCHEM_COMPONENT_COUNT>
1

> <PUBCHEM_CACTVS_TAUTO_COUNT>
1

> <PUBCHEM_CONFORMER_ID>
00017BAA00000001

> <PUBCHEM_MMFF94_ENERGY>
80.7642

> <PUBCHEM_FEATURE_SELFOVERLAP>
35.658

> <PUBCHEM_SHAPE_FINGERPRINT>
10411042 1 16969704383457688259
10608611 8 18410573985151626530
10616163 171 18339081600256873422
10863032 1 18412262839306682379
10967382 1 18338516330989288292
1100329 8 18122061996821692746
11578080 2 17169250573356566814
11680986 33 18409454665187331571
12403260 363 18195517096182426187
13140716 1 18410288159388694266
138480 1 17689997838646020195
14178342 30 18338503206133961928
14223421 5 18410856589709848390
14790565 3 18338811055935754789
15196674 1 18410575084663286791
15442244 35 18338515240294649874
15536298 74 18341894061080516390
16945 1 18410855464423239526
17492 89 18410012143358634483
19591789 44 18410576184174771651
20510252 161 18054512679451380568
20691752 17 17603301548643131578
20739085 24 17833017973349508801
20905425 154 18341899635747801694
21267235 1 18265904724819990543
21421861 104 17969212353105229906
21501502 16 18410571790433926758
221490 88 18409456860211376218
23227448 37 18412261727226872039
2334 1 17978511167221489283
23366157 5 18113618976302993098
23558518 356 18260834812464221131
23559900 14 18341891875237542368
2748010 2 18050567644567985231
335352 9 18338517417658355542
34934 24 18410852165888271747
350125 39 18410296912521539145
4280585 95 17982183214859705870
474 4 17749396996142209564
5104073 3 18410011035203435466
59755656 215 18337110167408156927
7097593 13 17898552212397495114
7364860 26 18340486669101483460
7832392 63 18411417276447827670
9709674 26 18411985758155881902
9981440 41 18118963839732820536

> <PUBCHEM_SHAPE_MULTIPOLES>
441.01
7.55
3.52
0.61
0
0.51
0
-1.35
0
0
0
0
0.01
0

> <PUBCHEM_SHAPE_SELFOVERLAP>
1032.298

> <PUBCHEM_SHAPE_VOLUME>
222.3

> <PUBCHEM_COORDINATE_TYPE>
2
5
10

$$$$
