101946335
  -OEChem-10312420452D

  5  2  0     0  0  0  0  0  0999 V2000
    0.0000    1.2500    0.0000 Ca  0  0  0  0  0 15  0  0  0  0  0  0
    2.5000    0.0000    0.0000 N   0  0  0  0  0  0  0  0  0  0  0  0
    2.5000    2.5000    0.0000 N   0  0  0  0  0  0  0  0  0  0  0  0
    3.5000    0.0000    0.0000 C   0  4  0  0  0  0  0  0  0  0  0  0
    3.5000    2.5000    0.0000 C   0  4  0  0  0  0  0  0  0  0  0  0
  2  4  3  0  0  0  0
  3  5  3  0  0  0  0
M  RAD  2   4   2   5   2
M  END
> <PUBCHEM_COMPOUND_CID>
101946335

> <PUBCHEM_COMPOUND_CANONICALIZED>
1

> <PUBCHEM_CACTVS_COMPLEXITY>
10

> <PUBCHEM_CACTVS_HBOND_ACCEPTOR>
2

> <PUBCHEM_CACTVS_HBOND_DONOR>
0

> <PUBCHEM_CACTVS_ROTATABLE_BOND>
0

> <PUBCHEM_CACTVS_SUBSKEYS>
AAADcQBDAAAAAAgAAAAAAAAAAAAAAAAAAAAAAAAAAAAAAAAAAAAABAAAAAAAAAAAAAAAAAAAAAAQAAAAAAAAAAAAAAAAAAAAAAAAAAAAAAAAAAAAAAAAAAAAAAAAAAAAAAAAAAAAAAAAAAAAAAAAAAAAAA==

> <PUBCHEM_IUPAC_INCHI>
InChI=1S/2CN.Ca/c2*1-2;

> <PUBCHEM_IUPAC_INCHIKEY>
OEYMAKISKGNYAV-UHFFFAOYSA-N

> <PUBCHEM_EXACT_MASS>
91.9687389

> <PUBCHEM_MOLECULAR_FORMULA>
C2CaN2

> <PUBCHEM_MOLECULAR_WEIGHT>
92.11

> <PUBCHEM_OPENEYE_CAN_SMILES>
[C]#N.[C]#N.[Ca]

> <PUBCHEM_OPENEYE_ISO_SMILES>
[C]#N.[C]#N.[Ca]

> <PUBCHEM_CACTVS_TPSA>
47.6

> <PUBCHEM_MONOISOTOPIC_WEIGHT>
91.9687389

> <PUBCHEM_TOTAL_CHARGE>
0

> <PUBCHEM_HEAVY_ATOM_COUNT>
5

> <PUBCHEM_ATOM_DEF_STEREO_COUNT>
0

> <PUBCHEM_ATOM_UDEF_STEREO_COUNT>
0

> <PUBCHEM_BOND_DEF_STEREO_COUNT>
0

> <PUBCHEM_BOND_UDEF_STEREO_COUNT>
0

> <PUBCHEM_ISOTOPIC_ATOM_COUNT>
0

> <PUBCHEM_COMPONENT_COUNT>
3

> <PUBCHEM_CACTVS_TAUTO_COUNT>
-1

> <PUBCHEM_COORDINATE_TYPE>
1
5
255

$$$$
