142315
  -OEChem-11012401083D

 29 30  0     1  0  0  0  0  0999 V2000
   -2.3771    0.7044    1.1614 O   0  0  0  0  0  0  0  0  0  0  0  0
    0.6478    0.7058    0.5369 C   0  0  2  0  0  0  0  0  0  0  0  0
    1.9136    0.1567   -0.0671 C   0  0  0  0  0  0  0  0  0  0  0  0
    0.9599   -0.7611    0.6466 C   0  0  2  0  0  0  0  0  0  0  0  0
   -0.5190    1.0781   -0.3333 C   0  0  0  0  0  0  0  0  0  0  0  0
    0.0296   -1.6693   -0.0957 C   0  0  0  0  0  0  0  0  0  0  0  0
   -1.7523    0.1992   -0.0271 C   0  0  1  0  0  0  0  0  0  0  0  0
   -1.4176   -1.2942    0.2358 C   0  0  0  0  0  0  0  0  0  0  0  0
    3.1870    0.4793    0.6459 C   0  0  0  0  0  0  0  0  0  0  0  0
    2.1033    0.0732   -1.5423 C   0  0  0  0  0  0  0  0  0  0  0  0
   -2.7753    0.3280   -1.1612 C   0  0  0  0  0  0  0  0  0  0  0  0
    0.6942    1.2901    1.4474 H   0  0  0  0  0  0  0  0  0  0  0  0
    1.2134   -1.1390    1.6296 H   0  0  0  0  0  0  0  0  0  0  0  0
   -0.7604    2.1309   -0.1373 H   0  0  0  0  0  0  0  0  0  0  0  0
   -0.2775    1.0234   -1.3973 H   0  0  0  0  0  0  0  0  0  0  0  0
    0.2149   -2.7029    0.2204 H   0  0  0  0  0  0  0  0  0  0  0  0
    0.1676   -1.6604   -1.1789 H   0  0  0  0  0  0  0  0  0  0  0  0
   -2.0882   -1.9505   -0.3326 H   0  0  0  0  0  0  0  0  0  0  0  0
   -1.5972   -1.5316    1.2935 H   0  0  0  0  0  0  0  0  0  0  0  0
    3.0530    0.5434    1.7318 H   0  0  0  0  0  0  0  0  0  0  0  0
    3.9431   -0.2897    0.4540 H   0  0  0  0  0  0  0  0  0  0  0  0
    3.5855    1.4420    0.3077 H   0  0  0  0  0  0  0  0  0  0  0  0
    1.2166   -0.1823   -2.1245 H   0  0  0  0  0  0  0  0  0  0  0  0
    2.4658    1.0329   -1.9285 H   0  0  0  0  0  0  0  0  0  0  0  0
    2.8596   -0.6835   -1.7812 H   0  0  0  0  0  0  0  0  0  0  0  0
   -3.6979   -0.2142   -0.9241 H   0  0  0  0  0  0  0  0  0  0  0  0
   -3.0624    1.3756   -1.3073 H   0  0  0  0  0  0  0  0  0  0  0  0
   -2.3786   -0.0591   -2.1055 H   0  0  0  0  0  0  0  0  0  0  0  0
   -3.1786    0.1790    1.3272 H   0  0  0  0  0  0  0  0  0  0  0  0
  1  7  1  0  0  0  0
  1 29  1  0  0  0  0
  2  3  1  0  0  0  0
  2  4  1  0  0  0  0
  2  5  1  0  0  0  0
  2 12  1  0  0  0  0
  3  4  1  0  0  0  0
  3  9  1  0  0  0  0
  3 10  1  0  0  0  0
  4  6  1  0  0  0  0
  4 13  1  0  0  0  0
  5  7  1  0  0  0  0
  5 14  1  0  0  0  0
  5 15  1  0  0  0  0
  6  8  1  0  0  0  0
  6 16  1  0  0  0  0
  6 17  1  0  0  0  0
  7  8  1  0  0  0  0
  7 11  1  0  0  0  0
  8 18  1  0  0  0  0
  8 19  1  0  0  0  0
  9 20  1  0  0  0  0
  9 21  1  0  0  0  0
  9 22  1  0  0  0  0
 10 23  1  0  0  0  0
 10 24  1  0  0  0  0
 10 25  1  0  0  0  0
 11 26  1  0  0  0  0
 11 27  1  0  0  0  0
 11 28  1  0  0  0  0
M  END
> <PUBCHEM_COMPOUND_CID>
142315

> <PUBCHEM_CONFORMER_RMSD>
0.4

> <PUBCHEM_CONFORMER_DIVERSEORDER>
1
5
7
6
8
4
2
3
9

> <PUBCHEM_MMFF94_PARTIAL_CHARGES>
12
1 -0.68
10 0.09
12 0.1
13 0.1
2 -0.19
29 0.4
3 -0.19
4 -0.19
5 0.09
6 0.09
7 0.28
9 0.09

> <PUBCHEM_EFFECTIVE_ROTOR_COUNT>
1

> <PUBCHEM_PHARMACOPHORE_FEATURES>
4
1 1 acceptor
1 1 donor
3 3 9 10 hydrophobe
7 2 3 4 5 6 7 8 rings

> <PUBCHEM_HEAVY_ATOM_COUNT>
11

> <PUBCHEM_ATOM_DEF_STEREO_COUNT>
0

> <PUBCHEM_ATOM_UDEF_STEREO_COUNT>
3

> <PUBCHEM_BOND_DEF_STEREO_COUNT>
0

> <PUBCHEM_BOND_UDEF_STEREO_COUNT>
0

> <PUBCHEM_ISOTOPIC_ATOM_COUNT>
0

> <PUBCHEM_COMPONENT_COUNT>
1

> <PUBCHEM_CACTVS_TAUTO_COUNT>
1

> <PUBCHEM_CONFORMER_ID>
00022BEB00000001

> <PUBCHEM_MMFF94_ENERGY>
36.9089

> <PUBCHEM_FEATURE_SELFOVERLAP>
20.297

> <PUBCHEM_SHAPE_FINGERPRINT>
12138202 97 18200305658189312270
12423570 1 11826665214056362154
12932764 1 17749397004716423676
13024252 1 15791722027291214163
15310529 11 16588314924496947924
15775835 57 18334002895934302277
16945 1 18334018280538818004
20645464 45 18202566206750983522
21040471 1 18408323276307074826
22802520 49 17987539051202485782
23235685 24 18411134727776603465
23402539 116 17916848214389210620
23552423 10 18040154015665738410
23559900 14 18412831305237795580
2748010 2 18122060072507415385
29004967 10 15574704786193508640
3248919 1 18060139868509193056
369184 2 18113892801483870936
5084963 1 17968094269511266691
6333449 129 18270678796028686554

> <PUBCHEM_SHAPE_MULTIPOLES>
220.51
4.03
1.31
1.16
0.41
0.47
0.22
-0.91
0.11
-0.3
0.04
0.08
-0.18
0

> <PUBCHEM_SHAPE_SELFOVERLAP>
450.388

> <PUBCHEM_SHAPE_VOLUME>
129.9

> <PUBCHEM_COORDINATE_TYPE>
2
5
10

$$$$
