138206
  -OEChem-11012400563D

 47 46  0     0  0  0  0  0  0999 V2000
    5.3329    2.3868   -0.3500 O   0  0  0  0  0  0  0  0  0  0  0  0
    5.2295   -2.3738   -0.5032 O   0  0  0  0  0  0  0  0  0  0  0  0
    5.4807    1.2337    1.5946 O   0  0  0  0  0  0  0  0  0  0  0  0
    5.4588   -1.3779    1.5260 O   0  0  0  0  0  0  0  0  0  0  0  0
   -1.2574    0.0803   -0.7643 C   0  0  0  0  0  0  0  0  0  0  0  0
   -2.4439    0.0036    0.1995 C   0  0  0  0  0  0  0  0  0  0  0  0
    0.0742   -0.0046   -0.0146 C   0  0  0  0  0  0  0  0  0  0  0  0
   -3.7742    0.0551   -0.5551 C   0  0  0  0  0  0  0  0  0  0  0  0
    1.2592    0.1077   -0.9759 C   0  0  0  0  0  0  0  0  0  0  0  0
   -4.9977   -0.0492    0.3599 C   0  0  0  0  0  0  0  0  0  0  0  0
    2.6219    0.0213   -0.2811 C   0  0  0  0  0  0  0  0  0  0  0  0
   -6.3275   -0.0229   -0.3968 C   0  0  0  0  0  0  0  0  0  0  0  0
    3.8471    0.0373   -1.2044 C   0  0  0  0  0  0  0  0  0  0  0  0
   -7.5146   -0.0566    0.5685 C   0  0  0  0  0  0  0  0  0  0  0  0
    5.2063   -0.0045   -0.4860 C   0  0  0  0  0  0  0  0  0  0  0  0
   -8.8441    0.0081   -0.1829 C   0  0  0  0  0  0  0  0  0  0  0  0
  -10.0255    0.0082    0.7740 C   0  0  0  0  0  0  0  0  0  0  0  0
    5.3645    1.2399    0.3756 C   0  0  0  0  0  0  0  0  0  0  0  0
    5.3098   -1.2923    0.3160 C   0  0  0  0  0  0  0  0  0  0  0  0
   -1.3043    1.0200   -1.3279 H   0  0  0  0  0  0  0  0  0  0  0  0
   -1.3200   -0.7375   -1.4925 H   0  0  0  0  0  0  0  0  0  0  0  0
   -2.3886   -0.9264    0.7782 H   0  0  0  0  0  0  0  0  0  0  0  0
   -2.3951    0.8335    0.9144 H   0  0  0  0  0  0  0  0  0  0  0  0
    0.1310   -0.9550    0.5296 H   0  0  0  0  0  0  0  0  0  0  0  0
    0.1316    0.7989    0.7295 H   0  0  0  0  0  0  0  0  0  0  0  0
   -3.8312    0.9908   -1.1250 H   0  0  0  0  0  0  0  0  0  0  0  0
   -3.8066   -0.7627   -1.2859 H   0  0  0  0  0  0  0  0  0  0  0  0
    1.1988    1.0568   -1.5226 H   0  0  0  0  0  0  0  0  0  0  0  0
    1.1922   -0.6924   -1.7237 H   0  0  0  0  0  0  0  0  0  0  0  0
   -4.9727    0.7789    1.0792 H   0  0  0  0  0  0  0  0  0  0  0  0
   -4.9334   -0.9764    0.9429 H   0  0  0  0  0  0  0  0  0  0  0  0
    2.6397   -0.8975    0.3178 H   0  0  0  0  0  0  0  0  0  0  0  0
    2.6912    0.8535    0.4299 H   0  0  0  0  0  0  0  0  0  0  0  0
   -6.3790   -0.8793   -1.0797 H   0  0  0  0  0  0  0  0  0  0  0  0
   -6.3792    0.8845   -1.0106 H   0  0  0  0  0  0  0  0  0  0  0  0
    3.7704   -0.8104   -1.8972 H   0  0  0  0  0  0  0  0  0  0  0  0
    3.7951    0.9369   -1.8311 H   0  0  0  0  0  0  0  0  0  0  0  0
   -7.4747   -0.9730    1.1698 H   0  0  0  0  0  0  0  0  0  0  0  0
   -7.4462    0.7892    1.2636 H   0  0  0  0  0  0  0  0  0  0  0  0
    6.0338   -0.0028   -1.2059 H   0  0  0  0  0  0  0  0  0  0  0  0
   -8.9296   -0.8481   -0.8621 H   0  0  0  0  0  0  0  0  0  0  0  0
   -8.8813    0.9150   -0.7976 H   0  0  0  0  0  0  0  0  0  0  0  0
   -9.9871    0.8723    1.4450 H   0  0  0  0  0  0  0  0  0  0  0  0
  -10.9657    0.0534    0.2156 H   0  0  0  0  0  0  0  0  0  0  0  0
  -10.0361   -0.9008    1.3841 H   0  0  0  0  0  0  0  0  0  0  0  0
    5.4202    3.1816    0.2184 H   0  0  0  0  0  0  0  0  0  0  0  0
    5.2996   -3.2156   -0.0045 H   0  0  0  0  0  0  0  0  0  0  0  0
  1 18  1  0  0  0  0
  1 46  1  0  0  0  0
  2 19  1  0  0  0  0
  2 47  1  0  0  0  0
  3 18  2  0  0  0  0
  4 19  2  0  0  0  0
  5  6  1  0  0  0  0
  5  7  1  0  0  0  0
  5 20  1  0  0  0  0
  5 21  1  0  0  0  0
  6  8  1  0  0  0  0
  6 22  1  0  0  0  0
  6 23  1  0  0  0  0
  7  9  1  0  0  0  0
  7 24  1  0  0  0  0
  7 25  1  0  0  0  0
  8 10  1  0  0  0  0
  8 26  1  0  0  0  0
  8 27  1  0  0  0  0
  9 11  1  0  0  0  0
  9 28  1  0  0  0  0
  9 29  1  0  0  0  0
 10 12  1  0  0  0  0
 10 30  1  0  0  0  0
 10 31  1  0  0  0  0
 11 13  1  0  0  0  0
 11 32  1  0  0  0  0
 11 33  1  0  0  0  0
 12 14  1  0  0  0  0
 12 34  1  0  0  0  0
 12 35  1  0  0  0  0
 13 15  1  0  0  0  0
 13 36  1  0  0  0  0
 13 37  1  0  0  0  0
 14 16  1  0  0  0  0
 14 38  1  0  0  0  0
 14 39  1  0  0  0  0
 15 18  1  0  0  0  0
 15 19  1  0  0  0  0
 15 40  1  0  0  0  0
 16 17  1  0  0  0  0
 16 41  1  0  0  0  0
 16 42  1  0  0  0  0
 17 43  1  0  0  0  0
 17 44  1  0  0  0  0
 17 45  1  0  0  0  0
M  END
> <PUBCHEM_COMPOUND_CID>
138206

> <PUBCHEM_CONFORMER_RMSD>
1

> <PUBCHEM_CONFORMER_DIVERSEORDER>
1
13
121
26
123
115
62
127
117
139
103
2
35
137
112
73
188
185
87
126
166
47
39
99
105
184
92
159
168
23
160
5
178
68
52
38
21
131
189
34
66
79
146
163
32
9
29
147
48
36
133
153
145
155
164
60
16
75
132
134
25
85
57
74
71
84
125
171
124
149
19
193
154
72
14
89
80
81
136
97
111
37
114
148
165
141
120
12
107
181
113
109
110
186
108
174
17
78
93
77
95
152
33
70
151
98
183
69
104
20
150
56
88
22
61
53
46
157
83
18
172
122
106
30
86
191
94
59
40
90
116
170
24
6
41
76
180
45
10
118
15
58
135
44
28
190
167
173
176
27
65
156
31
158
138
142
7
175
130
143
82
42
64
101
129
4
177
187
161
182
49
144
128
43
54
51
50
63
162
179
91
11
96
102
55
3
140
67
169
119
192
8
100

> <PUBCHEM_MMFF94_PARTIAL_CHARGES>
9
1 -0.65
15 0.12
18 0.66
19 0.66
2 -0.65
3 -0.57
4 -0.57
46 0.5
47 0.5

> <PUBCHEM_EFFECTIVE_ROTOR_COUNT>
13

> <PUBCHEM_PHARMACOPHORE_FEATURES>
8
1 1 acceptor
1 15 anion
1 17 hydrophobe
1 2 acceptor
1 3 acceptor
1 4 acceptor
3 1 3 18 anion
3 2 4 19 anion

> <PUBCHEM_HEAVY_ATOM_COUNT>
19

> <PUBCHEM_ATOM_DEF_STEREO_COUNT>
0

> <PUBCHEM_ATOM_UDEF_STEREO_COUNT>
0

> <PUBCHEM_BOND_DEF_STEREO_COUNT>
0

> <PUBCHEM_BOND_UDEF_STEREO_COUNT>
0

> <PUBCHEM_ISOTOPIC_ATOM_COUNT>
0

> <PUBCHEM_COMPONENT_COUNT>
1

> <PUBCHEM_CACTVS_TAUTO_COUNT>
1

> <PUBCHEM_CONFORMER_ID>
00021BDE00000001

> <PUBCHEM_MMFF94_ENERGY>
7.1108

> <PUBCHEM_FEATURE_SELFOVERLAP>
41.221

> <PUBCHEM_SHAPE_FINGERPRINT>
11315181 36 11743838072309825615
11638347 137 18335703819269784995
125118 31 18131636655999145801
13533116 47 18340486678008396838
14251764 18 16988846077816738961
14251764 46 9007059054150046125
15716309 27 18343864416546803743
1754908 1 18336271219531706867
20157964 124 18411700993713776726
20281389 69 18060419110377411401
20397935 70 18335139765826273310
21360442 33 11239459076623976892
21360442 67 10592044665531511229
21362267 313 17488755450671718635
22224240 67 18410575102798146167
23035841 295 14706927359196798469
23521765 1 18341617014953540381
28498 318 17095241406999883431
33532 11 17240201019758179107
5374978 207 18273209795061499872
5758199 1 15339123434075670751
67123 10 12823292395923276037
8209 1 13839985526323869815

> <PUBCHEM_SHAPE_MULTIPOLES>
367.53
29.15
1.37
1.09
60.95
0.05
0.19
0.33
6.88
-4.25
0.13
-1.14
0
0.1

> <PUBCHEM_SHAPE_SELFOVERLAP>
687.521

> <PUBCHEM_SHAPE_VOLUME>
228.1

> <PUBCHEM_COORDINATE_TYPE>
2
5
10

$$$$
