69080
  -OEChem-11012400573D

 37 39  0     0  0  0  0  0  0999 V2000
    0.4856   -0.0180   -0.4418 N   0  0  0  0  0  0  0  0  0  0  0  0
   -0.5216    0.6725   -1.2269 C   0  0  0  0  0  0  0  0  0  0  0  0
    1.6974    0.7008   -0.2253 C   0  0  0  0  0  0  0  0  0  0  0  0
    0.2930   -1.4037   -0.1637 C   0  0  0  0  0  0  0  0  0  0  0  0
   -1.7882    0.9654   -0.4959 C   0  0  0  0  0  0  0  0  0  0  0  0
    2.9116    0.0361   -0.3200 C   0  0  0  0  0  0  0  0  0  0  0  0
    1.0070   -1.9981    0.8663 C   0  0  0  0  0  0  0  0  0  0  0  0
    1.6433    2.0539    0.0772 C   0  0  0  0  0  0  0  0  0  0  0  0
   -0.6051   -2.1336   -0.9283 C   0  0  0  0  0  0  0  0  0  0  0  0
   -2.9966    1.0237   -1.1902 C   0  0  0  0  0  0  0  0  0  0  0  0
   -1.7647    1.1805    0.8822 C   0  0  0  0  0  0  0  0  0  0  0  0
    4.0973    0.7396   -0.1075 C   0  0  0  0  0  0  0  0  0  0  0  0
    0.8189   -3.3532    1.1376 C   0  0  0  0  0  0  0  0  0  0  0  0
    2.8291    2.7572    0.2895 C   0  0  0  0  0  0  0  0  0  0  0  0
   -0.7932   -3.4889   -0.6567 C   0  0  0  0  0  0  0  0  0  0  0  0
   -4.1813    1.2976   -0.5067 C   0  0  0  0  0  0  0  0  0  0  0  0
   -2.9494    1.4541    1.5657 C   0  0  0  0  0  0  0  0  0  0  0  0
    4.0560    2.0999    0.1973 C   0  0  0  0  0  0  0  0  0  0  0  0
   -0.0812   -4.0986    0.3763 C   0  0  0  0  0  0  0  0  0  0  0  0
   -4.1577    1.5126    0.8711 C   0  0  0  0  0  0  0  0  0  0  0  0
   -0.7166    0.1454   -2.1691 H   0  0  0  0  0  0  0  0  0  0  0  0
   -0.1610    1.6401   -1.6049 H   0  0  0  0  0  0  0  0  0  0  0  0
    2.9883   -1.0093   -0.6028 H   0  0  0  0  0  0  0  0  0  0  0  0
    1.6789   -1.4417    1.5126 H   0  0  0  0  0  0  0  0  0  0  0  0
    0.7109    2.5989    0.1811 H   0  0  0  0  0  0  0  0  0  0  0  0
   -1.1831   -1.7300   -1.7501 H   0  0  0  0  0  0  0  0  0  0  0  0
   -3.0287    0.8592   -2.2639 H   0  0  0  0  0  0  0  0  0  0  0  0
   -0.8453    1.1451    1.4581 H   0  0  0  0  0  0  0  0  0  0  0  0
    5.0533    0.2309   -0.1901 H   0  0  0  0  0  0  0  0  0  0  0  0
    1.3646   -3.8259    1.9491 H   0  0  0  0  0  0  0  0  0  0  0  0
    2.7975    3.8156    0.5314 H   0  0  0  0  0  0  0  0  0  0  0  0
   -1.4928   -4.0707   -1.2499 H   0  0  0  0  0  0  0  0  0  0  0  0
   -5.1221    1.3433   -1.0473 H   0  0  0  0  0  0  0  0  0  0  0  0
   -2.9316    1.6220    2.6386 H   0  0  0  0  0  0  0  0  0  0  0  0
    4.9791    2.6480    0.3613 H   0  0  0  0  0  0  0  0  0  0  0  0
   -0.2294   -5.1533    0.5891 H   0  0  0  0  0  0  0  0  0  0  0  0
   -5.0801    1.7258    1.4033 H   0  0  0  0  0  0  0  0  0  0  0  0
  1  2  1  0  0  0  0
  1  3  1  0  0  0  0
  1  4  1  0  0  0  0
  2  5  1  0  0  0  0
  2 21  1  0  0  0  0
  2 22  1  0  0  0  0
  3  6  2  0  0  0  0
  3  8  1  0  0  0  0
  4  7  2  0  0  0  0
  4  9  1  0  0  0  0
  5 10  2  0  0  0  0
  5 11  1  0  0  0  0
  6 12  1  0  0  0  0
  6 23  1  0  0  0  0
  7 13  1  0  0  0  0
  7 24  1  0  0  0  0
  8 14  2  0  0  0  0
  8 25  1  0  0  0  0
  9 15  2  0  0  0  0
  9 26  1  0  0  0  0
 10 16  1  0  0  0  0
 10 27  1  0  0  0  0
 11 17  2  0  0  0  0
 11 28  1  0  0  0  0
 12 18  2  0  0  0  0
 12 29  1  0  0  0  0
 13 19  2  0  0  0  0
 13 30  1  0  0  0  0
 14 18  1  0  0  0  0
 14 31  1  0  0  0  0
 15 19  1  0  0  0  0
 15 32  1  0  0  0  0
 16 20  2  0  0  0  0
 16 33  1  0  0  0  0
 17 20  1  0  0  0  0
 17 34  1  0  0  0  0
 18 35  1  0  0  0  0
 19 36  1  0  0  0  0
 20 37  1  0  0  0  0
M  END
> <PUBCHEM_COMPOUND_CID>
69080

> <PUBCHEM_CONFORMER_RMSD>
0.6

> <PUBCHEM_CONFORMER_DIVERSEORDER>
2
11
4
3
14
10
6
1
16
13
8
9
17
15
5
7
12

> <PUBCHEM_MMFF94_PARTIAL_CHARGES>
35
1 -0.57
10 -0.15
11 -0.15
12 -0.15
13 -0.15
14 -0.15
15 -0.15
16 -0.15
17 -0.15
18 -0.15
19 -0.15
2 0.51
20 -0.15
23 0.15
24 0.15
25 0.15
26 0.15
27 0.15
28 0.15
29 0.15
3 0.1
30 0.15
31 0.15
32 0.15
33 0.15
34 0.15
35 0.15
36 0.15
37 0.15
4 0.1
5 -0.14
6 -0.15
7 -0.15
8 -0.15
9 -0.15

> <PUBCHEM_EFFECTIVE_ROTOR_COUNT>
4

> <PUBCHEM_PHARMACOPHORE_FEATURES>
4
1 1 cation
6 3 6 8 12 14 18 rings
6 4 7 9 13 15 19 rings
6 5 10 11 16 17 20 rings

> <PUBCHEM_HEAVY_ATOM_COUNT>
20

> <PUBCHEM_ATOM_DEF_STEREO_COUNT>
0

> <PUBCHEM_ATOM_UDEF_STEREO_COUNT>
0

> <PUBCHEM_BOND_DEF_STEREO_COUNT>
0

> <PUBCHEM_BOND_UDEF_STEREO_COUNT>
0

> <PUBCHEM_ISOTOPIC_ATOM_COUNT>
0

> <PUBCHEM_COMPONENT_COUNT>
1

> <PUBCHEM_CACTVS_TAUTO_COUNT>
1

> <PUBCHEM_CONFORMER_ID>
00010DD800000002

> <PUBCHEM_MMFF94_ENERGY>
84.9106

> <PUBCHEM_FEATURE_SELFOVERLAP>
20.297

> <PUBCHEM_SHAPE_FINGERPRINT>
10064457 181 18338525230441587704
1100329 8 18338227168559779274
11578080 2 16547840879471865876
11582403 64 16014598493387748389
12532896 13 18410011082738244846
12549972 3 17773312542857866768
12553582 1 17475238994494933847
12592029 89 18335414626030855393
12788726 201 17906440379324012410
13004483 165 17547005690334600226
13140716 1 18408887308608228506
13149001 5 17982489024714186734
136203 1 17977947113477427250
13681431 1 17686064894190444310
14178342 30 18049708913893555592
14787075 74 18057318603693313221
14790565 3 18337964385418248252
14866123 147 18336822095868471594
14955137 171 18120650228535307594
15309172 13 18408323280554907197
15475509 84 16673053422847424875
17138139 8 17769902948573159415
1813 80 17265818321476649126
18915476 22 18117544138267020165
19591789 44 18408601457212888982
204376 136 18408608071330688445
20510252 161 17905880732084150058
20645477 70 18045208346438697477
21029758 11 17257360272513920438
21033648 29 18337094735818340540
21049683 118 18125694980840152529
21120745 212 17181681969479359980
21421861 104 17837508361978931737
21524375 3 18343863320470553476
21731228 192 18409456911428866633
22182937 141 18197218255187157288
2255824 54 18197218048928311903
23558518 356 18120933073473943604
23845131 108 18335421270883585923
283562 15 17760359299133708578
3091708 16 9192408135891299875
31174 14 17974861570886811921
3380486 145 16686525768691395582
3729539 64 18048904917553891510
394222 165 17986962855939091433
4340502 62 18340501006288094513
474 4 18342460305211070033
5104073 3 18122890192057526496
59755656 520 18412265064263532276
633830 44 18202010888728230709
7097593 13 17692822488766178217
7364860 26 18193558852766805855
81228 2 17830171668530673748
8272917 22 18196374711031392997
9981440 41 16839911905938127320

> <PUBCHEM_SHAPE_MULTIPOLES>
406.61
6.55
4.56
1.19
0.7
5.93
0.12
-7.44
0.54
-0.99
0.82
0.83
0.04
-0.53

> <PUBCHEM_SHAPE_SELFOVERLAP>
887.695

> <PUBCHEM_SHAPE_VOLUME>
219.8

> <PUBCHEM_COORDINATE_TYPE>
2
5
10

$$$$
