145084
  -OEChem-11012400583D

 76 77  0     1  0  0  0  0  0999 V2000
   -0.7406   -1.9721   -0.8798 C   0  0  0  0  0  0  0  0  0  0  0  0
    0.5513   -2.0914    0.0919 C   0  0  2  0  0  0  0  0  0  0  0  0
    0.3132   -2.6026    1.5685 C   0  0  2  0  0  0  0  0  0  0  0  0
   -0.2563   -1.9893   -2.3909 C   0  0  0  0  0  0  0  0  0  0  0  0
   -1.6306   -3.2662   -0.6661 C   0  0  0  0  0  0  0  0  0  0  0  0
   -1.5954   -0.7039   -0.5976 C   0  0  0  0  0  0  0  0  0  0  0  0
    1.5693   -0.9452    0.0277 C   0  0  0  0  0  0  0  0  0  0  0  0
   -0.1943   -1.5426    2.5725 C   0  0  0  0  0  0  0  0  0  0  0  0
    1.6053   -3.2455    2.1164 C   0  0  0  0  0  0  0  0  0  0  0  0
    0.6478   -3.1422   -2.8273 C   0  0  0  0  0  0  0  0  0  0  0  0
   -2.8332   -3.4149   -1.5998 C   0  0  0  0  0  0  0  0  0  0  0  0
   -2.5690   -0.7952    0.3532 C   0  0  0  0  0  0  0  0  0  0  0  0
   -1.3178    0.4203   -1.3183 C   0  0  0  0  0  0  0  0  0  0  0  0
    2.7964   -1.1909   -0.5389 C   0  0  0  0  0  0  0  0  0  0  0  0
    1.2100    0.2783    0.5391 C   0  0  0  0  0  0  0  0  0  0  0  0
   -0.3700   -2.0882    3.9859 C   0  0  0  0  0  0  0  0  0  0  0  0
   -3.0933    1.5188   -0.1024 C   0  0  0  0  0  0  0  0  0  0  0  0
   -3.3357    0.3423    0.6066 C   0  0  0  0  0  0  0  0  0  0  0  0
   -2.0843    1.5578   -1.0648 C   0  0  0  0  0  0  0  0  0  0  0  0
    3.3910    1.1070   -0.0882 C   0  0  0  0  0  0  0  0  0  0  0  0
   -3.9131    2.7346    0.1679 C   0  0  0  0  0  0  0  0  0  0  0  0
    3.7216   -0.1486   -0.5976 C   0  0  0  0  0  0  0  0  0  0  0  0
    2.1353    1.3205    0.4801 C   0  0  0  0  0  0  0  0  0  0  0  0
    4.3802    2.2211   -0.1509 C   0  0  0  0  0  0  0  0  0  0  0  0
   -3.5509    3.9931   -0.6888 C   0  0  0  0  0  0  0  0  0  0  0  0
   -5.4264    2.4692   -0.1045 C   0  0  0  0  0  0  0  0  0  0  0  0
   -3.7760    3.1908    1.6538 C   0  0  0  0  0  0  0  0  0  0  0  0
    4.7812    2.5395   -1.6248 C   0  0  0  0  0  0  0  0  0  0  0  0
    5.6860    1.8631    0.6247 C   0  0  0  0  0  0  0  0  0  0  0  0
    3.8981    3.5822    0.4524 C   0  0  0  0  0  0  0  0  0  0  0  0
    1.0736   -2.9583   -0.3336 H   0  0  0  0  0  0  0  0  0  0  0  0
   -0.4098   -3.4216    1.5560 H   0  0  0  0  0  0  0  0  0  0  0  0
    0.3516   -1.1048   -2.6053 H   0  0  0  0  0  0  0  0  0  0  0  0
   -1.1159   -1.9287   -3.0690 H   0  0  0  0  0  0  0  0  0  0  0  0
   -1.0026   -4.1568   -0.7964 H   0  0  0  0  0  0  0  0  0  0  0  0
   -2.0099   -3.3602    0.3535 H   0  0  0  0  0  0  0  0  0  0  0  0
    0.5295   -0.7332    2.6872 H   0  0  0  0  0  0  0  0  0  0  0  0
   -1.1381   -1.1061    2.2710 H   0  0  0  0  0  0  0  0  0  0  0  0
    1.4072   -3.8348    3.0175 H   0  0  0  0  0  0  0  0  0  0  0  0
    2.3609   -2.4919    2.3620 H   0  0  0  0  0  0  0  0  0  0  0  0
    2.0410   -3.9396    1.3892 H   0  0  0  0  0  0  0  0  0  0  0  0
    0.8264   -3.0675   -3.9063 H   0  0  0  0  0  0  0  0  0  0  0  0
    0.1844   -4.1156   -2.6493 H   0  0  0  0  0  0  0  0  0  0  0  0
    1.6285   -3.1277   -2.3526 H   0  0  0  0  0  0  0  0  0  0  0  0
   -2.5204   -3.5969   -2.6319 H   0  0  0  0  0  0  0  0  0  0  0  0
   -3.4289   -4.2815   -1.2925 H   0  0  0  0  0  0  0  0  0  0  0  0
   -3.4914   -2.5430   -1.5865 H   0  0  0  0  0  0  0  0  0  0  0  0
   -2.8014   -1.6730    0.9385 H   0  0  0  0  0  0  0  0  0  0  0  0
   -0.5358    0.5222   -2.0563 H   0  0  0  0  0  0  0  0  0  0  0  0
    3.0783   -2.1649   -0.9228 H   0  0  0  0  0  0  0  0  0  0  0  0
    0.2446    0.4917    0.9774 H   0  0  0  0  0  0  0  0  0  0  0  0
    0.5882   -2.3216    4.4592 H   0  0  0  0  0  0  0  0  0  0  0  0
   -0.9940   -2.9873    3.9867 H   0  0  0  0  0  0  0  0  0  0  0  0
   -0.8623   -1.3380    4.6142 H   0  0  0  0  0  0  0  0  0  0  0  0
   -4.1139    0.2851    1.3623 H   0  0  0  0  0  0  0  0  0  0  0  0
   -1.8500    2.4472   -1.6394 H   0  0  0  0  0  0  0  0  0  0  0  0
    4.6935   -0.3436   -1.0420 H   0  0  0  0  0  0  0  0  0  0  0  0
    1.8253    2.2764    0.8878 H   0  0  0  0  0  0  0  0  0  0  0  0
   -3.6827    3.8013   -1.7601 H   0  0  0  0  0  0  0  0  0  0  0  0
   -2.5166    4.3127   -0.5156 H   0  0  0  0  0  0  0  0  0  0  0  0
   -4.1955    4.8431   -0.4339 H   0  0  0  0  0  0  0  0  0  0  0  0
   -5.5851    2.1507   -1.1415 H   0  0  0  0  0  0  0  0  0  0  0  0
   -6.0265    3.3705    0.0665 H   0  0  0  0  0  0  0  0  0  0  0  0
   -5.8280    1.6853    0.5469 H   0  0  0  0  0  0  0  0  0  0  0  0
   -2.7284    3.3992    1.9016 H   0  0  0  0  0  0  0  0  0  0  0  0
   -4.1345    2.4260    2.3514 H   0  0  0  0  0  0  0  0  0  0  0  0
   -4.3552    4.1012    1.8466 H   0  0  0  0  0  0  0  0  0  0  0  0
    3.8992    2.8065   -2.2190 H   0  0  0  0  0  0  0  0  0  0  0  0
    5.2611    1.6838   -2.1122 H   0  0  0  0  0  0  0  0  0  0  0  0
    5.4866    3.3771   -1.6741 H   0  0  0  0  0  0  0  0  0  0  0  0
    5.4652    1.6353    1.6741 H   0  0  0  0  0  0  0  0  0  0  0  0
    6.4024    2.6926    0.6037 H   0  0  0  0  0  0  0  0  0  0  0  0
    6.1903    0.9901    0.1961 H   0  0  0  0  0  0  0  0  0  0  0  0
    3.6549    3.4860    1.5170 H   0  0  0  0  0  0  0  0  0  0  0  0
    3.0160    3.9649   -0.0741 H   0  0  0  0  0  0  0  0  0  0  0  0
    4.6779    4.3491    0.3700 H   0  0  0  0  0  0  0  0  0  0  0  0
  1  2  1  0  0  0  0
  1  4  1  0  0  0  0
  1  5  1  0  0  0  0
  1  6  1  0  0  0  0
  2  3  1  0  0  0  0
  2  7  1  0  0  0  0
  2 31  1  0  0  0  0
  3  8  1  0  0  0  0
  3  9  1  0  0  0  0
  3 32  1  0  0  0  0
  4 10  1  0  0  0  0
  4 33  1  0  0  0  0
  4 34  1  0  0  0  0
  5 11  1  0  0  0  0
  5 35  1  0  0  0  0
  5 36  1  0  0  0  0
  6 12  2  0  0  0  0
  6 13  1  0  0  0  0
  7 14  2  0  0  0  0
  7 15  1  0  0  0  0
  8 16  1  0  0  0  0
  8 37  1  0  0  0  0
  8 38  1  0  0  0  0
  9 39  1  0  0  0  0
  9 40  1  0  0  0  0
  9 41  1  0  0  0  0
 10 42  1  0  0  0  0
 10 43  1  0  0  0  0
 10 44  1  0  0  0  0
 11 45  1  0  0  0  0
 11 46  1  0  0  0  0
 11 47  1  0  0  0  0
 12 18  1  0  0  0  0
 12 48  1  0  0  0  0
 13 19  2  0  0  0  0
 13 49  1  0  0  0  0
 14 22  1  0  0  0  0
 14 50  1  0  0  0  0
 15 23  2  0  0  0  0
 15 51  1  0  0  0  0
 16 52  1  0  0  0  0
 16 53  1  0  0  0  0
 16 54  1  0  0  0  0
 17 18  2  0  0  0  0
 17 19  1  0  0  0  0
 17 21  1  0  0  0  0
 18 55  1  0  0  0  0
 19 56  1  0  0  0  0
 20 22  2  0  0  0  0
 20 23  1  0  0  0  0
 20 24  1  0  0  0  0
 21 25  1  0  0  0  0
 21 26  1  0  0  0  0
 21 27  1  0  0  0  0
 22 57  1  0  0  0  0
 23 58  1  0  0  0  0
 24 28  1  0  0  0  0
 24 29  1  0  0  0  0
 24 30  1  0  0  0  0
 25 59  1  0  0  0  0
 25 60  1  0  0  0  0
 25 61  1  0  0  0  0
 26 62  1  0  0  0  0
 26 63  1  0  0  0  0
 26 64  1  0  0  0  0
 27 65  1  0  0  0  0
 27 66  1  0  0  0  0
 27 67  1  0  0  0  0
 28 68  1  0  0  0  0
 28 69  1  0  0  0  0
 28 70  1  0  0  0  0
 29 71  1  0  0  0  0
 29 72  1  0  0  0  0
 29 73  1  0  0  0  0
 30 74  1  0  0  0  0
 30 75  1  0  0  0  0
 30 76  1  0  0  0  0
M  END
> <PUBCHEM_COMPOUND_CID>
145084

> <PUBCHEM_CONFORMER_RMSD>
1

> <PUBCHEM_CONFORMER_DIVERSEORDER>
1
9
6
12
11
3
8
4
15
13
7
14
10
2
5

> <PUBCHEM_MMFF94_PARTIAL_CHARGES>
24
1 0.14
12 -0.15
13 -0.15
14 -0.15
15 -0.15
17 -0.14
18 -0.15
19 -0.15
2 0.14
20 -0.14
21 0.14
22 -0.15
23 -0.15
24 0.14
48 0.15
49 0.15
50 0.15
51 0.15
55 0.15
56 0.15
57 0.15
58 0.15
6 -0.14
7 -0.14

> <PUBCHEM_EFFECTIVE_ROTOR_COUNT>
9

> <PUBCHEM_PHARMACOPHORE_FEATURES>
9
1 10 hydrophobe
1 11 hydrophobe
1 16 hydrophobe
1 9 hydrophobe
4 21 25 26 27 hydrophobe
4 24 28 29 30 hydrophobe
6 1 2 3 4 5 8 hydrophobe
6 6 12 13 17 18 19 rings
6 7 14 15 20 22 23 rings

> <PUBCHEM_HEAVY_ATOM_COUNT>
30

> <PUBCHEM_ATOM_DEF_STEREO_COUNT>
0

> <PUBCHEM_ATOM_UDEF_STEREO_COUNT>
2

> <PUBCHEM_BOND_DEF_STEREO_COUNT>
0

> <PUBCHEM_BOND_UDEF_STEREO_COUNT>
0

> <PUBCHEM_ISOTOPIC_ATOM_COUNT>
0

> <PUBCHEM_COMPONENT_COUNT>
1

> <PUBCHEM_CACTVS_TAUTO_COUNT>
1

> <PUBCHEM_CONFORMER_ID>
000236BC00000001

> <PUBCHEM_MMFF94_ENERGY>
134.7858

> <PUBCHEM_FEATURE_SELFOVERLAP>
45.68

> <PUBCHEM_SHAPE_FINGERPRINT>
10006869 2 18337378423114145435
10165383 225 17631745966557865403
12058002 1 17750529548643086759
12107183 9 18337940192161920874
12293681 160 17756398793541613423
12633257 1 17756705231210601083
12788726 201 18048585207970962322
133893 2 17027359731774657914
13583140 156 17316470701076079661
13944108 23 17618229403413788340
14713325 29 18199189670798281502
14955137 171 17757825628811319602
15210252 30 17405443099843046372
16067690 210 17399200519877799816
17974551 9 15869692533203028393
17980427 26 17968365750352826554
18681886 176 17981032020972110499
20600515 1 15370347029514551575
20739085 24 17692807086728377770
20764821 26 16248850918733606780
21033650 10 18194982944364897012
21756936 100 18188492505587767984
21860390 5 17551224069752686093
22121540 332 17616309883828191523
22907989 373 18129080377352882791
23419403 2 17402674714221896706
23558518 356 18262519307185604902
23559900 14 17621319040383557309
283562 15 18119516889291160935
3411729 13 18264772056482708193
3552219 110 15580371901220040132
376196 1 18411138000436441280
392239 28 17751372891636319667
394222 165 18263641762449269529
469060 322 17764037160864718538
497634 4 16482217688036297760
5081480 168 16837987347876922501
5252454 2 18409160000440531692
531348 171 18200038494750396900
57527306 92 17832123284638333487
6086070 43 17467337929987244453
7288768 16 18041278858868058648
7808743 9 18340484555740781600
9981440 41 18265326399648359354

> <PUBCHEM_SHAPE_MULTIPOLES>
617.39
9.07
5.53
2.56
4.13
0.8
1.63
13.39
-0.65
-2.19
-0.32
-0.14
-3.04
-1.19

> <PUBCHEM_SHAPE_SELFOVERLAP>
1269.335

> <PUBCHEM_SHAPE_VOLUME>
351.6

> <PUBCHEM_COORDINATE_TYPE>
2
5
10

$$$$
