61420
  -OEChem-11012400573D

 12 11  0     0  0  0  0  0  0999 V2000
   -2.4556   -1.0711    0.0890 O   0  5  0  0  0  0  0  0  0  0  0  0
    2.3720    1.1146   -0.1126 O   0  5  0  0  0  0  0  0  0  0  0  0
   -2.3415    1.1292    0.1096 O   0  0  0  0  0  0  0  0  0  0  0  0
    2.4314   -1.0876   -0.0712 O   0  0  0  0  0  0  0  0  0  0  0  0
   -1.8613    0.0030   -0.1010 N   0  3  0  0  0  0  0  0  0  0  0  0
    1.8582    0.0023    0.0923 N   0  3  0  0  0  0  0  0  0  0  0  0
   -0.4720   -0.0616   -0.5938 C   0  0  0  0  0  0  0  0  0  0  0  0
    0.4688   -0.0287    0.5879 C   0  0  0  0  0  0  0  0  0  0  0  0
   -0.3684   -0.9807   -1.1813 H   0  0  0  0  0  0  0  0  0  0  0  0
   -0.3274    0.7903   -1.2679 H   0  0  0  0  0  0  0  0  0  0  0  0
    0.3262    0.8607    1.2121 H   0  0  0  0  0  0  0  0  0  0  0  0
    0.3626   -0.9121    1.2274 H   0  0  0  0  0  0  0  0  0  0  0  0
  1  5  1  0  0  0  0
  2  6  1  0  0  0  0
  3  5  2  0  0  0  0
  4  6  2  0  0  0  0
  5  7  1  0  0  0  0
  6  8  1  0  0  0  0
  7  8  1  0  0  0  0
  7  9  1  0  0  0  0
  7 10  1  0  0  0  0
  8 11  1  0  0  0  0
  8 12  1  0  0  0  0
M  CHG  4   1  -1   2  -1   5   1   6   1
M  END
> <PUBCHEM_COMPOUND_CID>
61420

> <PUBCHEM_CONFORMER_RMSD>
0.6

> <PUBCHEM_CONFORMER_DIVERSEORDER>
1
4
3
2
5
6

> <PUBCHEM_MMFF94_PARTIAL_CHARGES>
8
1 -0.52
2 -0.52
3 -0.52
4 -0.52
5 0.8
6 0.8
7 0.24
8 0.24

> <PUBCHEM_EFFECTIVE_ROTOR_COUNT>
3

> <PUBCHEM_PHARMACOPHORE_FEATURES>
6
1 1 acceptor
1 1 anion
1 2 acceptor
1 2 anion
1 3 acceptor
1 4 acceptor

> <PUBCHEM_HEAVY_ATOM_COUNT>
8

> <PUBCHEM_ATOM_DEF_STEREO_COUNT>
0

> <PUBCHEM_ATOM_UDEF_STEREO_COUNT>
0

> <PUBCHEM_BOND_DEF_STEREO_COUNT>
0

> <PUBCHEM_BOND_UDEF_STEREO_COUNT>
0

> <PUBCHEM_ISOTOPIC_ATOM_COUNT>
0

> <PUBCHEM_COMPONENT_COUNT>
1

> <PUBCHEM_CACTVS_TAUTO_COUNT>
3

> <PUBCHEM_CONFORMER_ID>
0000EFEC00000001

> <PUBCHEM_MMFF94_ENERGY>
6.9587

> <PUBCHEM_FEATURE_SELFOVERLAP>
30.606

> <PUBCHEM_SHAPE_FINGERPRINT>
14390081 3 18341327881085218504
15310529 11 18272650181448270134
23552423 10 18334858294521901098
24536 1 18266156431377976357
29004967 10 18273213101563832274
3248919 1 18410562990035199363
5460574 1 9223238450486987814

> <PUBCHEM_SHAPE_MULTIPOLES>
131.2
4.01
1.08
0.65
0.01
0.04
0
-0.04
0.01
0
0
0
0
-0.02

> <PUBCHEM_SHAPE_SELFOVERLAP>
243.3

> <PUBCHEM_SHAPE_VOLUME>
83.1

> <PUBCHEM_COORDINATE_TYPE>
2
5
10

$$$$
