5170076
  -OEChem-11012400443D

 29 30  0     0  0  0  0  0  0999 V2000
   -1.3492    2.2062    0.2284 O   0  0  0  0  0  0  0  0  0  0  0  0
   -1.1350   -0.0620    0.6812 N   0  0  0  0  0  0  0  0  0  0  0  0
   -2.9036   -1.6212   -0.1427 C   0  0  0  0  0  0  0  0  0  0  0  0
   -1.4772   -1.4429    0.3425 C   0  0  0  0  0  0  0  0  0  0  0  0
   -3.1874   -0.6000   -1.2262 C   0  0  0  0  0  0  0  0  0  0  0  0
   -3.0469    0.7949   -0.6482 C   0  0  0  0  0  0  0  0  0  0  0  0
   -1.7502    1.0461    0.1003 C   0  0  0  0  0  0  0  0  0  0  0  0
    0.0729    0.1176    1.4753 C   0  0  0  0  0  0  0  0  0  0  0  0
    1.3154    0.0186    0.6383 C   0  0  0  0  0  0  0  0  0  0  0  0
    1.9268   -1.2168    0.4587 C   0  0  0  0  0  0  0  0  0  0  0  0
    1.8418    1.1630    0.0507 C   0  0  0  0  0  0  0  0  0  0  0  0
    3.0810   -1.3090   -0.3190 C   0  0  0  0  0  0  0  0  0  0  0  0
    2.9960    1.0707   -0.7272 C   0  0  0  0  0  0  0  0  0  0  0  0
    3.6155   -0.1653   -0.9121 C   0  0  0  0  0  0  0  0  0  0  0  0
   -3.6041   -1.4867    0.6904 H   0  0  0  0  0  0  0  0  0  0  0  0
   -3.0445   -2.6371   -0.5272 H   0  0  0  0  0  0  0  0  0  0  0  0
   -1.3152   -2.0751    1.2227 H   0  0  0  0  0  0  0  0  0  0  0  0
   -0.7854   -1.7688   -0.4427 H   0  0  0  0  0  0  0  0  0  0  0  0
   -4.1995   -0.7392   -1.6216 H   0  0  0  0  0  0  0  0  0  0  0  0
   -2.4890   -0.7341   -2.0612 H   0  0  0  0  0  0  0  0  0  0  0  0
   -3.8658    0.9920    0.0543 H   0  0  0  0  0  0  0  0  0  0  0  0
   -3.1226    1.5291   -1.4583 H   0  0  0  0  0  0  0  0  0  0  0  0
    0.0835   -0.6210    2.2862 H   0  0  0  0  0  0  0  0  0  0  0  0
    0.0408    1.0981    1.9671 H   0  0  0  0  0  0  0  0  0  0  0  0
    1.5220   -2.1144    0.9178 H   0  0  0  0  0  0  0  0  0  0  0  0
    1.3746    2.1334    0.1903 H   0  0  0  0  0  0  0  0  0  0  0  0
    3.5639   -2.2712   -0.4624 H   0  0  0  0  0  0  0  0  0  0  0  0
    3.4132    1.9614   -1.1878 H   0  0  0  0  0  0  0  0  0  0  0  0
    4.5144   -0.2369   -1.5173 H   0  0  0  0  0  0  0  0  0  0  0  0
  1  7  2  0  0  0  0
  2  4  1  0  0  0  0
  2  7  1  0  0  0  0
  2  8  1  0  0  0  0
  3  4  1  0  0  0  0
  3  5  1  0  0  0  0
  3 15  1  0  0  0  0
  3 16  1  0  0  0  0
  4 17  1  0  0  0  0
  4 18  1  0  0  0  0
  5  6  1  0  0  0  0
  5 19  1  0  0  0  0
  5 20  1  0  0  0  0
  6  7  1  0  0  0  0
  6 21  1  0  0  0  0
  6 22  1  0  0  0  0
  8  9  1  0  0  0  0
  8 23  1  0  0  0  0
  8 24  1  0  0  0  0
  9 10  2  0  0  0  0
  9 11  1  0  0  0  0
 10 12  1  0  0  0  0
 10 25  1  0  0  0  0
 11 13  2  0  0  0  0
 11 26  1  0  0  0  0
 12 14  2  0  0  0  0
 12 27  1  0  0  0  0
 13 14  1  0  0  0  0
 13 28  1  0  0  0  0
 14 29  1  0  0  0  0
M  END
> <PUBCHEM_COMPOUND_CID>
5170076

> <PUBCHEM_CONFORMER_RMSD>
0.6

> <PUBCHEM_CONFORMER_DIVERSEORDER>
2
6
3
7
5
8
1
4

> <PUBCHEM_MMFF94_PARTIAL_CHARGES>
17
1 -0.57
10 -0.15
11 -0.15
12 -0.15
13 -0.15
14 -0.15
2 -0.66
25 0.15
26 0.15
27 0.15
28 0.15
29 0.15
4 0.3
6 0.06
7 0.57
8 0.44
9 -0.14

> <PUBCHEM_EFFECTIVE_ROTOR_COUNT>
3

> <PUBCHEM_PHARMACOPHORE_FEATURES>
3
1 1 acceptor
6 2 3 4 5 6 7 rings
6 9 10 11 12 13 14 rings

> <PUBCHEM_HEAVY_ATOM_COUNT>
14

> <PUBCHEM_ATOM_DEF_STEREO_COUNT>
0

> <PUBCHEM_ATOM_UDEF_STEREO_COUNT>
0

> <PUBCHEM_BOND_DEF_STEREO_COUNT>
0

> <PUBCHEM_BOND_UDEF_STEREO_COUNT>
0

> <PUBCHEM_ISOTOPIC_ATOM_COUNT>
0

> <PUBCHEM_COMPONENT_COUNT>
1

> <PUBCHEM_CACTVS_TAUTO_COUNT>
1

> <PUBCHEM_CONFORMER_ID>
004EE39C00000002

> <PUBCHEM_MMFF94_ENERGY>
28.0813

> <PUBCHEM_FEATURE_SELFOVERLAP>
15.223

> <PUBCHEM_SHAPE_FINGERPRINT>
11127187 94 18343578551723223951
11206711 2 18412546496132132119
11471102 22 11167940256093603150
12202030 40 16773217600486075703
12696612 119 10303807692277500634
12897270 3 18337391646647841850
12932764 1 18343590633202327576
13296908 3 16559026073816515458
13299463 15 18342462577095412130
13705890 14 18202004335161427046
13764800 53 13551478020805649741
14250199 8 18187936100637017916
15775835 57 17313099718167509487
15906896 17 16914843348207759377
16945 1 18409445851893269962
17134986 127 17613428948731676109
18186145 218 17531242850835434311
18522851 268 18343867697231820622
20361792 2 16056597672620248673
20645464 45 11241963763768054329
20645476 183 17968364668289930635
20653085 51 17603866676456006877
20871999 31 18335696191708450375
21501502 16 18410295774545070810
22802520 49 18342455962935323619
23402539 116 18260541243265728260
23402655 69 18261675870134893804
23419403 2 12831773066109467891
23557571 272 18200294606869298689
23559900 14 18201146651862580858
25 1 17386291991236501114
27216 239 13190921859841342286
2748010 2 17183628135119428569
3082319 5 18409731750834014310
353137 74 18260545645127074443
4028521 119 17749103383350608845
5262128 65 18339938081392437668
7832392 63 18263647268703350500
8030462 33 18334294262357858802
93112 12 18408887317324549294

> <PUBCHEM_SHAPE_MULTIPOLES>
277.26
6.23
1.79
1.1
0.82
0.18
0.05
-0.87
-2.62
-0.47
0.01
-0.05
-0.02
-0.17

> <PUBCHEM_SHAPE_SELFOVERLAP>
578.417

> <PUBCHEM_SHAPE_VOLUME>
155.9

> <PUBCHEM_COORDINATE_TYPE>
2
5
10

$$$$
