101783
  -OEChem-11012400323D

 38 39  0     0  0  0  0  0  0999 V2000
   -5.7849    0.1739    0.3098 O   0  0  0  0  0  0  0  0  0  0  0  0
    5.7856    0.1737   -0.3105 O   0  0  0  0  0  0  0  0  0  0  0  0
   -0.2422    0.1736    0.5785 N   0  0  0  0  0  0  0  0  0  0  0  0
    0.2428    0.1733   -0.5773 N   0  0  0  0  0  0  0  0  0  0  0  0
   -4.4255    0.1737    0.3767 C   0  0  0  0  0  0  0  0  0  0  0  0
    4.4261    0.1735   -0.3769 C   0  0  0  0  0  0  0  0  0  0  0  0
   -1.6459    0.1737    0.5105 C   0  0  0  0  0  0  0  0  0  0  0  0
    1.6396    0.1734   -0.5101 C   0  0  0  0  0  0  0  0  0  0  0  0
   -3.7288   -1.0344    0.4102 C   0  0  0  0  0  0  0  0  0  0  0  0
    3.7294   -1.0344   -0.4096 C   0  0  0  0  0  0  0  0  0  0  0  0
   -3.7289    1.3816    0.4102 C   0  0  0  0  0  0  0  0  0  0  0  0
    3.7295    1.3814   -0.4108 C   0  0  0  0  0  0  0  0  0  0  0  0
   -2.3355   -1.0344    0.4773 C   0  0  0  0  0  0  0  0  0  0  0  0
    2.3361   -1.0345   -0.4764 C   0  0  0  0  0  0  0  0  0  0  0  0
   -2.3357    1.3817    0.4773 C   0  0  0  0  0  0  0  0  0  0  0  0
    2.3363    1.3815   -0.4773 C   0  0  0  0  0  0  0  0  0  0  0  0
   -6.4024   -0.9260   -0.3572 C   0  0  0  0  0  0  0  0  0  0  0  0
    6.4033   -0.9258    0.3567 C   0  0  0  0  0  0  0  0  0  0  0  0
   -7.7088   -0.4630   -0.9660 C   0  0  0  0  0  0  0  0  0  0  0  0
    7.7099   -0.4625    0.9649 C   0  0  0  0  0  0  0  0  0  0  0  0
   -4.2334   -1.9959    0.4138 H   0  0  0  0  0  0  0  0  0  0  0  0
    4.2340   -1.9960   -0.4129 H   0  0  0  0  0  0  0  0  0  0  0  0
   -4.2662    2.3257    0.3841 H   0  0  0  0  0  0  0  0  0  0  0  0
    4.2669    2.3255   -0.3852 H   0  0  0  0  0  0  0  0  0  0  0  0
   -1.8003   -1.9797    0.5100 H   0  0  0  0  0  0  0  0  0  0  0  0
    1.8021   -1.9807   -0.5083 H   0  0  0  0  0  0  0  0  0  0  0  0
   -1.8009    2.3273    0.5037 H   0  0  0  0  0  0  0  0  0  0  0  0
    1.8025    2.3280   -0.5039 H   0  0  0  0  0  0  0  0  0  0  0  0
   -5.7780   -1.3115   -1.1730 H   0  0  0  0  0  0  0  0  0  0  0  0
   -6.5938   -1.7249    0.3676 H   0  0  0  0  0  0  0  0  0  0  0  0
    5.7792   -1.3109    1.1729 H   0  0  0  0  0  0  0  0  0  0  0  0
    6.5945   -1.7250   -0.3678 H   0  0  0  0  0  0  0  0  0  0  0  0
   -8.2159   -1.2858   -1.4779 H   0  0  0  0  0  0  0  0  0  0  0  0
   -8.3745   -0.0647   -0.1932 H   0  0  0  0  0  0  0  0  0  0  0  0
   -7.5349    0.3459   -1.6833 H   0  0  0  0  0  0  0  0  0  0  0  0
    8.2171   -1.2851    1.4770 H   0  0  0  0  0  0  0  0  0  0  0  0
    8.3753   -0.0646    0.1916 H   0  0  0  0  0  0  0  0  0  0  0  0
    7.5362    0.3468    1.6819 H   0  0  0  0  0  0  0  0  0  0  0  0
  1  5  1  0  0  0  0
  1 17  1  0  0  0  0
  2  6  1  0  0  0  0
  2 18  1  0  0  0  0
  3  4  2  0  0  0  0
  3  7  1  0  0  0  0
  4  8  1  0  0  0  0
  5  9  2  0  0  0  0
  5 11  1  0  0  0  0
  6 10  2  0  0  0  0
  6 12  1  0  0  0  0
  7 13  2  0  0  0  0
  7 15  1  0  0  0  0
  8 14  2  0  0  0  0
  8 16  1  0  0  0  0
  9 13  1  0  0  0  0
  9 21  1  0  0  0  0
 10 14  1  0  0  0  0
 10 22  1  0  0  0  0
 11 15  2  0  0  0  0
 11 23  1  0  0  0  0
 12 16  2  0  0  0  0
 12 24  1  0  0  0  0
 13 25  1  0  0  0  0
 14 26  1  0  0  0  0
 15 27  1  0  0  0  0
 16 28  1  0  0  0  0
 17 19  1  0  0  0  0
 17 29  1  0  0  0  0
 17 30  1  0  0  0  0
 18 20  1  0  0  0  0
 18 31  1  0  0  0  0
 18 32  1  0  0  0  0
 19 33  1  0  0  0  0
 19 34  1  0  0  0  0
 19 35  1  0  0  0  0
 20 36  1  0  0  0  0
 20 37  1  0  0  0  0
 20 38  1  0  0  0  0
M  END
> <PUBCHEM_COMPOUND_CID>
101783

> <PUBCHEM_CONFORMER_RMSD>
0.8

> <PUBCHEM_CONFORMER_DIVERSEORDER>
1
7
2
4
3
5
6

> <PUBCHEM_MMFF94_PARTIAL_CHARGES>
26
1 -0.36
10 -0.15
11 -0.15
12 -0.15
13 -0.15
14 -0.15
15 -0.15
16 -0.15
17 0.28
18 0.28
2 -0.36
21 0.15
22 0.15
23 0.15
24 0.15
25 0.15
26 0.15
27 0.15
28 0.15
3 -0.18
4 -0.18
5 0.08
6 0.08
7 0.18
8 0.18
9 -0.15

> <PUBCHEM_EFFECTIVE_ROTOR_COUNT>
6

> <PUBCHEM_PHARMACOPHORE_FEATURES>
4
1 1 acceptor
1 2 acceptor
6 5 7 9 11 13 15 rings
6 6 8 10 12 14 16 rings

> <PUBCHEM_HEAVY_ATOM_COUNT>
20

> <PUBCHEM_ATOM_DEF_STEREO_COUNT>
0

> <PUBCHEM_ATOM_UDEF_STEREO_COUNT>
0

> <PUBCHEM_BOND_DEF_STEREO_COUNT>
0

> <PUBCHEM_BOND_UDEF_STEREO_COUNT>
0

> <PUBCHEM_ISOTOPIC_ATOM_COUNT>
0

> <PUBCHEM_COMPONENT_COUNT>
1

> <PUBCHEM_CACTVS_TAUTO_COUNT>
1

> <PUBCHEM_CONFORMER_ID>
00018D9700000001

> <PUBCHEM_MMFF94_ENERGY>
62.6584

> <PUBCHEM_FEATURE_SELFOVERLAP>
20.298

> <PUBCHEM_SHAPE_FINGERPRINT>
10 15 17988917899788666650
106641 1 15769488807066560786
11315181 36 18113908177366700281
11638347 137 16773800269315101654
11719270 70 18412825772782530238
11796584 16 16153433857187374690
12107183 9 17617101308888277744
12236239 1 18410577283686353953
12516196 113 17489871531101570360
13073987 5 15769506326106305322
13533116 47 17530954757345841347
13914758 101 17604142641137577773
13964095 4 12973603326418602187
14123256 10 18131349718092553079
1420 363 13542469769637336061
14251752 14 16298097675062528230
14251764 18 18335424569370775248
14251764 46 18410292510180190643
15183329 4 17603300440567774281
15690457 1 18412257337965759866
16120349 18 18188207706686425572
17834072 8 17675924305091050111
19489759 90 18410577275391981145
200 152 18060423508397282289
20645477 70 18342747268966029214
20735858 18 17846777404204646326
21130935 74 17845940615410375326
21267235 1 18410586084074330464
22224240 67 16989122063240040470
23402539 116 18413390921811571405
23559900 14 18264768938378532745
26918003 58 18409453595898704530
28498 318 16588299463137038802
3004659 81 18260546740275390401
335352 9 18333735728279898270
34797466 226 16630532856122555324
3545911 37 18410579487004609309
4073 2 17749680704792175314
4214541 1 18409454661014001801
4325135 7 18202562882731204695
4340502 62 15339121226182925508
5104073 3 18337966691456341080
5283156 175 18341894078561189343
542803 24 11818991907142382805
5758199 1 11383829372844750230
59682541 35 17489581299277484482
59755656 215 16732697225258180122
59755656 520 17240479247755730635
67856867 119 18339082704385592092
7495541 125 17703791470072775657

> <PUBCHEM_SHAPE_MULTIPOLES>
389.89
20.17
1.35
0.87
0.02
0.24
0
-5.17
0
0
0
0
-0.03
-0.74

> <PUBCHEM_SHAPE_SELFOVERLAP>
818.073

> <PUBCHEM_SHAPE_VOLUME>
220.4

> <PUBCHEM_COORDINATE_TYPE>
2
5
10

$$$$
