142961
  -OEChem-10312420072D

 79 88  0     0  0  0  0  0  0999 V2000
    8.2619    1.8798    0.0000 O   0  0  0  0  0  0  0  0  0  0  0  0
    9.8783   -0.9663    0.0000 O   0  0  0  0  0  0  0  0  0  0  0  0
   13.2406    0.1855    0.0000 O   0  0  0  0  0  0  0  0  0  0  0  0
    4.9889    1.9030    0.0000 O   0  0  0  0  0  0  0  0  0  0  0  0
    4.3053   -1.5849    0.0000 O   0  0  0  0  0  0  0  0  0  0  0  0
   11.1088    4.0426    0.0000 O   0  0  0  0  0  0  0  0  0  0  0  0
   13.3653    1.3534    0.0000 O   0  0  0  0  0  0  0  0  0  0  0  0
    5.2543   -2.2767    0.0000 O   0  0  0  0  0  0  0  0  0  0  0  0
    8.7115   -1.6671    0.0000 O   0  0  0  0  0  0  0  0  0  0  0  0
   11.2619    0.1477    0.0000 N   0  0  0  0  0  0  0  0  0  0  0  0
    5.2619    0.1477    0.0000 N   0  0  0  0  0  0  0  0  0  0  0  0
   12.0279    2.5226    0.0000 N   0  0  0  0  0  0  0  0  0  0  0  0
    6.9356   -1.7031    0.0000 N   0  0  0  0  0  0  0  0  0  0  0  0
   10.7619    1.0137    0.0000 C   0  0  0  0  0  0  0  0  0  0  0  0
    6.2619    0.1477    0.0000 C   0  0  0  0  0  0  0  0  0  0  0  0
   11.2619    1.8798    0.0000 C   0  0  0  0  0  0  0  0  0  0  0  0
    6.7619   -0.7183    0.0000 C   0  0  0  0  0  0  0  0  0  0  0  0
    9.7619    1.0137    0.0000 C   0  0  0  0  0  0  0  0  0  0  0  0
    6.7619    1.0137    0.0000 C   0  0  0  0  0  0  0  0  0  0  0  0
   11.5938   -1.4272    0.0000 C   0  0  0  0  0  0  0  0  0  0  0  0
   12.4598   -0.9272    0.0000 C   0  0  0  0  0  0  0  0  0  0  0  0
    3.7320    0.6477    0.0000 C   0  0  0  0  0  0  0  0  0  0  0  0
    3.7320   -0.3523    0.0000 C   0  0  0  0  0  0  0  0  0  0  0  0
    9.2619    1.8798    0.0000 C   0  0  0  0  0  0  0  0  0  0  0  0
    7.7619    1.0137    0.0000 C   0  0  0  0  0  0  0  0  0  0  0  0
   10.8568   -0.7601    0.0000 C   0  0  0  0  0  0  0  0  0  0  0  0
   12.2506    0.0447    0.0000 C   0  0  0  0  0  0  0  0  0  0  0  0
    4.6783    0.9524    0.0000 C   0  0  0  0  0  0  0  0  0  0  0  0
    4.6783   -0.6570    0.0000 C   0  0  0  0  0  0  0  0  0  0  0  0
   12.8784    3.8889    0.0000 C   0  0  0  0  0  0  0  0  0  0  0  0
   13.5212    3.1229    0.0000 C   0  0  0  0  0  0  0  0  0  0  0  0
    6.7088   -3.2965    0.0000 C   0  0  0  0  0  0  0  0  0  0  0  0
    7.6936   -3.1229    0.0000 C   0  0  0  0  0  0  0  0  0  0  0  0
   11.9577    3.5142    0.0000 C   0  0  0  0  0  0  0  0  0  0  0  0
   12.9923    2.2812    0.0000 C   0  0  0  0  0  0  0  0  0  0  0  0
    6.2443   -2.4176    0.0000 C   0  0  0  0  0  0  0  0  0  0  0  0
    7.8294   -2.1381    0.0000 C   0  0  0  0  0  0  0  0  0  0  0  0
   10.7619    2.7458    0.0000 C   0  0  0  0  0  0  0  0  0  0  0  0
    7.7619   -0.7183    0.0000 C   0  0  0  0  0  0  0  0  0  0  0  0
    9.7619    2.7458    0.0000 C   0  0  0  0  0  0  0  0  0  0  0  0
    8.2619    0.1477    0.0000 C   0  0  0  0  0  0  0  0  0  0  0  0
   11.5938   -2.4272    0.0000 C   0  0  0  0  0  0  0  0  0  0  0  0
   13.3258   -1.4272    0.0000 C   0  0  0  0  0  0  0  0  0  0  0  0
    2.8660    1.1477    0.0000 C   0  0  0  0  0  0  0  0  0  0  0  0
    2.8660   -0.8523    0.0000 C   0  0  0  0  0  0  0  0  0  0  0  0
   13.2205    4.8286    0.0000 C   0  0  0  0  0  0  0  0  0  0  0  0
   14.5060    3.2965    0.0000 C   0  0  0  0  0  0  0  0  0  0  0  0
    6.3668   -4.2362    0.0000 C   0  0  0  0  0  0  0  0  0  0  0  0
    8.3364   -3.8889    0.0000 C   0  0  0  0  0  0  0  0  0  0  0  0
   12.4598   -2.9272    0.0000 C   0  0  0  0  0  0  0  0  0  0  0  0
   13.3258   -2.4272    0.0000 C   0  0  0  0  0  0  0  0  0  0  0  0
    2.0000    0.6477    0.0000 C   0  0  0  0  0  0  0  0  0  0  0  0
    2.0000   -0.3523    0.0000 C   0  0  0  0  0  0  0  0  0  0  0  0
   14.2053    5.0023    0.0000 C   0  0  0  0  0  0  0  0  0  0  0  0
   14.8481    4.2362    0.0000 C   0  0  0  0  0  0  0  0  0  0  0  0
    7.0096   -5.0023    0.0000 C   0  0  0  0  0  0  0  0  0  0  0  0
    7.9944   -4.8286    0.0000 C   0  0  0  0  0  0  0  0  0  0  0  0
    9.4519    0.4768    0.0000 H   0  0  0  0  0  0  0  0  0  0  0  0
    6.4519    1.5507    0.0000 H   0  0  0  0  0  0  0  0  0  0  0  0
   11.0719    3.2827    0.0000 H   0  0  0  0  0  0  0  0  0  0  0  0
    8.0719   -1.2552    0.0000 H   0  0  0  0  0  0  0  0  0  0  0  0
    9.4519    3.2827    0.0000 H   0  0  0  0  0  0  0  0  0  0  0  0
    8.8819    0.1477    0.0000 H   0  0  0  0  0  0  0  0  0  0  0  0
   11.0568   -2.7372    0.0000 H   0  0  0  0  0  0  0  0  0  0  0  0
   13.8628   -1.1172    0.0000 H   0  0  0  0  0  0  0  0  0  0  0  0
    2.8660    1.7677    0.0000 H   0  0  0  0  0  0  0  0  0  0  0  0
    2.8660   -1.4723    0.0000 H   0  0  0  0  0  0  0  0  0  0  0  0
   12.8219    5.3036    0.0000 H   0  0  0  0  0  0  0  0  0  0  0  0
   14.9046    2.8216    0.0000 H   0  0  0  0  0  0  0  0  0  0  0  0
    5.7562   -4.3439    0.0000 H   0  0  0  0  0  0  0  0  0  0  0  0
    8.9470   -3.7812    0.0000 H   0  0  0  0  0  0  0  0  0  0  0  0
   12.4598   -3.5472    0.0000 H   0  0  0  0  0  0  0  0  0  0  0  0
   13.8628   -2.7372    0.0000 H   0  0  0  0  0  0  0  0  0  0  0  0
    1.4631    0.9577    0.0000 H   0  0  0  0  0  0  0  0  0  0  0  0
    1.4631   -0.6623    0.0000 H   0  0  0  0  0  0  0  0  0  0  0  0
   14.4173    5.5849    0.0000 H   0  0  0  0  0  0  0  0  0  0  0  0
   15.4586    4.3439    0.0000 H   0  0  0  0  0  0  0  0  0  0  0  0
    6.7975   -5.5849    0.0000 H   0  0  0  0  0  0  0  0  0  0  0  0
    8.3929   -5.3036    0.0000 H   0  0  0  0  0  0  0  0  0  0  0  0
  1 24  1  0  0  0  0
  1 25  1  0  0  0  0
  2 26  2  0  0  0  0
  3 27  2  0  0  0  0
  4 28  2  0  0  0  0
  5 29  2  0  0  0  0
  6 34  2  0  0  0  0
  7 35  2  0  0  0  0
  8 36  2  0  0  0  0
  9 37  2  0  0  0  0
 10 14  1  0  0  0  0
 10 26  1  0  0  0  0
 10 27  1  0  0  0  0
 11 15  1  0  0  0  0
 11 28  1  0  0  0  0
 11 29  1  0  0  0  0
 12 16  1  0  0  0  0
 12 34  1  0  0  0  0
 12 35  1  0  0  0  0
 13 17  1  0  0  0  0
 13 36  1  0  0  0  0
 13 37  1  0  0  0  0
 14 16  2  0  0  0  0
 14 18  1  0  0  0  0
 15 17  2  0  0  0  0
 15 19  1  0  0  0  0
 16 38  1  0  0  0  0
 17 39  1  0  0  0  0
 18 24  2  0  0  0  0
 18 58  1  0  0  0  0
 19 25  2  0  0  0  0
 19 59  1  0  0  0  0
 20 21  1  0  0  0  0
 20 26  1  0  0  0  0
 20 42  2  0  0  0  0
 21 27  1  0  0  0  0
 21 43  2  0  0  0  0
 22 23  1  0  0  0  0
 22 28  1  0  0  0  0
 22 44  2  0  0  0  0
 23 29  1  0  0  0  0
 23 45  2  0  0  0  0
 24 40  1  0  0  0  0
 25 41  1  0  0  0  0
 30 31  1  0  0  0  0
 30 34  1  0  0  0  0
 30 46  2  0  0  0  0
 31 35  1  0  0  0  0
 31 47  2  0  0  0  0
 32 33  1  0  0  0  0
 32 36  1  0  0  0  0
 32 48  2  0  0  0  0
 33 37  1  0  0  0  0
 33 49  2  0  0  0  0
 38 40  2  0  0  0  0
 38 60  1  0  0  0  0
 39 41  2  0  0  0  0
 39 61  1  0  0  0  0
 40 62  1  0  0  0  0
 41 63  1  0  0  0  0
 42 50  1  0  0  0  0
 42 64  1  0  0  0  0
 43 51  1  0  0  0  0
 43 65  1  0  0  0  0
 44 52  1  0  0  0  0
 44 66  1  0  0  0  0
 45 53  1  0  0  0  0
 45 67  1  0  0  0  0
 46 54  1  0  0  0  0
 46 68  1  0  0  0  0
 47 55  1  0  0  0  0
 47 69  1  0  0  0  0
 48 56  1  0  0  0  0
 48 70  1  0  0  0  0
 49 57  1  0  0  0  0
 49 71  1  0  0  0  0
 50 51  2  0  0  0  0
 50 72  1  0  0  0  0
 51 73  1  0  0  0  0
 52 53  2  0  0  0  0
 52 74  1  0  0  0  0
 53 75  1  0  0  0  0
 54 55  2  0  0  0  0
 54 76  1  0  0  0  0
 55 77  1  0  0  0  0
 56 57  2  0  0  0  0
 56 78  1  0  0  0  0
 57 79  1  0  0  0  0
M  END
> <PUBCHEM_COMPOUND_CID>
142961

> <PUBCHEM_COMPOUND_CANONICALIZED>
1

> <PUBCHEM_CACTVS_COMPLEXITY>
1550

> <PUBCHEM_CACTVS_HBOND_ACCEPTOR>
9

> <PUBCHEM_CACTVS_HBOND_DONOR>
0

> <PUBCHEM_CACTVS_ROTATABLE_BOND>
6

> <PUBCHEM_CACTVS_SUBSKEYS>
AAADceB/vAAAAAAAAAAAAAAAAAAAAWLFiwAwYMGDAAAAAFgBVAAAHgAAAAAADAyBmAAwxoMABACIAiVSUACCCAAlIgAIiAEGfMgMZjLEtZuWOSjmxDnI6Ye92IOOgEAAAgAQACAAgAAEACAAQAAAAAAAAA==

> <PUBCHEM_IUPAC_OPENEYE_NAME>
2-[4-[3,4-bis(1,3-dioxoisoindolin-2-yl)phenoxy]-2-(1,3-dioxoisoindolin-2-yl)phenyl]isoindoline-1,3-dione

> <PUBCHEM_IUPAC_CAS_NAME>
2-[4-[3,4-bis(1,3-dioxo-2-isoindolyl)phenoxy]-2-(1,3-dioxo-2-isoindolyl)phenyl]isoindole-1,3-dione

> <PUBCHEM_IUPAC_NAME_MARKUP>
2-[4-[3,4-bis(1,3-dioxoisoindol-2-yl)phenoxy]-2-(1,3-dioxoisoindol-2-yl)phenyl]isoindole-1,3-dione

> <PUBCHEM_IUPAC_NAME>
2-[4-[3,4-bis(1,3-dioxoisoindol-2-yl)phenoxy]-2-(1,3-dioxoisoindol-2-yl)phenyl]isoindole-1,3-dione

> <PUBCHEM_IUPAC_SYSTEMATIC_NAME>
2-[4-[3,4-bis[1,3-bis(oxidanylidene)isoindol-2-yl]phenoxy]-2-[1,3-bis(oxidanylidene)isoindol-2-yl]phenyl]isoindole-1,3-dione

> <PUBCHEM_IUPAC_TRADITIONAL_NAME>
2-[4-(3,4-diphthalimidophenoxy)-2-phthalimido-phenyl]isoindoline-1,3-quinone

> <PUBCHEM_IUPAC_INCHI>
InChI=1S/C44H22N4O9/c49-37-25-9-1-2-10-26(25)38(50)45(37)33-19-17-23(21-35(33)47-41(53)29-13-5-6-14-30(29)42(47)54)57-24-18-20-34(46-39(51)27-11-3-4-12-28(27)40(46)52)36(22-24)48-43(55)31-15-7-8-16-32(31)44(48)56/h1-22H

> <PUBCHEM_IUPAC_INCHIKEY>
OWSUHASCUVBOBL-UHFFFAOYSA-N

> <PUBCHEM_XLOGP3_AA>
5.6

> <PUBCHEM_EXACT_MASS>
750.13867829

> <PUBCHEM_MOLECULAR_FORMULA>
C44H22N4O9

> <PUBCHEM_MOLECULAR_WEIGHT>
750.7

> <PUBCHEM_OPENEYE_CAN_SMILES>
C1=CC=C2C(=C1)C(=O)N(C2=O)C3=C(C=C(C=C3)OC4=CC(=C(C=C4)N5C(=O)C6=CC=CC=C6C5=O)N7C(=O)C8=CC=CC=C8C7=O)N9C(=O)C1=CC=CC=C1C9=O

> <PUBCHEM_OPENEYE_ISO_SMILES>
C1=CC=C2C(=C1)C(=O)N(C2=O)C3=C(C=C(C=C3)OC4=CC(=C(C=C4)N5C(=O)C6=CC=CC=C6C5=O)N7C(=O)C8=CC=CC=C8C7=O)N9C(=O)C1=CC=CC=C1C9=O

> <PUBCHEM_CACTVS_TPSA>
159

> <PUBCHEM_MONOISOTOPIC_WEIGHT>
750.13867829

> <PUBCHEM_TOTAL_CHARGE>
0

> <PUBCHEM_HEAVY_ATOM_COUNT>
57

> <PUBCHEM_ATOM_DEF_STEREO_COUNT>
0

> <PUBCHEM_ATOM_UDEF_STEREO_COUNT>
0

> <PUBCHEM_BOND_DEF_STEREO_COUNT>
0

> <PUBCHEM_BOND_UDEF_STEREO_COUNT>
0

> <PUBCHEM_ISOTOPIC_ATOM_COUNT>
0

> <PUBCHEM_COMPONENT_COUNT>
1

> <PUBCHEM_CACTVS_TAUTO_COUNT>
-1

> <PUBCHEM_COORDINATE_TYPE>
1
5
255

> <PUBCHEM_BONDANNOTATIONS>
14  16  8
14  18  8
15  17  8
15  19  8
16  38  8
17  39  8
18  24  8
19  25  8
20  21  8
20  42  8
21  43  8
22  23  8
22  44  8
23  45  8
24  40  8
25  41  8
30  31  8
30  46  8
31  47  8
32  33  8
32  48  8
33  49  8
38  40  8
39  41  8
42  50  8
43  51  8
44  52  8
45  53  8
46  54  8
47  55  8
48  56  8
49  57  8
50  51  8
52  53  8
54  55  8
56  57  8

$$$$
