7004
  -OEChem-11012400393D

 18 19  0     0  0  0  0  0  0999 V2000
   -2.3817   -2.4819    0.0006 I   0  0  0  0  0  0  0  0  0  0  0  0
   -0.0230   -0.4095   -0.0001 C   0  0  0  0  0  0  0  0  0  0  0  0
    0.4993    0.9059    0.0003 C   0  0  0  0  0  0  0  0  0  0  0  0
   -1.4149   -0.5957   -0.0003 C   0  0  0  0  0  0  0  0  0  0  0  0
   -0.3859    1.9962    0.0003 C   0  0  0  0  0  0  0  0  0  0  0  0
    0.8622   -1.4998   -0.0002 C   0  0  0  0  0  0  0  0  0  0  0  0
    1.8913    1.0922    0.0002 C   0  0  0  0  0  0  0  0  0  0  0  0
   -2.2797    0.4991   -0.0004 C   0  0  0  0  0  0  0  0  0  0  0  0
   -1.7661    1.7926   -0.0002 C   0  0  0  0  0  0  0  0  0  0  0  0
    2.2424   -1.2963   -0.0002 C   0  0  0  0  0  0  0  0  0  0  0  0
    2.7560   -0.0028    0.0000 C   0  0  0  0  0  0  0  0  0  0  0  0
   -0.0068    3.0160    0.0004 H   0  0  0  0  0  0  0  0  0  0  0  0
    0.5264   -2.5315   -0.0005 H   0  0  0  0  0  0  0  0  0  0  0  0
    2.3149    2.0944    0.0004 H   0  0  0  0  0  0  0  0  0  0  0  0
   -3.3598    0.3742   -0.0005 H   0  0  0  0  0  0  0  0  0  0  0  0
   -2.4395    2.6448   -0.0002 H   0  0  0  0  0  0  0  0  0  0  0  0
    2.9168   -2.1478   -0.0005 H   0  0  0  0  0  0  0  0  0  0  0  0
    3.8305    0.1550   -0.0001 H   0  0  0  0  0  0  0  0  0  0  0  0
  1  4  1  0  0  0  0
  2  3  1  0  0  0  0
  2  4  1  0  0  0  0
  2  6  2  0  0  0  0
  3  5  1  0  0  0  0
  3  7  2  0  0  0  0
  4  8  2  0  0  0  0
  5  9  2  0  0  0  0
  5 12  1  0  0  0  0
  6 10  1  0  0  0  0
  6 13  1  0  0  0  0
  7 11  1  0  0  0  0
  7 14  1  0  0  0  0
  8  9  1  0  0  0  0
  8 15  1  0  0  0  0
  9 16  1  0  0  0  0
 10 11  2  0  0  0  0
 10 17  1  0  0  0  0
 11 18  1  0  0  0  0
M  END
> <PUBCHEM_COMPOUND_CID>
7004

> <PUBCHEM_CONFORMER_RMSD>
0.4

> <PUBCHEM_CONFORMER_DIVERSEORDER>
1

> <PUBCHEM_MMFF94_PARTIAL_CHARGES>
16
1 -0.08
10 -0.15
11 -0.15
12 0.15
13 0.15
14 0.15
15 0.15
16 0.15
17 0.15
18 0.15
4 0.08
5 -0.15
6 -0.15
7 -0.15
8 -0.15
9 -0.15

> <PUBCHEM_EFFECTIVE_ROTOR_COUNT>
0

> <PUBCHEM_PHARMACOPHORE_FEATURES>
3
1 1 hydrophobe
6 2 3 4 5 8 9 rings
6 2 3 6 7 10 11 rings

> <PUBCHEM_HEAVY_ATOM_COUNT>
11

> <PUBCHEM_ATOM_DEF_STEREO_COUNT>
0

> <PUBCHEM_ATOM_UDEF_STEREO_COUNT>
0

> <PUBCHEM_BOND_DEF_STEREO_COUNT>
0

> <PUBCHEM_BOND_UDEF_STEREO_COUNT>
0

> <PUBCHEM_ISOTOPIC_ATOM_COUNT>
0

> <PUBCHEM_COMPONENT_COUNT>
1

> <PUBCHEM_CACTVS_TAUTO_COUNT>
1

> <PUBCHEM_CONFORMER_ID>
00001B5C00000001

> <PUBCHEM_MMFF94_ENERGY>
34.8421

> <PUBCHEM_FEATURE_SELFOVERLAP>
15.249

> <PUBCHEM_SHAPE_FINGERPRINT>
10967382 1 18266459802272184739
11206711 2 18264211476923421199
12423570 1 14947317292280263897
12524768 44 18268714913373773567
13380535 76 18268703905430700623
14251717 144 17547566445718268143
161256 15 18125723645193097273
16945 1 18338797810350708484
193761 8 18338797939252695749
19973954 147 18410576175764113684
20871998 184 18201720673540279111
21040471 1 18194683666052184292
21501502 16 18409732893142366642
2334 1 18266178524700354947
23552423 10 18261114092707186748
23559900 14 18055076450888644486
241688 4 18338234985030408425
2748010 2 18339919445265258100
5084963 1 18129388266045991362
528886 8 18411413986296936368
66348 1 18411417340671740647

> <PUBCHEM_SHAPE_MULTIPOLES>
238.31
3.86
2.61
0.65
0.36
0.33
0
-1.93
0
1.03
0
0.08
-0.05
0

> <PUBCHEM_SHAPE_SELFOVERLAP>
498.914

> <PUBCHEM_SHAPE_VOLUME>
140.1

> <PUBCHEM_COORDINATE_TYPE>
2
5
10

$$$$
