1549239
  -OEChem-11012400443D

 32 33  0     0  0  0  0  0  0999 V2000
    0.0766    0.0031   -0.2260 S   0  0  0  0  0  0  0  0  0  0  0  0
   -0.3396    1.2668   -0.8096 O   0  0  0  0  0  0  0  0  0  0  0  0
   -0.3212   -1.2466   -0.8515 O   0  0  0  0  0  0  0  0  0  0  0  0
    1.8461    0.0022   -0.1660 C   0  0  0  0  0  0  0  0  0  0  0  0
    2.5178   -1.2064   -0.1582 C   0  0  0  0  0  0  0  0  0  0  0  0
    2.5192    1.2095   -0.1283 C   0  0  0  0  0  0  0  0  0  0  0  0
    4.6095   -0.0008   -0.0720 C   0  0  0  0  0  0  0  0  0  0  0  0
   -0.3401   -0.0174    1.4443 C   0  0  0  0  0  0  0  0  0  0  0  0
    3.9118   -1.2078   -0.1105 C   0  0  0  0  0  0  0  0  0  0  0  0
    3.9133    1.2079   -0.0808 C   0  0  0  0  0  0  0  0  0  0  0  0
   -1.6510   -0.0212    1.7653 C   0  0  0  0  0  0  0  0  0  0  0  0
   -2.7515   -0.0094    0.8143 C   0  0  0  0  0  0  0  0  0  0  0  0
    6.1001   -0.0020   -0.0216 C   0  0  0  0  0  0  0  0  0  0  0  0
   -3.2642    1.2043    0.3560 C   0  0  0  0  0  0  0  0  0  0  0  0
   -3.2944   -1.2116    0.3607 C   0  0  0  0  0  0  0  0  0  0  0  0
   -4.3198    1.2157   -0.5557 C   0  0  0  0  0  0  0  0  0  0  0  0
   -4.3500   -1.2001   -0.5511 C   0  0  0  0  0  0  0  0  0  0  0  0
   -4.8626    0.0137   -1.0092 C   0  0  0  0  0  0  0  0  0  0  0  0
    1.9928   -2.1562   -0.1803 H   0  0  0  0  0  0  0  0  0  0  0  0
    1.9945    2.1598   -0.1277 H   0  0  0  0  0  0  0  0  0  0  0  0
    0.4235   -0.0278    2.2135 H   0  0  0  0  0  0  0  0  0  0  0  0
    4.4431   -2.1559   -0.1042 H   0  0  0  0  0  0  0  0  0  0  0  0
    4.4458    2.1549   -0.0513 H   0  0  0  0  0  0  0  0  0  0  0  0
   -1.9351   -0.0358    2.8140 H   0  0  0  0  0  0  0  0  0  0  0  0
    6.4775   -0.8915    0.4942 H   0  0  0  0  0  0  0  0  0  0  0  0
    6.5102    0.0154   -1.0363 H   0  0  0  0  0  0  0  0  0  0  0  0
    6.4776    0.8691    0.5247 H   0  0  0  0  0  0  0  0  0  0  0  0
   -2.8540    2.1501    0.7017 H   0  0  0  0  0  0  0  0  0  0  0  0
   -2.9069   -2.1660    0.7093 H   0  0  0  0  0  0  0  0  0  0  0  0
   -4.7192    2.1606   -0.9122 H   0  0  0  0  0  0  0  0  0  0  0  0
   -4.7728   -2.1360   -0.9044 H   0  0  0  0  0  0  0  0  0  0  0  0
   -5.6845    0.0226   -1.7192 H   0  0  0  0  0  0  0  0  0  0  0  0
  1  2  2  0  0  0  0
  1  3  2  0  0  0  0
  1  4  1  0  0  0  0
  1  8  1  0  0  0  0
  4  5  2  0  0  0  0
  4  6  1  0  0  0  0
  5  9  1  0  0  0  0
  5 19  1  0  0  0  0
  6 10  2  0  0  0  0
  6 20  1  0  0  0  0
  7  9  2  0  0  0  0
  7 10  1  0  0  0  0
  7 13  1  0  0  0  0
  8 11  2  0  0  0  0
  8 21  1  0  0  0  0
  9 22  1  0  0  0  0
 10 23  1  0  0  0  0
 11 12  1  0  0  0  0
 11 24  1  0  0  0  0
 12 14  2  0  0  0  0
 12 15  1  0  0  0  0
 13 25  1  0  0  0  0
 13 26  1  0  0  0  0
 13 27  1  0  0  0  0
 14 16  1  0  0  0  0
 14 28  1  0  0  0  0
 15 17  2  0  0  0  0
 15 29  1  0  0  0  0
 16 18  2  0  0  0  0
 16 30  1  0  0  0  0
 17 18  1  0  0  0  0
 17 31  1  0  0  0  0
 18 32  1  0  0  0  0
M  END
> <PUBCHEM_COMPOUND_CID>
1549239

> <PUBCHEM_CONFORMER_RMSD>
0.6

> <PUBCHEM_CONFORMER_DIVERSEORDER>
1
4
5
2
3

> <PUBCHEM_MMFF94_PARTIAL_CHARGES>
29
1 1.33
10 -0.15
11 -0.18
12 0.03
13 0.14
14 -0.15
15 -0.15
16 -0.15
17 -0.15
18 -0.15
19 0.15
2 -0.65
20 0.15
21 0.15
22 0.15
23 0.15
24 0.15
28 0.15
29 0.15
3 -0.65
30 0.15
31 0.15
32 0.15
4 -0.01
5 -0.15
6 -0.15
7 -0.14
8 -0.17
9 -0.15

> <PUBCHEM_EFFECTIVE_ROTOR_COUNT>
3

> <PUBCHEM_PHARMACOPHORE_FEATURES>
4
1 2 acceptor
1 3 acceptor
6 12 14 15 16 17 18 rings
6 4 5 6 7 9 10 rings

> <PUBCHEM_HEAVY_ATOM_COUNT>
18

> <PUBCHEM_ATOM_DEF_STEREO_COUNT>
0

> <PUBCHEM_ATOM_UDEF_STEREO_COUNT>
0

> <PUBCHEM_BOND_DEF_STEREO_COUNT>
1

> <PUBCHEM_BOND_UDEF_STEREO_COUNT>
0

> <PUBCHEM_ISOTOPIC_ATOM_COUNT>
0

> <PUBCHEM_COMPONENT_COUNT>
1

> <PUBCHEM_CACTVS_TAUTO_COUNT>
1

> <PUBCHEM_CONFORMER_ID>
0017A3B700000001

> <PUBCHEM_MMFF94_ENERGY>
42.1629

> <PUBCHEM_FEATURE_SELFOVERLAP>
20.315

> <PUBCHEM_SHAPE_FINGERPRINT>
10366900 7 18113340812703837408
11089746 13 18040431105744317512
11315181 36 17988926682142341928
11370993 70 18410011043957419147
11401426 45 17894912927355556938
11543360 7 18413105082704651531
11615757 297 17917998278030136288
12107183 9 17692536606809877474
12119455 92 18409448076855166550
12236239 1 17704354360118005636
12346177 29 16660652915722878059
124424 183 17676211285688488961
12500047 106 17168150065280573122
12507557 5 18272934933622502712
128620 24 16343988004682128784
13167823 11 18342737416310915479
13583140 156 18410015476220899658
13675066 3 11963389665190031246
14123238 8 13398629454994141028
1420 363 14979959181311105516
14528608 73 18411140272853832348
14573314 32 17676488328322169230
15375358 24 17749394771401923746
15788980 27 18334016098663744259
17349148 13 17203617016110453952
17834072 33 18272932752053078484
18222031 100 14764337237295502113
19489759 90 18334010592468302040
19784866 170 12685083770224274689
200 152 18201719548158334688
20279233 1 17967822643253287994
20645477 70 18337671910903269646
21150785 3 13614247019045637760
21709351 56 18409448107109933028
23402539 116 17822007610132221124
23402655 69 18408887308713586964
23559900 14 18272363208918949144
351380 180 18333448742111086236
3545911 37 18335140890790777801
4028521 119 17749102262870650421
4214541 1 18410012135010448485
474229 33 16917067776068363830
5104073 3 18410857659188341552
5283173 99 18187356585016101333
542803 24 16950286213066694350
633830 44 17313105258733349989
7226269 152 16515400759567324420
7495541 125 13398625057280153842
9971528 1 17822010917536835100

> <PUBCHEM_SHAPE_MULTIPOLES>
362.54
11.88
1.4
1.12
5.82
0.01
0.38
0
-2.17
-0.24
-0.19
-0.92
-0.01
0.03

> <PUBCHEM_SHAPE_SELFOVERLAP>
763.409

> <PUBCHEM_SHAPE_VOLUME>
203.3

> <PUBCHEM_COORDINATE_TYPE>
2
5
10

$$$$
