138123
  -OEChem-11012400573D

 13 13  0     0  0  0  0  0  0999 V2000
    2.1045    0.3150   -0.0842 O   0  0  0  0  0  0  0  0  0  0  0  0
    0.4792    2.0112   -0.0105 O   0  5  0  0  0  0  0  0  0  0  0  0
   -2.1421   -1.2195   -0.0299 O   0  5  0  0  0  0  0  0  0  0  0  0
   -2.0729    0.9906    0.0896 O   0  0  0  0  0  0  0  0  0  0  0  0
    0.7556    0.7738   -0.0392 N   0  3  0  0  0  0  0  0  0  0  0  0
   -1.5478   -0.1311    0.0131 N   0  3  0  0  0  0  0  0  0  0  0  0
    0.5588   -1.4804   -0.1193 C   0  0  0  0  0  0  0  0  0  0  0  0
    1.9956   -1.0867    0.2088 C   0  0  0  0  0  0  0  0  0  0  0  0
   -0.1308   -0.1730   -0.0285 C   0  0  0  0  0  0  0  0  0  0  0  0
    0.1760   -2.2317    0.5752 H   0  0  0  0  0  0  0  0  0  0  0  0
    0.4793   -1.8543   -1.1455 H   0  0  0  0  0  0  0  0  0  0  0  0
    2.2154   -1.2310    1.2722 H   0  0  0  0  0  0  0  0  0  0  0  0
    2.7229   -1.6472   -0.3851 H   0  0  0  0  0  0  0  0  0  0  0  0
  1  5  1  0  0  0  0
  1  8  1  0  0  0  0
  2  5  1  0  0  0  0
  3  6  1  0  0  0  0
  4  6  2  0  0  0  0
  5  9  2  0  0  0  0
  6  9  1  0  0  0  0
  7  8  1  0  0  0  0
  7  9  1  0  0  0  0
  7 10  1  0  0  0  0
  7 11  1  0  0  0  0
  8 12  1  0  0  0  0
  8 13  1  0  0  0  0
M  CHG  4   2  -1   3  -1   5   1   6   1
M  END
> <PUBCHEM_COMPOUND_CID>
138123

> <PUBCHEM_CONFORMER_RMSD>
0.4

> <PUBCHEM_CONFORMER_DIVERSEORDER>
1
2

> <PUBCHEM_MMFF94_PARTIAL_CHARGES>
9
1 -0.42
2 -0.63
3 -0.52
4 -0.52
5 0.77
6 0.87
7 0.06
8 0.28
9 0.11

> <PUBCHEM_EFFECTIVE_ROTOR_COUNT>
1.6

> <PUBCHEM_PHARMACOPHORE_FEATURES>
5
1 2 anion
1 3 acceptor
1 4 acceptor
3 5 6 9 cation
5 1 5 7 8 9 rings

> <PUBCHEM_HEAVY_ATOM_COUNT>
9

> <PUBCHEM_ATOM_DEF_STEREO_COUNT>
0

> <PUBCHEM_ATOM_UDEF_STEREO_COUNT>
0

> <PUBCHEM_BOND_DEF_STEREO_COUNT>
0

> <PUBCHEM_BOND_UDEF_STEREO_COUNT>
0

> <PUBCHEM_ISOTOPIC_ATOM_COUNT>
0

> <PUBCHEM_COMPONENT_COUNT>
1

> <PUBCHEM_CACTVS_TAUTO_COUNT>
2

> <PUBCHEM_CONFORMER_ID>
00021B8B00000001

> <PUBCHEM_MMFF94_ENERGY>
17.9362

> <PUBCHEM_FEATURE_SELFOVERLAP>
25.447

> <PUBCHEM_SHAPE_FINGERPRINT>
18185500 45 18411418371453426635
20096714 4 18339363096745174870
21040471 1 18338799038927593998
23552423 10 18188497869590405630
29004967 10 18408888412504370970
5084963 1 18058454372780965115

> <PUBCHEM_SHAPE_MULTIPOLES>
151.78
2.75
1.69
0.56
0.5
0.4
0
-0.45
-0.11
-0.02
0.02
-0.05
-0.04
-0.07

> <PUBCHEM_SHAPE_SELFOVERLAP>
307.633

> <PUBCHEM_SHAPE_VOLUME>
87.6

> <PUBCHEM_COORDINATE_TYPE>
2
5
10

$$$$
