5463182
  -OEChem-11012400333D

 28 28  0     0  0  0  0  0  0999 V2000
    2.8374    0.0704    0.0259 C   0  0  0  0  0  0  0  0  0  0  0  0
    3.4264    0.2700    1.4339 C   0  0  0  0  0  0  0  0  0  0  0  0
    3.5921    0.9891   -0.9526 C   0  0  0  0  0  0  0  0  0  0  0  0
    3.0569   -1.3899   -0.4083 C   0  0  0  0  0  0  0  0  0  0  0  0
    1.3370    0.3256    0.0985 C   0  0  0  0  0  0  0  0  0  0  0  0
    0.3514   -0.5419   -0.1867 C   0  0  0  0  0  0  0  0  0  0  0  0
   -1.0868   -0.2375   -0.0902 C   0  0  0  0  0  0  0  0  0  0  0  0
   -1.5036    1.0838   -0.0939 C   0  0  0  0  0  0  0  0  0  0  0  0
   -1.9952   -1.2798    0.0006 C   0  0  0  0  0  0  0  0  0  0  0  0
   -2.8657    1.3707   -0.0045 C   0  0  0  0  0  0  0  0  0  0  0  0
   -3.3573   -0.9928    0.0900 C   0  0  0  0  0  0  0  0  0  0  0  0
   -3.7926    0.3324    0.0874 C   0  0  0  0  0  0  0  0  0  0  0  0
    3.2994    1.3037    1.7768 H   0  0  0  0  0  0  0  0  0  0  0  0
    4.4991    0.0452    1.4500 H   0  0  0  0  0  0  0  0  0  0  0  0
    2.9417   -0.3848    2.1681 H   0  0  0  0  0  0  0  0  0  0  0  0
    3.2099    0.8727   -1.9732 H   0  0  0  0  0  0  0  0  0  0  0  0
    4.6648    0.7661   -0.9671 H   0  0  0  0  0  0  0  0  0  0  0  0
    3.4714    2.0425   -0.6749 H   0  0  0  0  0  0  0  0  0  0  0  0
    2.6143   -2.1075    0.2930 H   0  0  0  0  0  0  0  0  0  0  0  0
    2.6681   -1.5863   -1.4147 H   0  0  0  0  0  0  0  0  0  0  0  0
    4.1299   -1.6186   -0.4412 H   0  0  0  0  0  0  0  0  0  0  0  0
    1.0972    1.3291    0.4427 H   0  0  0  0  0  0  0  0  0  0  0  0
    0.5667   -1.5549   -0.5107 H   0  0  0  0  0  0  0  0  0  0  0  0
   -0.8239    1.9242   -0.1896 H   0  0  0  0  0  0  0  0  0  0  0  0
   -1.6723   -2.3175    0.0051 H   0  0  0  0  0  0  0  0  0  0  0  0
   -3.2057    2.4022   -0.0125 H   0  0  0  0  0  0  0  0  0  0  0  0
   -4.0791   -1.8011    0.1616 H   0  0  0  0  0  0  0  0  0  0  0  0
   -4.8532    0.5557    0.1556 H   0  0  0  0  0  0  0  0  0  0  0  0
  1  2  1  0  0  0  0
  1  3  1  0  0  0  0
  1  4  1  0  0  0  0
  1  5  1  0  0  0  0
  2 13  1  0  0  0  0
  2 14  1  0  0  0  0
  2 15  1  0  0  0  0
  3 16  1  0  0  0  0
  3 17  1  0  0  0  0
  3 18  1  0  0  0  0
  4 19  1  0  0  0  0
  4 20  1  0  0  0  0
  4 21  1  0  0  0  0
  5  6  2  0  0  0  0
  5 22  1  0  0  0  0
  6  7  1  0  0  0  0
  6 23  1  0  0  0  0
  7  8  2  0  0  0  0
  7  9  1  0  0  0  0
  8 10  1  0  0  0  0
  8 24  1  0  0  0  0
  9 11  2  0  0  0  0
  9 25  1  0  0  0  0
 10 12  2  0  0  0  0
 10 26  1  0  0  0  0
 11 12  1  0  0  0  0
 11 27  1  0  0  0  0
 12 28  1  0  0  0  0
M  END
> <PUBCHEM_COMPOUND_CID>
5463182

> <PUBCHEM_CONFORMER_RMSD>
0.6

> <PUBCHEM_CONFORMER_DIVERSEORDER>
1

> <PUBCHEM_MMFF94_PARTIAL_CHARGES>
16
1 0.14
10 -0.15
11 -0.15
12 -0.15
22 0.15
23 0.15
24 0.15
25 0.15
26 0.15
27 0.15
28 0.15
5 -0.29
6 -0.18
7 0.03
8 -0.15
9 -0.15

> <PUBCHEM_EFFECTIVE_ROTOR_COUNT>
2

> <PUBCHEM_PHARMACOPHORE_FEATURES>
2
4 1 2 3 4 hydrophobe
6 7 8 9 10 11 12 rings

> <PUBCHEM_HEAVY_ATOM_COUNT>
12

> <PUBCHEM_ATOM_DEF_STEREO_COUNT>
0

> <PUBCHEM_ATOM_UDEF_STEREO_COUNT>
0

> <PUBCHEM_BOND_DEF_STEREO_COUNT>
1

> <PUBCHEM_BOND_UDEF_STEREO_COUNT>
0

> <PUBCHEM_ISOTOPIC_ATOM_COUNT>
0

> <PUBCHEM_COMPONENT_COUNT>
1

> <PUBCHEM_CACTVS_TAUTO_COUNT>
1

> <PUBCHEM_CONFORMER_ID>
00535C8E00000001

> <PUBCHEM_MMFF94_ENERGY>
34.7903

> <PUBCHEM_FEATURE_SELFOVERLAP>
10.148

> <PUBCHEM_SHAPE_FINGERPRINT>
10608611 8 18343016666436518505
11132069 177 18409725149559087457
12162725 195 18260548935182857732
12932764 1 17632573872711201070
13296908 3 18342460326590623118
14144814 61 18334013895340266056
14325111 11 18410857641971580718
15219456 202 18202004287394781311
15669948 3 18338232777317329103
18186145 218 18340209578954118198
190213 19 18260546718821399431
19422 9 18186803577874494546
20279233 1 17918269861697099074
20281407 28 18272373108939826867
20528008 55 18343298163251776655
20645477 56 18411979144227875961
20645477 70 17131836421957039334
20871998 184 18200599210814896055
2255824 54 17313107458331637890
23048698 100 17240480316769472472
23402539 116 18342447158980419247
23463225 33 18335701598571037934
23559900 14 18340486664885910446
3248919 1 18333444361402570030
42 15 18409724028820647250
474 4 16807023262604139260
5374978 207 18335416893752488689
57812782 119 18342452638493473305

> <PUBCHEM_SHAPE_MULTIPOLES>
246.95
7.72
1.39
0.88
0.99
0.09
-0.17
-0.5
-0.25
-0.36
0.14
0.9
-0.1
0.01

> <PUBCHEM_SHAPE_SELFOVERLAP>
500.749

> <PUBCHEM_SHAPE_VOLUME>
142.3

> <PUBCHEM_COORDINATE_TYPE>
2
5
10

$$$$
