23460
  -OEChem-11012401213D

 22 21  0     0  0  0  0  0  0999 V2000
    0.6432    1.8732   -1.3313 O   0  5  0  0  0  0  0  0  0  0  0  0
   -0.5613    2.9805    0.1421 O   0  0  0  0  0  0  0  0  0  0  0  0
    5.3127   -1.1819    0.0276 O   0  0  0  0  0  0  0  0  0  0  0  0
   -4.7786   -1.8341   -0.8660 O   0  0  0  0  0  0  0  0  0  0  0  0
    0.0263    0.8541    0.5754 N   0  0  0  0  0  0  0  0  0  0  0  0
    0.0239    1.9697   -0.2650 N   0  3  0  0  0  0  0  0  0  0  0  0
    2.9762   -1.2902   -0.2001 N   0  0  0  0  0  0  0  0  0  0  0  0
   -3.3758   -0.6707    0.6178 N   0  0  0  0  0  0  0  0  0  0  0  0
    0.7702   -0.3111    0.0887 C   0  0  0  0  0  0  0  0  0  0  0  0
   -1.2781    0.4544    1.1105 C   0  0  0  0  0  0  0  0  0  0  0  0
    2.2665   -0.0979    0.2683 C   0  0  0  0  0  0  0  0  0  0  0  0
   -2.0932   -0.2603    0.0422 C   0  0  0  0  0  0  0  0  0  0  0  0
    4.1430   -1.2342   -0.0855 C   0  0  0  0  0  0  0  0  0  0  0  0
   -4.0749   -1.2515   -0.1248 C   0  0  0  0  0  0  0  0  0  0  0  0
    0.5342   -0.5662   -0.9534 H   0  0  0  0  0  0  0  0  0  0  0  0
    0.5175   -1.2022    0.6813 H   0  0  0  0  0  0  0  0  0  0  0  0
   -1.8329    1.3135    1.5091 H   0  0  0  0  0  0  0  0  0  0  0  0
   -1.1312   -0.2093    1.9730 H   0  0  0  0  0  0  0  0  0  0  0  0
    2.6166    0.7809   -0.2873 H   0  0  0  0  0  0  0  0  0  0  0  0
    2.4838    0.0777    1.3318 H   0  0  0  0  0  0  0  0  0  0  0  0
   -2.2652    0.4096   -0.8118 H   0  0  0  0  0  0  0  0  0  0  0  0
   -1.5771   -1.1535   -0.3316 H   0  0  0  0  0  0  0  0  0  0  0  0
  1  6  1  0  0  0  0
  2  6  2  0  0  0  0
  3 13  2  0  0  0  0
  4 14  2  0  0  0  0
  5  6  1  0  0  0  0
  5  9  1  0  0  0  0
  5 10  1  0  0  0  0
  7 11  1  0  0  0  0
  7 13  2  0  0  0  0
  8 12  1  0  0  0  0
  8 14  2  0  0  0  0
  9 11  1  0  0  0  0
  9 15  1  0  0  0  0
  9 16  1  0  0  0  0
 10 12  1  0  0  0  0
 10 17  1  0  0  0  0
 10 18  1  0  0  0  0
 11 19  1  0  0  0  0
 11 20  1  0  0  0  0
 12 21  1  0  0  0  0
 12 22  1  0  0  0  0
M  CHG  2   1  -1   6   1
M  END
> <PUBCHEM_COMPOUND_CID>
23460

> <PUBCHEM_CONFORMER_RMSD>
0.8

> <PUBCHEM_CONFORMER_DIVERSEORDER>
1
120
176
190
139
140
24
92
55
90
134
5
179
167
27
97
133
36
54
191
102
73
127
151
130
182
22
155
3
187
185
30
88
37
84
26
180
156
164
160
53
15
116
86
177
18
170
8
126
106
7
175
71
192
2
59
141
29
23
34
173
104
75
161
68
131
146
166
66
40
77
165
9
16
196
46
17
136
87
163
121
95
157
132
51
108
80
184
31
113
197
35
44
172
154
69
58
48
117
122
21
110
91
43
64
188
107
115
50
128
6
52
79
118
202
33
142
199
41
99
83
162
47
150
114
39
174
204
100
74
42
138
189
183
38
4
158
159
205
45
119
14
112
129
124
89
203
181
147
76
82
169
32
49
11
143
96
153
67
28
200
149
93
186
178
19
63
13
193
101
72
10
78
70
105
60
25
195
198
201
109
20
94
148
125
144
56
12
137
61
194
65
103
111
57
152
123
98
81
145
85
62
171
168
135

> <PUBCHEM_MMFF94_PARTIAL_CHARGES>
14
1 -0.52
10 0.27
11 0.25
12 0.25
13 0.79
14 0.79
2 -0.52
3 -0.49
4 -0.49
5 -0.53
6 1.03
7 -0.55
8 -0.55
9 0.27

> <PUBCHEM_EFFECTIVE_ROTOR_COUNT>
7

> <PUBCHEM_PHARMACOPHORE_FEATURES>
4
1 1 acceptor
1 2 acceptor
1 7 acceptor
1 8 acceptor

> <PUBCHEM_HEAVY_ATOM_COUNT>
14

> <PUBCHEM_ATOM_DEF_STEREO_COUNT>
0

> <PUBCHEM_ATOM_UDEF_STEREO_COUNT>
0

> <PUBCHEM_BOND_DEF_STEREO_COUNT>
0

> <PUBCHEM_BOND_UDEF_STEREO_COUNT>
0

> <PUBCHEM_ISOTOPIC_ATOM_COUNT>
0

> <PUBCHEM_COMPONENT_COUNT>
1

> <PUBCHEM_CACTVS_TAUTO_COUNT>
1

> <PUBCHEM_CONFORMER_ID>
00005BA400000001

> <PUBCHEM_MMFF94_ENERGY>
22.9868

> <PUBCHEM_FEATURE_SELFOVERLAP>
20.379

> <PUBCHEM_SHAPE_FINGERPRINT>
100836 57 8718826513525201834
12346645 44 9223239533203952827
14178000 29 18412544340053352870
15477762 27 18266739267452055843
17539 30 18263635169817401237
187816 3 17603589612294931418
19784866 240 18271811263405235535
200 152 17894916196253203482
20388580 30 18334296512836280557
20645477 70 18118395375194728539
20671657 53 18410859901578098045
20711985 327 18342464754754529361
20724930 69 8214140755085693698
20871999 31 18041273279821332271
21426921 1 18266742368576867992
23402539 116 18261111825117727586
3086196 2 18341333275785565032
58143232 49 18342461434644595690

> <PUBCHEM_SHAPE_MULTIPOLES>
244.71
8.79
2.31
0.88
2.31
1.8
-0.04
-8.77
-0.99
-0.55
-0.5
-0.33
0.17
-0.54

> <PUBCHEM_SHAPE_SELFOVERLAP>
474.647

> <PUBCHEM_SHAPE_VOLUME>
146.2

> <PUBCHEM_COORDINATE_TYPE>
2
5
10

$$$$
