6436752
  -OEChem-11012400543D

 27 28  0     0  0  0  0  0  0999 V2000
    1.1430   -1.0410   -0.0006 N   0  0  0  0  0  0  0  0  0  0  0  0
    0.0140   -0.3059    0.0003 N   0  0  0  0  0  0  0  0  0  0  0  0
    2.4020   -0.4204    0.0001 C   0  0  0  0  0  0  0  0  0  0  0  0
   -2.4050   -0.3936    0.0000 C   0  0  0  0  0  0  0  0  0  0  0  0
    3.5676   -1.1928    0.0017 C   0  0  0  0  0  0  0  0  0  0  0  0
    2.4999    0.9744   -0.0016 C   0  0  0  0  0  0  0  0  0  0  0  0
   -3.5461   -1.1957   -0.0012 C   0  0  0  0  0  0  0  0  0  0  0  0
   -2.5290    0.9956    0.0014 C   0  0  0  0  0  0  0  0  0  0  0  0
   -1.0859   -1.0057   -0.0004 C   0  0  0  0  0  0  0  0  0  0  0  0
    4.8189   -0.5764    0.0015 C   0  0  0  0  0  0  0  0  0  0  0  0
    3.7511    1.5909   -0.0018 C   0  0  0  0  0  0  0  0  0  0  0  0
   -4.8115   -0.6084   -0.0011 C   0  0  0  0  0  0  0  0  0  0  0  0
   -3.7942    1.5829    0.0017 C   0  0  0  0  0  0  0  0  0  0  0  0
    4.9107    0.8154   -0.0002 C   0  0  0  0  0  0  0  0  0  0  0  0
   -4.9354    0.7808    0.0003 C   0  0  0  0  0  0  0  0  0  0  0  0
    3.5110   -2.2786    0.0028 H   0  0  0  0  0  0  0  0  0  0  0  0
    1.6183    1.6101   -0.0030 H   0  0  0  0  0  0  0  0  0  0  0  0
   -3.4659   -2.2797   -0.0024 H   0  0  0  0  0  0  0  0  0  0  0  0
   -1.6580    1.6456    0.0025 H   0  0  0  0  0  0  0  0  0  0  0  0
    1.1067   -2.0542    0.0001 H   0  0  0  0  0  0  0  0  0  0  0  0
   -1.0509   -2.1114   -0.0018 H   0  0  0  0  0  0  0  0  0  0  0  0
    5.7218   -1.1800    0.0027 H   0  0  0  0  0  0  0  0  0  0  0  0
    3.8231    2.6746   -0.0032 H   0  0  0  0  0  0  0  0  0  0  0  0
   -5.7001   -1.2329   -0.0022 H   0  0  0  0  0  0  0  0  0  0  0  0
   -3.8912    2.6647    0.0028 H   0  0  0  0  0  0  0  0  0  0  0  0
    5.8849    1.2954   -0.0004 H   0  0  0  0  0  0  0  0  0  0  0  0
   -5.9205    1.2381    0.0004 H   0  0  0  0  0  0  0  0  0  0  0  0
  1  2  1  0  0  0  0
  1  3  1  0  0  0  0
  1 20  1  0  0  0  0
  2  9  2  0  0  0  0
  3  5  2  0  0  0  0
  3  6  1  0  0  0  0
  4  7  2  0  0  0  0
  4  8  1  0  0  0  0
  4  9  1  0  0  0  0
  5 10  1  0  0  0  0
  5 16  1  0  0  0  0
  6 11  2  0  0  0  0
  6 17  1  0  0  0  0
  7 12  1  0  0  0  0
  7 18  1  0  0  0  0
  8 13  2  0  0  0  0
  8 19  1  0  0  0  0
  9 21  1  0  0  0  0
 10 14  2  0  0  0  0
 10 22  1  0  0  0  0
 11 14  1  0  0  0  0
 11 23  1  0  0  0  0
 12 15  2  0  0  0  0
 12 24  1  0  0  0  0
 13 15  1  0  0  0  0
 13 25  1  0  0  0  0
 14 26  1  0  0  0  0
 15 27  1  0  0  0  0
M  END
> <PUBCHEM_COMPOUND_CID>
6436752

> <PUBCHEM_CONFORMER_RMSD>
0.6

> <PUBCHEM_CONFORMER_DIVERSEORDER>
1
7
8
4
6
2
5
3

> <PUBCHEM_MMFF94_PARTIAL_CHARGES>
27
1 -0.46
10 -0.15
11 -0.15
12 -0.15
13 -0.15
14 -0.15
15 -0.15
16 0.15
17 0.15
18 0.15
19 0.15
2 -0.49
20 0.4
21 0.06
22 0.15
23 0.15
24 0.15
25 0.15
26 0.15
27 0.15
3 0.1
4 0.09
5 -0.15
6 -0.15
7 -0.15
8 -0.15
9 0.3

> <PUBCHEM_EFFECTIVE_ROTOR_COUNT>
3

> <PUBCHEM_PHARMACOPHORE_FEATURES>
4
1 1 donor
1 2 acceptor
6 3 5 6 10 11 14 rings
6 4 7 8 12 13 15 rings

> <PUBCHEM_HEAVY_ATOM_COUNT>
15

> <PUBCHEM_ATOM_DEF_STEREO_COUNT>
0

> <PUBCHEM_ATOM_UDEF_STEREO_COUNT>
0

> <PUBCHEM_BOND_DEF_STEREO_COUNT>
1

> <PUBCHEM_BOND_UDEF_STEREO_COUNT>
0

> <PUBCHEM_ISOTOPIC_ATOM_COUNT>
0

> <PUBCHEM_COMPONENT_COUNT>
1

> <PUBCHEM_CACTVS_TAUTO_COUNT>
1

> <PUBCHEM_CONFORMER_ID>
0062379000000001

> <PUBCHEM_MMFF94_ENERGY>
45.8132

> <PUBCHEM_FEATURE_SELFOVERLAP>
20.297

> <PUBCHEM_SHAPE_FINGERPRINT>
10014705 185 18261107448946849829
12107183 9 17688587165200625922
12916748 109 18408609157930735291
13081056 2 18410856564003510580
13167823 11 18410853265400445199
13533116 47 17313374579190282883
13897977 58 18411420622591159773
14123238 8 18410856568229737174
14251764 18 18187358844959423090
14252887 29 13551185564024837586
14341114 176 18408611361190844800
15196674 1 18410575088963678240
17802600 8 18410852165888596544
17834072 33 18413387661208544790
17844677 252 18411990151843654353
18186145 218 18040428884792583722
19433438 28 18260550030473312953
19489759 90 15791725300747318853
200 152 17989204850210466819
20300324 65 18272649065437255087
20645477 56 18408326558221199735
20645477 70 18131074779914084190
21267235 1 18410864260516385158
212847 35 18408604769102029532
21652331 79 18408885135412896349
22854114 59 17821445759410865679
23402539 116 18343013402646248831
23402655 69 18343302582941857916
23559900 14 18200030612615600294
245318 6 16810122858776510700
351380 180 18410009939981388840
3545911 37 18411140237940004350
42 15 18260267443042128150
4214541 1 18410575080594951937
42788 4 18410856563934938759
474 4 17822014262983970996
5104073 3 18409167709779552563
542803 24 18410293613981355054
7495541 125 17417525938079211827
77779 3 18410856563934919270
90127 26 18335432256982303794
9709674 26 18411989056622446791
9971528 1 17894351073199019284

> <PUBCHEM_SHAPE_MULTIPOLES>
298.73
12.66
1.57
0.61
0.48
0.31
0
1.92
0
-0.01
0
-0.01
0.01
0

> <PUBCHEM_SHAPE_SELFOVERLAP>
636.089

> <PUBCHEM_SHAPE_VOLUME>
165.4

> <PUBCHEM_COORDINATE_TYPE>
2
5
10

$$$$
