10990833
  -OEChem-11012401113D

 49 53  0     0  0  0  0  0  0999 V2000
    0.4784    0.0083   -2.1214 F   0  0  0  0  0  0  0  0  0  0  0  0
   -0.9299    0.0181   -0.3222 C   0  0  0  0  0  0  0  0  0  0  0  0
   -3.1225    1.2771   -0.5009 C   0  0  0  0  0  0  0  0  0  0  0  0
   -3.1277   -1.2415   -0.4108 C   0  0  0  0  0  0  0  0  0  0  0  0
   -2.5297    0.0916    1.6425 C   0  0  0  0  0  0  0  0  0  0  0  0
   -1.6417    1.2557   -0.9183 C   0  0  0  0  0  0  0  0  0  0  0  0
   -1.6468   -1.2559   -0.8285 C   0  0  0  0  0  0  0  0  0  0  0  0
   -1.0504    0.0732    1.2192 C   0  0  0  0  0  0  0  0  0  0  0  0
   -3.8104   -0.0006   -1.0098 C   0  0  0  0  0  0  0  0  0  0  0  0
   -3.2153    1.3257    1.0333 C   0  0  0  0  0  0  0  0  0  0  0  0
   -3.2205   -1.1801    1.1228 C   0  0  0  0  0  0  0  0  0  0  0  0
    0.5430    0.0001   -0.7396 C   0  0  0  0  0  0  0  0  0  0  0  0
    1.3097    1.2392   -0.2663 C   0  0  0  0  0  0  0  0  0  0  0  0
    1.2553   -1.2718   -0.2679 C   0  0  0  0  0  0  0  0  0  0  0  0
    1.4850    1.4268    1.0847 C   0  0  0  0  0  0  0  0  0  0  0  0
    1.4222   -1.4686    1.0826 C   0  0  0  0  0  0  0  0  0  0  0  0
    1.7924    2.1139   -1.2111 C   0  0  0  0  0  0  0  0  0  0  0  0
    1.6987   -2.1657   -1.2141 C   0  0  0  0  0  0  0  0  0  0  0  0
    2.1832    2.5548    1.5158 C   0  0  0  0  0  0  0  0  0  0  0  0
    2.0705   -2.6266    1.5122 C   0  0  0  0  0  0  0  0  0  0  0  0
    2.4907    3.2418   -0.7800 C   0  0  0  0  0  0  0  0  0  0  0  0
    2.3469   -3.3236   -0.7844 C   0  0  0  0  0  0  0  0  0  0  0  0
    2.6861    3.4622    0.5836 C   0  0  0  0  0  0  0  0  0  0  0  0
    2.5327   -3.5541    0.5787 C   0  0  0  0  0  0  0  0  0  0  0  0
   -3.6150    2.1572   -0.9292 H   0  0  0  0  0  0  0  0  0  0  0  0
   -3.6239   -2.1479   -0.7754 H   0  0  0  0  0  0  0  0  0  0  0  0
   -2.6069    0.1312    2.7355 H   0  0  0  0  0  0  0  0  0  0  0  0
   -1.5761    1.2499   -2.0138 H   0  0  0  0  0  0  0  0  0  0  0  0
   -1.1759    2.1886   -0.5793 H   0  0  0  0  0  0  0  0  0  0  0  0
   -1.1934   -2.1677   -0.4228 H   0  0  0  0  0  0  0  0  0  0  0  0
   -1.5792   -1.3277   -1.9217 H   0  0  0  0  0  0  0  0  0  0  0  0
   -0.6933    0.9978    1.6615 H   0  0  0  0  0  0  0  0  0  0  0  0
   -0.6943   -0.8086    1.7379 H   0  0  0  0  0  0  0  0  0  0  0  0
   -4.8724    0.0114   -0.7356 H   0  0  0  0  0  0  0  0  0  0  0  0
   -3.7648   -0.0399   -2.1051 H   0  0  0  0  0  0  0  0  0  0  0  0
   -2.7451    2.2430    1.4088 H   0  0  0  0  0  0  0  0  0  0  0  0
   -4.2672    1.3595    1.3428 H   0  0  0  0  0  0  0  0  0  0  0  0
   -4.2724   -1.1874    1.4339 H   0  0  0  0  0  0  0  0  0  0  0  0
   -2.7538   -2.0699    1.5630 H   0  0  0  0  0  0  0  0  0  0  0  0
    1.1557    0.8513    1.9219 H   0  0  0  0  0  0  0  0  0  0  0  0
    1.1312   -0.8775    1.9218 H   0  0  0  0  0  0  0  0  0  0  0  0
    1.6500    1.9599   -2.2755 H   0  0  0  0  0  0  0  0  0  0  0  0
    1.5624   -2.0035   -2.2781 H   0  0  0  0  0  0  0  0  0  0  0  0
    2.3339    2.7322    2.5771 H   0  0  0  0  0  0  0  0  0  0  0  0
    2.2158   -2.8107    2.5731 H   0  0  0  0  0  0  0  0  0  0  0  0
    2.8820    3.9489   -1.5056 H   0  0  0  0  0  0  0  0  0  0  0  0
    2.7066   -4.0462   -1.5111 H   0  0  0  0  0  0  0  0  0  0  0  0
    3.2288    4.3411    0.9192 H   0  0  0  0  0  0  0  0  0  0  0  0
    3.0369   -4.4560    0.9131 H   0  0  0  0  0  0  0  0  0  0  0  0
  1 12  1  0  0  0  0
  2  6  1  0  0  0  0
  2  7  1  0  0  0  0
  2  8  1  0  0  0  0
  2 12  1  0  0  0  0
  3  6  1  0  0  0  0
  3  9  1  0  0  0  0
  3 10  1  0  0  0  0
  3 25  1  0  0  0  0
  4  7  1  0  0  0  0
  4  9  1  0  0  0  0
  4 11  1  0  0  0  0
  4 26  1  0  0  0  0
  5  8  1  0  0  0  0
  5 10  1  0  0  0  0
  5 11  1  0  0  0  0
  5 27  1  0  0  0  0
  6 28  1  0  0  0  0
  6 29  1  0  0  0  0
  7 30  1  0  0  0  0
  7 31  1  0  0  0  0
  8 32  1  0  0  0  0
  8 33  1  0  0  0  0
  9 34  1  0  0  0  0
  9 35  1  0  0  0  0
 10 36  1  0  0  0  0
 10 37  1  0  0  0  0
 11 38  1  0  0  0  0
 11 39  1  0  0  0  0
 12 13  1  0  0  0  0
 12 14  1  0  0  0  0
 13 15  2  0  0  0  0
 13 17  1  0  0  0  0
 14 16  2  0  0  0  0
 14 18  1  0  0  0  0
 15 19  1  0  0  0  0
 15 40  1  0  0  0  0
 16 20  1  0  0  0  0
 16 41  1  0  0  0  0
 17 21  2  0  0  0  0
 17 42  1  0  0  0  0
 18 22  2  0  0  0  0
 18 43  1  0  0  0  0
 19 23  2  0  0  0  0
 19 44  1  0  0  0  0
 20 24  2  0  0  0  0
 20 45  1  0  0  0  0
 21 23  1  0  0  0  0
 21 46  1  0  0  0  0
 22 24  1  0  0  0  0
 22 47  1  0  0  0  0
 23 48  1  0  0  0  0
 24 49  1  0  0  0  0
M  END
> <PUBCHEM_COMPOUND_CID>
10990833

> <PUBCHEM_CONFORMER_RMSD>
0.8

> <PUBCHEM_CONFORMER_DIVERSEORDER>
1

> <PUBCHEM_MMFF94_PARTIAL_CHARGES>
24
1 -0.34
12 0.63
13 -0.14
14 -0.14
15 -0.15
16 -0.15
17 -0.15
18 -0.15
19 -0.15
20 -0.15
21 -0.15
22 -0.15
23 -0.15
24 -0.15
40 0.15
41 0.15
42 0.15
43 0.15
44 0.15
45 0.15
46 0.15
47 0.15
48 0.15
49 0.15

> <PUBCHEM_EFFECTIVE_ROTOR_COUNT>
4.2

> <PUBCHEM_PHARMACOPHORE_FEATURES>
6
6 13 15 17 19 21 23 rings
6 14 16 18 20 22 24 rings
6 2 3 4 6 7 9 rings
6 2 3 5 6 8 10 rings
6 2 4 5 7 8 11 rings
6 3 4 5 9 10 11 rings

> <PUBCHEM_HEAVY_ATOM_COUNT>
24

> <PUBCHEM_ATOM_DEF_STEREO_COUNT>
0

> <PUBCHEM_ATOM_UDEF_STEREO_COUNT>
0

> <PUBCHEM_BOND_DEF_STEREO_COUNT>
0

> <PUBCHEM_BOND_UDEF_STEREO_COUNT>
0

> <PUBCHEM_ISOTOPIC_ATOM_COUNT>
0

> <PUBCHEM_COMPONENT_COUNT>
1

> <PUBCHEM_CACTVS_TAUTO_COUNT>
1

> <PUBCHEM_CONFORMER_ID>
00A7B4F100000001

> <PUBCHEM_MMFF94_ENERGY>
111.1964

> <PUBCHEM_FEATURE_SELFOVERLAP>
42.967

> <PUBCHEM_SHAPE_FINGERPRINT>
10090160 65 17978216481474158695
10165383 225 17542276557384078744
104564 63 17256250336942000923
10863032 1 18339349851667414285
11578080 2 17605264086968182556
121448 382 17767397255292409325
12160290 23 17330843929111763438
12553582 1 18049451335360596559
12714826 92 17536039856959059711
12788726 201 17398672298865675066
13004483 165 17761212111760663770
13083527 12 18194092279152399419
13134695 92 18192711146328627261
13140716 1 18266744760546344576
13149001 5 17755558483015760101
133893 2 18409724058415731285
13681431 1 18339644417393187214
14022347 108 17620780296196104559
14178342 30 18046646756634696787
14181834 199 18342444911836797244
14223421 5 18336835289807089907
14466204 15 17545888122991749393
14713325 29 17111595817697975428
14787075 74 18261976080323555934
14863182 85 17683547373720495819
14955137 171 17983045299856328266
15309172 13 18048034361225013237
15664445 248 13337311981163568355
16945 1 18410867550508573084
17980427 23 17488162804359604641
1813 80 18053949454630621030
18981168 100 17531257162114844533
20510252 161 17548980408606217568
20567600 347 18194965377104565730
20600515 1 17840315419195379150
21421861 104 18340490066658686827
21524375 3 18126006207113207364
21731228 192 18121780805365733464
22907989 373 17257661015167101838
229495 10 17031123321194884589
23419403 2 17536554518816491180
23557571 272 17834387926842258274
23559900 14 18336816525094856639
350125 39 18195536015360429750
35225 105 17545872089466558696
3729539 64 18191331384834331932
404807 78 16746736069528671007
4175511 71 18125448505287828003
4409770 3 17183610006236636302
458136 41 18194984034442272233
5845 1 17910109110312675006
6138700 20 18410859842155346942
6442390 28 17835826439525934283
6786 2 17760406496307817192
70251023 43 18200888330691033871
7097593 13 18341052904504562835
7364860 26 18413385436515601782
81228 2 17331124897277051802
84936 31 18269818922074934090
90316 7 17764586521393740010
9981440 41 18194106641638913585

> <PUBCHEM_SHAPE_MULTIPOLES>
486.63
5.56
4.23
1.67
4.36
0.33
0.13
-0.35
0.46
-6.19
0.27
-0.05
-0.01
0

> <PUBCHEM_SHAPE_SELFOVERLAP>
1099.476

> <PUBCHEM_SHAPE_VOLUME>
257.8

> <PUBCHEM_COORDINATE_TYPE>
2
5
10

$$$$
