138231
  -OEChem-11012401013D

 18 17  0     1  0  0  0  0  0999 V2000
    0.7868    1.6890   -0.1897 N   0  0  0  0  0  0  0  0  0  0  0  0
   -2.0464   -0.7390    0.0991 N   0  0  0  0  0  0  0  0  0  0  0  0
    0.0153    0.6045    0.4256 C   0  0  2  0  0  0  0  0  0  0  0  0
    0.9263   -0.6109    0.6877 C   0  0  0  0  0  0  0  0  0  0  0  0
   -1.2037    0.3114   -0.4641 C   0  0  0  0  0  0  0  0  0  0  0  0
    1.5217   -1.2550   -0.5586 C   0  0  0  0  0  0  0  0  0  0  0  0
   -0.3436    0.9646    1.3987 H   0  0  0  0  0  0  0  0  0  0  0  0
    0.3765   -1.3730    1.2523 H   0  0  0  0  0  0  0  0  0  0  0  0
    1.7527   -0.3001    1.3409 H   0  0  0  0  0  0  0  0  0  0  0  0
   -1.8123    1.2184   -0.5625 H   0  0  0  0  0  0  0  0  0  0  0  0
   -0.8966    0.0242   -1.4764 H   0  0  0  0  0  0  0  0  0  0  0  0
    2.1826   -2.0794   -0.2711 H   0  0  0  0  0  0  0  0  0  0  0  0
    0.7436   -1.6677   -1.2072 H   0  0  0  0  0  0  0  0  0  0  0  0
    2.1142   -0.5408   -1.1379 H   0  0  0  0  0  0  0  0  0  0  0  0
    1.5629    1.9455    0.4189 H   0  0  0  0  0  0  0  0  0  0  0  0
    0.2031    2.5200   -0.2767 H   0  0  0  0  0  0  0  0  0  0  0  0
   -1.5438   -1.6252    0.0955 H   0  0  0  0  0  0  0  0  0  0  0  0
   -2.8580   -0.8763   -0.5024 H   0  0  0  0  0  0  0  0  0  0  0  0
  1  3  1  0  0  0  0
  1 15  1  0  0  0  0
  1 16  1  0  0  0  0
  2  5  1  0  0  0  0
  2 17  1  0  0  0  0
  2 18  1  0  0  0  0
  3  4  1  0  0  0  0
  3  5  1  0  0  0  0
  3  7  1  0  0  0  0
  4  6  1  0  0  0  0
  4  8  1  0  0  0  0
  4  9  1  0  0  0  0
  5 10  1  0  0  0  0
  5 11  1  0  0  0  0
  6 12  1  0  0  0  0
  6 13  1  0  0  0  0
  6 14  1  0  0  0  0
M  END
> <PUBCHEM_COMPOUND_CID>
138231

> <PUBCHEM_CONFORMER_RMSD>
0.4

> <PUBCHEM_CONFORMER_DIVERSEORDER>
1
10
5
12
15
16
8
13
4
9
6
14
7
3
11
2

> <PUBCHEM_MMFF94_PARTIAL_CHARGES>
8
1 -0.99
15 0.36
16 0.36
17 0.36
18 0.36
2 -0.99
3 0.27
5 0.27

> <PUBCHEM_EFFECTIVE_ROTOR_COUNT>
2

> <PUBCHEM_PHARMACOPHORE_FEATURES>
5
1 1 cation
1 1 donor
1 2 cation
1 2 donor
1 6 hydrophobe

> <PUBCHEM_HEAVY_ATOM_COUNT>
6

> <PUBCHEM_ATOM_DEF_STEREO_COUNT>
0

> <PUBCHEM_ATOM_UDEF_STEREO_COUNT>
1

> <PUBCHEM_BOND_DEF_STEREO_COUNT>
0

> <PUBCHEM_BOND_UDEF_STEREO_COUNT>
0

> <PUBCHEM_ISOTOPIC_ATOM_COUNT>
0

> <PUBCHEM_COMPONENT_COUNT>
1

> <PUBCHEM_CACTVS_TAUTO_COUNT>
1

> <PUBCHEM_CONFORMER_ID>
00021BF700000001

> <PUBCHEM_MMFF94_ENERGY>
-5.8623

> <PUBCHEM_FEATURE_SELFOVERLAP>
25.371

> <PUBCHEM_SHAPE_FINGERPRINT>
139733 1 8574131878330874603
16714656 1 17691415113439233588
21040471 1 17618217751003035208
24536 1 18340751711475336345
29004967 10 18341891866109765090
5943 1 13250796796424281472

> <PUBCHEM_SHAPE_MULTIPOLES>
113.52
2.11
1.47
0.81
0.3
0.53
-0.03
-1.03
0.23
-0.15
0.13
-0.14
-0.06
0.13

> <PUBCHEM_SHAPE_SELFOVERLAP>
194.181

> <PUBCHEM_SHAPE_VOLUME>
75.6

> <PUBCHEM_COORDINATE_TYPE>
2
5
10

$$$$
