95278
  -OEChem-11012400543D

 42 45  0     0  0  0  0  0  0999 V2000
    0.8296   -1.1482    0.0123 C   0  0  0  0  0  0  0  0  0  0  0  0
    1.4089    0.1469   -0.0121 C   0  0  0  0  0  0  0  0  0  0  0  0
   -0.5773   -1.2936   -0.0118 C   0  0  0  0  0  0  0  0  0  0  0  0
    0.5797    1.2925    0.0121 C   0  0  0  0  0  0  0  0  0  0  0  0
   -1.4092   -0.1443    0.0127 C   0  0  0  0  0  0  0  0  0  0  0  0
   -0.8317    1.1467   -0.0122 C   0  0  0  0  0  0  0  0  0  0  0  0
    1.7295   -2.3720    0.0108 C   0  0  0  0  0  0  0  0  0  0  0  0
    2.9211    0.2916   -0.0112 C   0  0  0  0  0  0  0  0  0  0  0  0
   -1.2080   -2.6755   -0.0106 C   0  0  0  0  0  0  0  0  0  0  0  0
    1.1894    2.6837    0.0108 C   0  0  0  0  0  0  0  0  0  0  0  0
   -2.9190   -0.3119    0.0124 C   0  0  0  0  0  0  0  0  0  0  0  0
   -1.7131    2.3839   -0.0120 C   0  0  0  0  0  0  0  0  0  0  0  0
    1.0323   -3.6729    0.3897 C   0  0  0  0  0  0  0  0  0  0  0  0
    3.4261    1.6786   -0.3900 C   0  0  0  0  0  0  0  0  0  0  0  0
   -0.2595   -3.8059   -0.3910 C   0  0  0  0  0  0  0  0  0  0  0  0
    2.6644    2.7302    0.3910 C   0  0  0  0  0  0  0  0  0  0  0  0
   -3.6968    0.9427    0.3906 C   0  0  0  0  0  0  0  0  0  0  0  0
   -3.1665    2.1274   -0.3914 C   0  0  0  0  0  0  0  0  0  0  0  0
    2.1540   -2.4767   -0.9958 H   0  0  0  0  0  0  0  0  0  0  0  0
    2.5591   -2.2313    0.7131 H   0  0  0  0  0  0  0  0  0  0  0  0
    3.2823    0.0449    0.9953 H   0  0  0  0  0  0  0  0  0  0  0  0
    3.3689   -0.4203   -0.7137 H   0  0  0  0  0  0  0  0  0  0  0  0
   -1.6013   -2.8654    0.9962 H   0  0  0  0  0  0  0  0  0  0  0  0
   -2.0491   -2.7071   -0.7123 H   0  0  0  0  0  0  0  0  0  0  0  0
    1.0687    3.1035   -0.9961 H   0  0  0  0  0  0  0  0  0  0  0  0
    0.6524    3.3320    0.7125 H   0  0  0  0  0  0  0  0  0  0  0  0
   -3.2226   -0.6280   -0.9938 H   0  0  0  0  0  0  0  0  0  0  0  0
   -3.2114   -1.0999    0.7158 H   0  0  0  0  0  0  0  0  0  0  0  0
   -1.6804    2.8205    0.9943 H   0  0  0  0  0  0  0  0  0  0  0  0
   -1.3202    3.1274   -0.7148 H   0  0  0  0  0  0  0  0  0  0  0  0
    1.6935   -4.5211    0.1798 H   0  0  0  0  0  0  0  0  0  0  0  0
    0.8209   -3.6877    1.4664 H   0  0  0  0  0  0  0  0  0  0  0  0
    4.4991    1.7511   -0.1804 H   0  0  0  0  0  0  0  0  0  0  0  0
    3.2959    1.8462   -1.4667 H   0  0  0  0  0  0  0  0  0  0  0  0
   -0.7332   -4.7716   -0.1821 H   0  0  0  0  0  0  0  0  0  0  0  0
   -0.0496   -3.7759   -1.4676 H   0  0  0  0  0  0  0  0  0  0  0  0
    3.0685    3.7270    0.1821 H   0  0  0  0  0  0  0  0  0  0  0  0
    2.7821    2.5536    1.4676 H   0  0  0  0  0  0  0  0  0  0  0  0
   -4.7620    0.7941    0.1814 H   0  0  0  0  0  0  0  0  0  0  0  0
   -3.6032    1.1342    1.4670 H   0  0  0  0  0  0  0  0  0  0  0  0
   -3.7658    3.0207   -0.1829 H   0  0  0  0  0  0  0  0  0  0  0  0
   -3.2460    1.9298   -1.4679 H   0  0  0  0  0  0  0  0  0  0  0  0
  1  2  2  0  0  0  0
  1  3  1  0  0  0  0
  1  7  1  0  0  0  0
  2  4  1  0  0  0  0
  2  8  1  0  0  0  0
  3  5  2  0  0  0  0
  3  9  1  0  0  0  0
  4  6  2  0  0  0  0
  4 10  1  0  0  0  0
  5  6  1  0  0  0  0
  5 11  1  0  0  0  0
  6 12  1  0  0  0  0
  7 13  1  0  0  0  0
  7 19  1  0  0  0  0
  7 20  1  0  0  0  0
  8 14  1  0  0  0  0
  8 21  1  0  0  0  0
  8 22  1  0  0  0  0
  9 15  1  0  0  0  0
  9 23  1  0  0  0  0
  9 24  1  0  0  0  0
 10 16  1  0  0  0  0
 10 25  1  0  0  0  0
 10 26  1  0  0  0  0
 11 17  1  0  0  0  0
 11 27  1  0  0  0  0
 11 28  1  0  0  0  0
 12 18  1  0  0  0  0
 12 29  1  0  0  0  0
 12 30  1  0  0  0  0
 13 15  1  0  0  0  0
 13 31  1  0  0  0  0
 13 32  1  0  0  0  0
 14 16  1  0  0  0  0
 14 33  1  0  0  0  0
 14 34  1  0  0  0  0
 15 35  1  0  0  0  0
 15 36  1  0  0  0  0
 16 37  1  0  0  0  0
 16 38  1  0  0  0  0
 17 18  1  0  0  0  0
 17 39  1  0  0  0  0
 17 40  1  0  0  0  0
 18 41  1  0  0  0  0
 18 42  1  0  0  0  0
M  END
> <PUBCHEM_COMPOUND_CID>
95278

> <PUBCHEM_CONFORMER_RMSD>
0.6

> <PUBCHEM_CONFORMER_DIVERSEORDER>
1

> <PUBCHEM_MMFF94_PARTIAL_CHARGES>
12
1 -0.14
10 0.14
11 0.14
12 0.14
2 -0.14
3 -0.14
4 -0.14
5 -0.14
6 -0.14
7 0.14
8 0.14
9 0.14

> <PUBCHEM_EFFECTIVE_ROTOR_COUNT>
2.4

> <PUBCHEM_PHARMACOPHORE_FEATURES>
4
6 1 2 3 4 5 6 rings
6 1 3 7 9 13 15 rings
6 2 4 8 10 14 16 rings
6 5 6 11 12 17 18 rings

> <PUBCHEM_HEAVY_ATOM_COUNT>
18

> <PUBCHEM_ATOM_DEF_STEREO_COUNT>
0

> <PUBCHEM_ATOM_UDEF_STEREO_COUNT>
0

> <PUBCHEM_BOND_DEF_STEREO_COUNT>
0

> <PUBCHEM_BOND_UDEF_STEREO_COUNT>
0

> <PUBCHEM_ISOTOPIC_ATOM_COUNT>
0

> <PUBCHEM_COMPONENT_COUNT>
1

> <PUBCHEM_CACTVS_TAUTO_COUNT>
1

> <PUBCHEM_CONFORMER_ID>
0001742E00000001

> <PUBCHEM_MMFF94_ENERGY>
34.262

> <PUBCHEM_FEATURE_SELFOVERLAP>
20.355

> <PUBCHEM_SHAPE_FINGERPRINT>
10319926 262 17839160155616285904
10411042 1 17402051094256790667
10693767 8 17914606168568146415
10967382 1 18122624946548137031
1100329 8 18410571752254338698
11578080 2 13350036400886670340
116883 192 17547578540129187862
12173636 292 18266456684020745061
12553582 1 17402902119981405231
12730499 353 18408603626904713445
13027679 85 17329427246723083740
13140716 1 18266459995371471283
13583140 156 16879045616045129649
138480 1 17906452125769007105
14790565 3 18338536203830399517
15042514 8 17976540838390442378
15309172 13 18411428331783507025
16945 1 18410569617175018341
193761 8 18410854390708029638
19591789 44 18410580612291283110
20510252 161 17910117150243637536
20645477 70 18118396255615493045
21029758 11 17257080472785029429
21041028 32 17258233869167550729
21524375 3 18333448763612043240
221490 88 18120100485679362187
23184049 29 17473541829493341844
2334 1 17762056935890223107
23402539 116 17478605071859677710
23419403 2 17176362193153326426
23557571 272 17622461844992046308
23558518 356 17974286831253463856
23559900 14 17977937990940438784
238 59 17756666855366659989
2748010 2 18265615372930891605
3091708 16 9263058355008569530
350125 39 18337958985968246851
352729 6 18266740366541586450
43471831 8 18409165519599405891
458136 41 18265636328171716113
54173680 148 17834113426301085952
58807428 26 18411134774736446600
5939293 188 17978224955054366579
6438718 38 17483975035168241431
6443956 14 17616535060426580213
7364860 26 18194401091384354885
81228 2 17546164567896228200
84936 182 18201151049176291361
9709674 26 17983301714183981876

> <PUBCHEM_SHAPE_MULTIPOLES>
370.43
4.81
4.81
0.67
0.49
3.98
0
-3.98
0
-0.49
0
0
0
0

> <PUBCHEM_SHAPE_SELFOVERLAP>
800.861

> <PUBCHEM_SHAPE_VOLUME>
194

> <PUBCHEM_COORDINATE_TYPE>
2
5
10

$$$$
