86900
  -OEChem-11012401163D

 27 26  0     0  0  0  0  0  0999 V2000
   -3.7394    0.2925   -1.2845 F   0  0  0  0  0  0  0  0  0  0  0  0
    3.8353    1.2136   -0.1313 F   0  0  0  0  0  0  0  0  0  0  0  0
   -1.0534    1.0816   -1.3542 O   0  0  0  0  0  0  0  0  0  0  0  0
    1.1150    1.7156   -0.5592 O   0  0  0  0  0  0  0  0  0  0  0  0
   -3.3532    0.5494    2.0477 O   0  5  0  0  0  0  0  0  0  0  0  0
   -1.6616   -1.7075    0.5556 O   0  5  0  0  0  0  0  0  0  0  0  0
    3.0272   -1.9226   -1.0424 O   0  5  0  0  0  0  0  0  0  0  0  0
    1.7528   -0.8194    1.6669 O   0  5  0  0  0  0  0  0  0  0  0  0
   -5.0040   -0.2196    0.8175 O   0  0  0  0  0  0  0  0  0  0  0  0
   -2.7592   -1.9444   -1.3337 O   0  0  0  0  0  0  0  0  0  0  0  0
    4.8805   -1.0616   -0.2337 O   0  0  0  0  0  0  0  0  0  0  0  0
    3.0879    0.8536    2.1663 O   0  0  0  0  0  0  0  0  0  0  0  0
   -3.8343    0.1539    0.9771 N   0  3  0  0  0  0  0  0  0  0  0  0
   -2.4055   -1.2916   -0.3431 N   0  3  0  0  0  0  0  0  0  0  0  0
    3.6697   -1.0196   -0.4892 N   0  3  0  0  0  0  0  0  0  0  0  0
    2.5560    0.0737    1.3652 N   0  3  0  0  0  0  0  0  0  0  0  0
   -2.9257    0.1101   -0.2173 C   0  0  0  0  0  0  0  0  0  0  0  0
    2.9202    0.2163   -0.0834 C   0  0  0  0  0  0  0  0  0  0  0  0
   -1.8412    1.1610   -0.1709 C   0  0  0  0  0  0  0  0  0  0  0  0
    1.7420    0.5119   -0.9819 C   0  0  0  0  0  0  0  0  0  0  0  0
   -0.0092    2.0532   -1.3715 C   0  0  0  0  0  0  0  0  0  0  0  0
   -2.2961    2.1577   -0.1189 H   0  0  0  0  0  0  0  0  0  0  0  0
   -1.1880    1.0298    0.7006 H   0  0  0  0  0  0  0  0  0  0  0  0
    2.0862    0.6405   -2.0155 H   0  0  0  0  0  0  0  0  0  0  0  0
    1.0119   -0.3061   -0.9578 H   0  0  0  0  0  0  0  0  0  0  0  0
    0.3258    2.1669   -2.4086 H   0  0  0  0  0  0  0  0  0  0  0  0
   -0.3886    3.0299   -1.0505 H   0  0  0  0  0  0  0  0  0  0  0  0
  1 17  1  0  0  0  0
  2 18  1  0  0  0  0
  3 19  1  0  0  0  0
  3 21  1  0  0  0  0
  4 20  1  0  0  0  0
  4 21  1  0  0  0  0
  5 13  1  0  0  0  0
  6 14  1  0  0  0  0
  7 15  1  0  0  0  0
  8 16  1  0  0  0  0
  9 13  2  0  0  0  0
 10 14  2  0  0  0  0
 11 15  2  0  0  0  0
 12 16  2  0  0  0  0
 13 17  1  0  0  0  0
 14 17  1  0  0  0  0
 15 18  1  0  0  0  0
 16 18  1  0  0  0  0
 17 19  1  0  0  0  0
 18 20  1  0  0  0  0
 19 22  1  0  0  0  0
 19 23  1  0  0  0  0
 20 24  1  0  0  0  0
 20 25  1  0  0  0  0
 21 26  1  0  0  0  0
 21 27  1  0  0  0  0
M  CHG  8   5  -1   6  -1   7  -1   8  -1  13   1  14   1  15   1  16   1
M  END
> <PUBCHEM_COMPOUND_CID>
86900

> <PUBCHEM_CONFORMER_RMSD>
1

> <PUBCHEM_CONFORMER_DIVERSEORDER>
1
11
12
17
9
8
19
23
14
18
25
13
10
4
27
16
24
7
3
5
15
20
26
6
22
21
2

> <PUBCHEM_MMFF94_PARTIAL_CHARGES>
21
1 -0.34
10 -0.52
11 -0.52
12 -0.52
13 0.8
14 0.8
15 0.8
16 0.8
17 0.82
18 0.82
19 0.28
2 -0.34
20 0.28
21 0.56
3 -0.56
4 -0.56
5 -0.52
6 -0.52
7 -0.52
8 -0.52
9 -0.52

> <PUBCHEM_EFFECTIVE_ROTOR_COUNT>
10

> <PUBCHEM_PHARMACOPHORE_FEATURES>
14
1 10 acceptor
1 11 acceptor
1 12 acceptor
1 3 acceptor
1 4 acceptor
1 5 acceptor
1 5 anion
1 6 acceptor
1 6 anion
1 7 acceptor
1 7 anion
1 8 acceptor
1 8 anion
1 9 acceptor

> <PUBCHEM_HEAVY_ATOM_COUNT>
21

> <PUBCHEM_ATOM_DEF_STEREO_COUNT>
0

> <PUBCHEM_ATOM_UDEF_STEREO_COUNT>
0

> <PUBCHEM_BOND_DEF_STEREO_COUNT>
0

> <PUBCHEM_BOND_UDEF_STEREO_COUNT>
0

> <PUBCHEM_ISOTOPIC_ATOM_COUNT>
0

> <PUBCHEM_COMPONENT_COUNT>
1

> <PUBCHEM_CACTVS_TAUTO_COUNT>
1

> <PUBCHEM_CONFORMER_ID>
0001537400000001

> <PUBCHEM_MMFF94_ENERGY>
43.6434

> <PUBCHEM_FEATURE_SELFOVERLAP>
71.418

> <PUBCHEM_SHAPE_FINGERPRINT>
10064457 181 17775003518215505334
10366900 7 17346878965856789900
11132069 177 18337096938903285500
11552529 35 17488449952745520703
12403259 327 17275110522065368359
12553582 1 17967524688128314340
12596599 1 18409725200903743739
12616999 72 15068344510184084512
12633257 1 17489308564010562106
12670546 177 13190348984160535700
12707595 3 17822010925572965924
13533116 47 17704072867898421599
14251745 187 18337110077662411694
14252887 29 18333736823053544348
15238133 3 16988298468874848984
15375462 189 17821725074061516724
16752209 62 18115578241245954501
20291156 8 17967533471325969660
20442098 301 18408878542690604372
20645477 70 18041557056869086333
21713013 43 15430042079828777627
22169311 14 17489588965192493332
23503958 8 17917711331143966015
23559900 14 18343576361153084060
314173 41 17749397000258095189
3286 77 17417800756020020486
351380 180 15985106275942493841

> <PUBCHEM_SHAPE_MULTIPOLES>
339.01
9.05
1.85
1.67
0.45
0.5
-0.6
-2.69
-0.89
-0.18
0.59
-0.01
-0.46
0.24

> <PUBCHEM_SHAPE_SELFOVERLAP>
677.407

> <PUBCHEM_SHAPE_VOLUME>
199.5

> <PUBCHEM_COORDINATE_TYPE>
2
5
10

$$$$
