143446
  -OEChem-11012401113D

 22 22  0     0  0  0  0  0  0999 V2000
    2.1696   -0.0003    0.0005 N   0  3  0  0  0  0  0  0  0  0  0  0
    0.0892    1.2082   -0.0010 C   0  0  0  0  0  0  0  0  0  0  0  0
    0.0889   -1.2079   -0.0003 C   0  0  0  0  0  0  0  0  0  0  0  0
   -2.0032    0.0006    0.0001 C   0  0  0  0  0  0  0  0  0  0  0  0
    0.7866    0.0000   -0.0009 C   0  0  0  0  0  0  0  0  0  0  0  0
   -1.3056    1.2085   -0.0004 C   0  0  0  0  0  0  0  0  0  0  0  0
   -1.3060   -1.2076    0.0002 C   0  0  0  0  0  0  0  0  0  0  0  0
    0.8155    2.5132    0.0002 C   0  0  0  0  0  0  0  0  0  0  0  0
    0.8142   -2.5134   -0.0005 C   0  0  0  0  0  0  0  0  0  0  0  0
   -3.4944   -0.0006    0.0011 C   0  0  0  0  0  0  0  0  0  0  0  0
    3.3450   -0.0009    0.0011 C   0  5  0  0  0  0  0  0  0  0  0  0
   -1.8534    2.1479   -0.0020 H   0  0  0  0  0  0  0  0  0  0  0  0
   -1.8544   -2.1467   -0.0013 H   0  0  0  0  0  0  0  0  0  0  0  0
    1.4393    2.6036    0.8954 H   0  0  0  0  0  0  0  0  0  0  0  0
    1.4446    2.6024   -0.8917 H   0  0  0  0  0  0  0  0  0  0  0  0
    0.1254    3.3640   -0.0026 H   0  0  0  0  0  0  0  0  0  0  0  0
    1.4407   -2.6035   -0.8940 H   0  0  0  0  0  0  0  0  0  0  0  0
    1.4406   -2.6038    0.8931 H   0  0  0  0  0  0  0  0  0  0  0  0
    0.1235   -3.3637   -0.0006 H   0  0  0  0  0  0  0  0  0  0  0  0
   -3.8882   -0.8701    0.5383 H   0  0  0  0  0  0  0  0  0  0  0  0
   -3.8910    0.8900    0.5006 H   0  0  0  0  0  0  0  0  0  0  0  0
   -3.8706   -0.0224   -1.0264 H   0  0  0  0  0  0  0  0  0  0  0  0
  1  5  1  0  0  0  0
  1 11  3  0  0  0  0
  2  5  2  0  0  0  0
  2  6  1  0  0  0  0
  2  8  1  0  0  0  0
  3  5  1  0  0  0  0
  3  7  2  0  0  0  0
  3  9  1  0  0  0  0
  4  6  2  0  0  0  0
  4  7  1  0  0  0  0
  4 10  1  0  0  0  0
  6 12  1  0  0  0  0
  7 13  1  0  0  0  0
  8 14  1  0  0  0  0
  8 15  1  0  0  0  0
  8 16  1  0  0  0  0
  9 17  1  0  0  0  0
  9 18  1  0  0  0  0
  9 19  1  0  0  0  0
 10 20  1  0  0  0  0
 10 21  1  0  0  0  0
 10 22  1  0  0  0  0
M  CHG  2   1   1  11  -1
M  END
> <PUBCHEM_COMPOUND_CID>
143446

> <PUBCHEM_CONFORMER_RMSD>
0.4

> <PUBCHEM_CONFORMER_DIVERSEORDER>
1

> <PUBCHEM_MMFF94_PARTIAL_CHARGES>
13
1 0.23
10 0.14
11 -0.37
12 0.15
13 0.15
2 -0.14
3 -0.14
4 -0.14
5 0.14
6 -0.15
7 -0.15
8 0.14
9 0.14

> <PUBCHEM_EFFECTIVE_ROTOR_COUNT>
0

> <PUBCHEM_PHARMACOPHORE_FEATURES>
1
6 2 3 4 5 6 7 rings

> <PUBCHEM_HEAVY_ATOM_COUNT>
11

> <PUBCHEM_ATOM_DEF_STEREO_COUNT>
0

> <PUBCHEM_ATOM_UDEF_STEREO_COUNT>
0

> <PUBCHEM_BOND_DEF_STEREO_COUNT>
0

> <PUBCHEM_BOND_UDEF_STEREO_COUNT>
0

> <PUBCHEM_ISOTOPIC_ATOM_COUNT>
0

> <PUBCHEM_COMPONENT_COUNT>
1

> <PUBCHEM_CACTVS_TAUTO_COUNT>
1

> <PUBCHEM_CONFORMER_ID>
0002305600000001

> <PUBCHEM_MMFF94_ENERGY>
25.2042

> <PUBCHEM_FEATURE_SELFOVERLAP>
5.074

> <PUBCHEM_SHAPE_FINGERPRINT>
10219947 1 18410294709261299643
12032990 46 18410864239089138398
14993402 34 18410013264486607668
161256 15 18125731075639734214
16945 1 18410575089221783815
193761 8 17689997838692908324
20201158 50 18407759222932147795
20511035 2 18047479103541668767
20588541 1 18335143076834367795
20645476 183 17750533934268295742
21040471 1 17906452482504766597
21501502 16 17979356361035241306
23235685 24 18409725162333070139
2334 1 17978511167495750415
23402539 116 18271795818364833078
23402655 69 18195509421667219341
23463225 33 18335135341740751090
23552423 10 17829609809514984364
23559900 14 18342463677693794836
241688 4 17905893578362779883
2748010 2 18120936376119132311
5084963 1 18130787927194648259
528886 8 18411414024951771995
53812653 166 18342172237411801537

> <PUBCHEM_SHAPE_MULTIPOLES>
221.39
3.99
2.33
0.61
0.34
0
0
0
0
-0.69
0
0.02
0
0

> <PUBCHEM_SHAPE_SELFOVERLAP>
456.672

> <PUBCHEM_SHAPE_VOLUME>
130

> <PUBCHEM_COORDINATE_TYPE>
2
5
10

$$$$
