69337
  -OEChem-11012400543D

 16 15  0     0  0  0  0  0  0999 V2000
   -0.8681    1.3595    0.0003 O   0  0  0  0  0  0  0  0  0  0  0  0
    1.9336    1.1757    0.0002 O   0  0  0  0  0  0  0  0  0  0  0  0
    0.4098   -0.5912   -0.0010 N   0  0  0  0  0  0  0  0  0  0  0  0
   -1.8903   -0.7270    0.0000 N   0  0  0  0  0  0  0  0  0  0  0  0
   -0.7927    0.1318   -0.0005 C   0  0  0  0  0  0  0  0  0  0  0  0
    1.6828   -0.0276   -0.0006 C   0  0  0  0  0  0  0  0  0  0  0  0
   -3.2595   -0.2655    0.0006 C   0  0  0  0  0  0  0  0  0  0  0  0
    2.7845   -1.0557    0.0010 C   0  0  0  0  0  0  0  0  0  0  0  0
    0.3384   -1.6052    0.0012 H   0  0  0  0  0  0  0  0  0  0  0  0
   -1.7249   -1.7280   -0.0346 H   0  0  0  0  0  0  0  0  0  0  0  0
   -3.3228    0.7742    0.3303 H   0  0  0  0  0  0  0  0  0  0  0  0
   -3.8378   -0.9059    0.6707 H   0  0  0  0  0  0  0  0  0  0  0  0
   -3.6501   -0.3545   -1.0161 H   0  0  0  0  0  0  0  0  0  0  0  0
    3.7479   -0.5661   -0.1655 H   0  0  0  0  0  0  0  0  0  0  0  0
    2.8032   -1.5679    0.9668 H   0  0  0  0  0  0  0  0  0  0  0  0
    2.6180   -1.7858   -0.7961 H   0  0  0  0  0  0  0  0  0  0  0  0
  1  5  2  0  0  0  0
  2  6  2  0  0  0  0
  3  5  1  0  0  0  0
  3  6  1  0  0  0  0
  3  9  1  0  0  0  0
  4  5  1  0  0  0  0
  4  7  1  0  0  0  0
  4 10  1  0  0  0  0
  6  8  1  0  0  0  0
  7 11  1  0  0  0  0
  7 12  1  0  0  0  0
  7 13  1  0  0  0  0
  8 14  1  0  0  0  0
  8 15  1  0  0  0  0
  8 16  1  0  0  0  0
M  END
> <PUBCHEM_COMPOUND_CID>
69337

> <PUBCHEM_CONFORMER_RMSD>
0.6

> <PUBCHEM_CONFORMER_DIVERSEORDER>
1
2
3

> <PUBCHEM_MMFF94_PARTIAL_CHARGES>
10
1 -0.57
10 0.37
2 -0.57
3 -0.49
4 -0.73
5 0.69
6 0.57
7 0.3
8 0.06
9 0.37

> <PUBCHEM_EFFECTIVE_ROTOR_COUNT>
3

> <PUBCHEM_PHARMACOPHORE_FEATURES>
4
1 1 acceptor
1 2 acceptor
1 3 donor
1 4 donor

> <PUBCHEM_HEAVY_ATOM_COUNT>
8

> <PUBCHEM_ATOM_DEF_STEREO_COUNT>
0

> <PUBCHEM_ATOM_UDEF_STEREO_COUNT>
0

> <PUBCHEM_BOND_DEF_STEREO_COUNT>
0

> <PUBCHEM_BOND_UDEF_STEREO_COUNT>
0

> <PUBCHEM_ISOTOPIC_ATOM_COUNT>
0

> <PUBCHEM_COMPONENT_COUNT>
1

> <PUBCHEM_CACTVS_TAUTO_COUNT>
5

> <PUBCHEM_CONFORMER_ID>
00010ED900000001

> <PUBCHEM_MMFF94_ENERGY>
8.7873

> <PUBCHEM_FEATURE_SELFOVERLAP>
20.351

> <PUBCHEM_SHAPE_FINGERPRINT>
12932764 1 16950554489471845131
14325111 11 18410574015538099011
23552423 10 18260550017388048230
29004967 10 18262241130827822705
5084963 1 18343582910835330922
5460574 1 9295292741753191331

> <PUBCHEM_SHAPE_MULTIPOLES>
142.94
4.59
1.16
0.57
1.32
0.26
0
-1.16
0
-0.36
0
0
-0.02
0

> <PUBCHEM_SHAPE_SELFOVERLAP>
264.389

> <PUBCHEM_SHAPE_VOLUME>
90.2

> <PUBCHEM_COORDINATE_TYPE>
2
5
10

$$$$
