5463078
  -OEChem-11012401113D

 21 20  0     0  0  0  0  0  0999 V2000
    1.7369    0.4403   -0.0247 O   0  0  0  0  0  0  0  0  0  0  0  0
    0.3620   -1.4093   -0.1150 O   0  0  0  0  0  0  0  0  0  0  0  0
   -0.5558    0.8450   -0.2739 C   0  0  0  0  0  0  0  0  0  0  0  0
    2.8758   -0.4136    0.1253 C   0  0  0  0  0  0  0  0  0  0  0  0
    0.5327   -0.1980   -0.1347 C   0  0  0  0  0  0  0  0  0  0  0  0
   -1.8930    0.1913   -0.4401 C   0  0  0  0  0  0  0  0  0  0  0  0
    4.1213    0.4400    0.2331 C   0  0  0  0  0  0  0  0  0  0  0  0
   -2.9229    0.3762    0.3986 C   0  0  0  0  0  0  0  0  0  0  0  0
   -4.2571   -0.2720    0.2314 C   0  0  0  0  0  0  0  0  0  0  0  0
   -0.5344    1.4879    0.6127 H   0  0  0  0  0  0  0  0  0  0  0  0
   -0.3463    1.4518   -1.1613 H   0  0  0  0  0  0  0  0  0  0  0  0
    2.7619   -1.0182    1.0319 H   0  0  0  0  0  0  0  0  0  0  0  0
    2.9539   -1.0742   -0.7453 H   0  0  0  0  0  0  0  0  0  0  0  0
   -2.0225   -0.4529   -1.3069 H   0  0  0  0  0  0  0  0  0  0  0  0
    5.0131   -0.1822    0.3490 H   0  0  0  0  0  0  0  0  0  0  0  0
    4.2391    1.0642   -0.6589 H   0  0  0  0  0  0  0  0  0  0  0  0
    4.0502    1.1192    1.0891 H   0  0  0  0  0  0  0  0  0  0  0  0
   -2.8032    1.0267    1.2609 H   0  0  0  0  0  0  0  0  0  0  0  0
   -5.0334    0.4931    0.1351 H   0  0  0  0  0  0  0  0  0  0  0  0
   -4.4856   -0.8854    1.1082 H   0  0  0  0  0  0  0  0  0  0  0  0
   -4.2992   -0.9140   -0.6542 H   0  0  0  0  0  0  0  0  0  0  0  0
  1  4  1  0  0  0  0
  1  5  1  0  0  0  0
  2  5  2  0  0  0  0
  3  5  1  0  0  0  0
  3  6  1  0  0  0  0
  3 10  1  0  0  0  0
  3 11  1  0  0  0  0
  4  7  1  0  0  0  0
  4 12  1  0  0  0  0
  4 13  1  0  0  0  0
  6  8  2  0  0  0  0
  6 14  1  0  0  0  0
  7 15  1  0  0  0  0
  7 16  1  0  0  0  0
  7 17  1  0  0  0  0
  8  9  1  0  0  0  0
  8 18  1  0  0  0  0
  9 19  1  0  0  0  0
  9 20  1  0  0  0  0
  9 21  1  0  0  0  0
M  END
> <PUBCHEM_COMPOUND_CID>
5463078

> <PUBCHEM_CONFORMER_RMSD>
0.6

> <PUBCHEM_CONFORMER_DIVERSEORDER>
1
27
3
25
21
30
4
9
34
22
5
14
11
31
2
6
24
28
20
7
16
32
33
18
29
15
12
8
19
13
17
10
23
26

> <PUBCHEM_MMFF94_PARTIAL_CHARGES>
10
1 -0.43
14 0.15
18 0.15
2 -0.57
3 0.2
4 0.28
5 0.66
6 -0.29
8 -0.29
9 0.14

> <PUBCHEM_EFFECTIVE_ROTOR_COUNT>
4

> <PUBCHEM_PHARMACOPHORE_FEATURES>
2
1 2 acceptor
1 9 hydrophobe

> <PUBCHEM_HEAVY_ATOM_COUNT>
9

> <PUBCHEM_ATOM_DEF_STEREO_COUNT>
0

> <PUBCHEM_ATOM_UDEF_STEREO_COUNT>
0

> <PUBCHEM_BOND_DEF_STEREO_COUNT>
1

> <PUBCHEM_BOND_UDEF_STEREO_COUNT>
0

> <PUBCHEM_ISOTOPIC_ATOM_COUNT>
0

> <PUBCHEM_COMPONENT_COUNT>
1

> <PUBCHEM_CACTVS_TAUTO_COUNT>
1

> <PUBCHEM_CONFORMER_ID>
00535C2600000001

> <PUBCHEM_MMFF94_ENERGY>
1.9284

> <PUBCHEM_FEATURE_SELFOVERLAP>
10.148

> <PUBCHEM_SHAPE_FINGERPRINT>
10219947 1 18260269646128209973
11062470 55 11818995179617331509
12932764 1 16701723965602735020
14325111 11 18410572851533331596
18342897 14 18343866614705207777
22485316 2 17822006506420591115
23402539 116 16298378076946332895

> <PUBCHEM_SHAPE_MULTIPOLES>
173.48
7.51
0.94
0.66
0.06
0.15
0
-0.24
-1.26
0.1
0.03
-0.11
-0.02
0.06

> <PUBCHEM_SHAPE_SELFOVERLAP>
317.162

> <PUBCHEM_SHAPE_VOLUME>
110.6

> <PUBCHEM_COORDINATE_TYPE>
2
5
10

$$$$
