74685
  -OEChem-11012400403D

 14 14  0     0  0  0  0  0  0999 V2000
    1.6212   -2.7188   -0.0003 Cl  0  0  0  0  0  0  0  0  0  0  0  0
    1.6210    2.7190   -0.0001 Cl  0  0  0  0  0  0  0  0  0  0  0  0
    2.8499    0.0000    0.0001 O   0  0  0  0  0  0  0  0  0  0  0  0
   -3.8961    0.0000   -0.0001 N   0  0  0  0  0  0  0  0  0  0  0  0
    1.4847    0.0000    0.0001 C   0  0  0  0  0  0  0  0  0  0  0  0
   -1.3053   -0.0001    0.0001 C   0  0  0  0  0  0  0  0  0  0  0  0
    0.7871   -1.2080    0.0002 C   0  0  0  0  0  0  0  0  0  0  0  0
    0.7871    1.2080    0.0000 C   0  0  0  0  0  0  0  0  0  0  0  0
   -0.6078   -1.2080    0.0002 C   0  0  0  0  0  0  0  0  0  0  0  0
   -0.6078    1.2079   -0.0001 C   0  0  0  0  0  0  0  0  0  0  0  0
   -2.7340    0.0000    0.0000 C   0  0  0  0  0  0  0  0  0  0  0  0
   -1.1525   -2.1503    0.0002 H   0  0  0  0  0  0  0  0  0  0  0  0
   -1.1526    2.1502   -0.0002 H   0  0  0  0  0  0  0  0  0  0  0  0
    3.1577    0.9229   -0.0001 H   0  0  0  0  0  0  0  0  0  0  0  0
  1  7  1  0  0  0  0
  2  8  1  0  0  0  0
  3  5  1  0  0  0  0
  3 14  1  0  0  0  0
  4 11  3  0  0  0  0
  5  7  2  0  0  0  0
  5  8  1  0  0  0  0
  6  9  2  0  0  0  0
  6 10  1  0  0  0  0
  6 11  1  0  0  0  0
  7  9  1  0  0  0  0
  8 10  2  0  0  0  0
  9 12  1  0  0  0  0
 10 13  1  0  0  0  0
M  END
> <PUBCHEM_COMPOUND_CID>
74685

> <PUBCHEM_CONFORMER_RMSD>
0.4

> <PUBCHEM_CONFORMER_DIVERSEORDER>
1

> <PUBCHEM_MMFF94_PARTIAL_CHARGES>
14
1 -0.18
10 -0.15
11 0.48
12 0.15
13 0.15
14 0.45
2 -0.18
3 -0.53
4 -0.56
5 0.08
6 0.07
7 0.18
8 0.18
9 -0.15

> <PUBCHEM_EFFECTIVE_ROTOR_COUNT>
0

> <PUBCHEM_PHARMACOPHORE_FEATURES>
3
1 3 donor
1 4 acceptor
6 5 6 7 8 9 10 rings

> <PUBCHEM_HEAVY_ATOM_COUNT>
11

> <PUBCHEM_ATOM_DEF_STEREO_COUNT>
0

> <PUBCHEM_ATOM_UDEF_STEREO_COUNT>
0

> <PUBCHEM_BOND_DEF_STEREO_COUNT>
0

> <PUBCHEM_BOND_UDEF_STEREO_COUNT>
0

> <PUBCHEM_ISOTOPIC_ATOM_COUNT>
0

> <PUBCHEM_COMPONENT_COUNT>
1

> <PUBCHEM_CACTVS_TAUTO_COUNT>
2

> <PUBCHEM_CONFORMER_ID>
000123BD00000001

> <PUBCHEM_MMFF94_ENERGY>
19.4756

> <PUBCHEM_FEATURE_SELFOVERLAP>
15.223

> <PUBCHEM_SHAPE_FINGERPRINT>
1 1 18338233872491414877
11471102 20 18410006624699257125
12423570 1 9294726398807131519
13380535 76 18051970613036788300
13380536 305 18338804523521878716
14325111 11 18266458896355910113
161256 15 18196653999642747342
16945 1 18410856559718910853
193761 8 17762338016083415876
20201158 50 18334858303380841691
20511035 2 17971762326459264626
20588541 1 18334299759779009834
20645477 70 18410004434730504207
20871998 22 18054511296472086398
21040471 1 17978511171622230948
2334 1 17978511167210913793
23402655 69 18267569244713883653
23552423 10 18340484560188275135
241688 4 17906173953738192008
2748010 2 18048603903958002030
528886 8 18339356469589499304
7364860 26 18412826884518962176
81228 2 17402609645424514720

> <PUBCHEM_SHAPE_MULTIPOLES>
219.26
4.02
2.67
0.61
3.91
0
0
0
0
-2.44
0
-0.02
0
0

> <PUBCHEM_SHAPE_SELFOVERLAP>
444.162

> <PUBCHEM_SHAPE_VOLUME>
128.8

> <PUBCHEM_COORDINATE_TYPE>
2
5
10

$$$$
