5332974
  -OEChem-11012401033D

 39 40  0     0  0  0  0  0  0999 V2000
   -3.0857   -0.8665   -0.7801 O   0  0  0  0  0  0  0  0  0  0  0  0
   -3.0823    0.8760    0.7795 O   0  0  0  0  0  0  0  0  0  0  0  0
   -1.5388   -2.5070   -1.8666 O   0  5  0  0  0  0  0  0  0  0  0  0
   -1.5279    2.5083    1.8678 O   0  5  0  0  0  0  0  0  0  0  0  0
   -1.5621   -2.4023   -0.5951 N   0  3  0  0  0  0  0  0  0  0  0  0
   -1.5540    2.4073    0.5961 N   0  3  0  0  0  0  0  0  0  0  0  0
   -2.2892   -1.6208    0.0963 N   0  0  0  0  0  0  0  0  0  0  0  0
   -2.2841    1.6295   -0.0961 N   0  0  0  0  0  0  0  0  0  0  0  0
    0.6340   -2.5739    0.4678 C   0  0  0  0  0  0  0  0  0  0  0  0
    0.6425    2.5723   -0.4671 C   0  0  0  0  0  0  0  0  0  0  0  0
   -0.6698   -3.2602    0.1950 C   0  0  0  0  0  0  0  0  0  0  0  0
   -0.6587    3.2630   -0.1930 C   0  0  0  0  0  0  0  0  0  0  0  0
    1.6916   -2.7208   -0.4244 C   0  0  0  0  0  0  0  0  0  0  0  0
    1.7007    2.7139    0.4251 C   0  0  0  0  0  0  0  0  0  0  0  0
    0.7783   -1.7948    1.6115 C   0  0  0  0  0  0  0  0  0  0  0  0
    0.7836    1.7944   -1.6120 C   0  0  0  0  0  0  0  0  0  0  0  0
    2.9055   -2.0822   -0.1703 C   0  0  0  0  0  0  0  0  0  0  0  0
    2.9123    2.0713    0.1698 C   0  0  0  0  0  0  0  0  0  0  0  0
    1.9921   -1.1562    1.8657 C   0  0  0  0  0  0  0  0  0  0  0  0
    1.9949    1.1516   -1.8673 C   0  0  0  0  0  0  0  0  0  0  0  0
    3.0557   -1.3000    0.9746 C   0  0  0  0  0  0  0  0  0  0  0  0
    3.0593    1.2901   -0.9764 C   0  0  0  0  0  0  0  0  0  0  0  0
   -3.8978    0.0069   -0.0008 C   0  0  0  0  0  0  0  0  0  0  0  0
   -0.5158   -4.1918   -0.3630 H   0  0  0  0  0  0  0  0  0  0  0  0
   -1.1783   -3.5382    1.1266 H   0  0  0  0  0  0  0  0  0  0  0  0
   -1.1665    3.5443   -1.1241 H   0  0  0  0  0  0  0  0  0  0  0  0
   -0.5012    4.1933    0.3663 H   0  0  0  0  0  0  0  0  0  0  0  0
    1.5858   -3.3263   -1.3203 H   0  0  0  0  0  0  0  0  0  0  0  0
    1.5974    3.3186    1.3219 H   0  0  0  0  0  0  0  0  0  0  0  0
   -0.0433   -1.6744    2.3123 H   0  0  0  0  0  0  0  0  0  0  0  0
   -0.0386    1.6780   -2.3128 H   0  0  0  0  0  0  0  0  0  0  0  0
    3.7344   -2.1958   -0.8629 H   0  0  0  0  0  0  0  0  0  0  0  0
    3.7416    2.1808    0.8623 H   0  0  0  0  0  0  0  0  0  0  0  0
    2.1097   -0.5479    2.7576 H   0  0  0  0  0  0  0  0  0  0  0  0
    2.1099    0.5441   -2.7602 H   0  0  0  0  0  0  0  0  0  0  0  0
    4.0042   -0.8120    1.1788 H   0  0  0  0  0  0  0  0  0  0  0  0
    4.0059    0.7988   -1.1814 H   0  0  0  0  0  0  0  0  0  0  0  0
   -4.5367    0.5931   -0.6698 H   0  0  0  0  0  0  0  0  0  0  0  0
   -4.5402   -0.5764    0.6675 H   0  0  0  0  0  0  0  0  0  0  0  0
  1  7  1  0  0  0  0
  1 23  1  0  0  0  0
  2  8  1  0  0  0  0
  2 23  1  0  0  0  0
  3  5  1  0  0  0  0
  4  6  1  0  0  0  0
  5  7  2  0  0  0  0
  5 11  1  0  0  0  0
  6  8  2  0  0  0  0
  6 12  1  0  0  0  0
  9 11  1  0  0  0  0
  9 13  2  0  0  0  0
  9 15  1  0  0  0  0
 10 12  1  0  0  0  0
 10 14  2  0  0  0  0
 10 16  1  0  0  0  0
 11 24  1  0  0  0  0
 11 25  1  0  0  0  0
 12 26  1  0  0  0  0
 12 27  1  0  0  0  0
 13 17  1  0  0  0  0
 13 28  1  0  0  0  0
 14 18  1  0  0  0  0
 14 29  1  0  0  0  0
 15 19  2  0  0  0  0
 15 30  1  0  0  0  0
 16 20  2  0  0  0  0
 16 31  1  0  0  0  0
 17 21  2  0  0  0  0
 17 32  1  0  0  0  0
 18 22  2  0  0  0  0
 18 33  1  0  0  0  0
 19 21  1  0  0  0  0
 19 34  1  0  0  0  0
 20 22  1  0  0  0  0
 20 35  1  0  0  0  0
 21 36  1  0  0  0  0
 22 37  1  0  0  0  0
 23 38  1  0  0  0  0
 23 39  1  0  0  0  0
M  CHG  4   3  -1   4  -1   5   1   6   1
M  END
> <PUBCHEM_COMPOUND_CID>
5332974

> <PUBCHEM_CONFORMER_RMSD>
1

> <PUBCHEM_CONFORMER_DIVERSEORDER>
1
149
179
214
26
62
442
495
138
56
28
424
515
150
2
83
317
5
440
112
127
75
435
18
72
443
370
95
555
39
564
298
376
32
378
65
61
559
4
473
324
31
456
36
27
136
23
253
33
174
411
188
49
567
6
30
3
427
434
8
96
268
246
288
218
166
238
356
222
25
116
109
126
130
60
321
206
202
106
384
172
22
108
237
373
110
84
428
272
142
59
78
215
20
228
414
35
42
82
89
86
13
12
97
16
245
153
299
287
79
41
331
7
52
147
40
565
529
10
258
44
257
263

> <PUBCHEM_MMFF94_PARTIAL_CHARGES>
33
1 -0.22
10 -0.14
11 0.24
12 0.24
13 -0.15
14 -0.15
15 -0.15
16 -0.15
17 -0.15
18 -0.15
19 -0.15
2 -0.22
20 -0.15
21 -0.15
22 -0.15
23 0.56
28 0.15
29 0.15
3 -0.63
30 0.15
31 0.15
32 0.15
33 0.15
34 0.15
35 0.15
36 0.15
37 0.15
4 -0.63
5 0.74
6 0.74
7 -0.27
8 -0.27
9 -0.14

> <PUBCHEM_EFFECTIVE_ROTOR_COUNT>
8

> <PUBCHEM_PHARMACOPHORE_FEATURES>
4
1 3 anion
1 4 anion
6 10 14 16 18 20 22 rings
6 9 13 15 17 19 21 rings

> <PUBCHEM_HEAVY_ATOM_COUNT>
23

> <PUBCHEM_ATOM_DEF_STEREO_COUNT>
0

> <PUBCHEM_ATOM_UDEF_STEREO_COUNT>
0

> <PUBCHEM_BOND_DEF_STEREO_COUNT>
2

> <PUBCHEM_BOND_UDEF_STEREO_COUNT>
0

> <PUBCHEM_ISOTOPIC_ATOM_COUNT>
0

> <PUBCHEM_COMPONENT_COUNT>
1

> <PUBCHEM_CACTVS_TAUTO_COUNT>
1

> <PUBCHEM_CONFORMER_ID>
00515FEE00000001

> <PUBCHEM_MMFF94_ENERGY>
47.2804

> <PUBCHEM_FEATURE_SELFOVERLAP>
20.298

> <PUBCHEM_SHAPE_FINGERPRINT>
10498660 4 17904757778635661815
10708813 3 18268432317500289056
12403259 226 15745006669446779745
12633257 1 16324274521494890369
13122387 1 17976819779061901190
13402501 40 15743876375055222287
14114207 22 15601364837663233251
14931854 50 18048878786144135431
17492 54 17824849766307274270
17977149 70 17261327899357556006
19930381 70 16610547333311139470
20765182 5 18338783616127432384
20905425 154 18338239370028558799
2803657 2 18336250345104398246
35225 105 17127300828764943556
3524813 1 16963211229712206734
5282274 181 17692822484133535673
57091435 65 18410018723216019491
58250162 1 18268986651870581944
6287921 2 18055923090839641899
9925002 15 18269815636325063535

> <PUBCHEM_SHAPE_MULTIPOLES>
429.93
5.13
5.06
1.6
2.59
0.01
0
-0.01
-0.01
-0.47
0.01
-0.35
0
-1.48

> <PUBCHEM_SHAPE_SELFOVERLAP>
895.647

> <PUBCHEM_SHAPE_VOLUME>
242.8

> <PUBCHEM_COORDINATE_TYPE>
2
5
10

$$$$
