84932
  -OEChem-11012401133D

 23 22  0     0  0  0  0  0  0999 V2000
   -0.5834    0.6943    0.4840 O   0  0  0  0  0  0  0  0  0  0  0  0
    0.5973    0.1237   -0.1485 O   0  0  0  0  0  0  0  0  0  0  0  0
    3.1483   -0.9942    0.1146 O   0  0  0  0  0  0  0  0  0  0  0  0
   -1.6783   -0.0786   -0.0093 C   0  0  0  0  0  0  0  0  0  0  0  0
   -1.4624   -1.5376    0.3903 C   0  0  0  0  0  0  0  0  0  0  0  0
   -2.9530    0.4702    0.6280 C   0  0  0  0  0  0  0  0  0  0  0  0
   -1.7315    0.0678   -1.5293 C   0  0  0  0  0  0  0  0  0  0  0  0
    1.6888    0.8900    0.3397 C   0  0  0  0  0  0  0  0  0  0  0  0
    2.9742    0.3643   -0.2696 C   0  0  0  0  0  0  0  0  0  0  0  0
   -0.5946   -1.9849   -0.1068 H   0  0  0  0  0  0  0  0  0  0  0  0
   -1.2848   -1.6233    1.4686 H   0  0  0  0  0  0  0  0  0  0  0  0
   -2.3347   -2.1496    0.1356 H   0  0  0  0  0  0  0  0  0  0  0  0
   -3.0859    1.5302    0.3826 H   0  0  0  0  0  0  0  0  0  0  0  0
   -2.8986    0.4104    1.7210 H   0  0  0  0  0  0  0  0  0  0  0  0
   -3.8410   -0.0766    0.2947 H   0  0  0  0  0  0  0  0  0  0  0  0
   -0.8613   -0.3778   -2.0238 H   0  0  0  0  0  0  0  0  0  0  0  0
   -2.6239   -0.4157   -1.9415 H   0  0  0  0  0  0  0  0  0  0  0  0
   -1.7484    1.1251   -1.8178 H   0  0  0  0  0  0  0  0  0  0  0  0
    1.5459    1.9423    0.0726 H   0  0  0  0  0  0  0  0  0  0  0  0
    1.7213    0.7917    1.4306 H   0  0  0  0  0  0  0  0  0  0  0  0
    3.8371    0.9375    0.0800 H   0  0  0  0  0  0  0  0  0  0  0  0
    2.9392    0.4014   -1.3629 H   0  0  0  0  0  0  0  0  0  0  0  0
    2.3669   -1.4862   -0.1905 H   0  0  0  0  0  0  0  0  0  0  0  0
  1  2  1  0  0  0  0
  1  4  1  0  0  0  0
  2  8  1  0  0  0  0
  3  9  1  0  0  0  0
  3 23  1  0  0  0  0
  4  5  1  0  0  0  0
  4  6  1  0  0  0  0
  4  7  1  0  0  0  0
  5 10  1  0  0  0  0
  5 11  1  0  0  0  0
  5 12  1  0  0  0  0
  6 13  1  0  0  0  0
  6 14  1  0  0  0  0
  6 15  1  0  0  0  0
  7 16  1  0  0  0  0
  7 17  1  0  0  0  0
  7 18  1  0  0  0  0
  8  9  1  0  0  0  0
  8 19  1  0  0  0  0
  8 20  1  0  0  0  0
  9 21  1  0  0  0  0
  9 22  1  0  0  0  0
M  END
> <PUBCHEM_COMPOUND_CID>
84932

> <PUBCHEM_CONFORMER_RMSD>
0.6

> <PUBCHEM_CONFORMER_DIVERSEORDER>
1
4
2
8
6
7
3
5

> <PUBCHEM_MMFF94_PARTIAL_CHARGES>
7
1 -0.28
2 -0.28
23 0.4
3 -0.68
4 0.28
8 0.28
9 0.28

> <PUBCHEM_EFFECTIVE_ROTOR_COUNT>
4

> <PUBCHEM_PHARMACOPHORE_FEATURES>
3
1 3 acceptor
1 3 donor
4 4 5 6 7 hydrophobe

> <PUBCHEM_HEAVY_ATOM_COUNT>
9

> <PUBCHEM_ATOM_DEF_STEREO_COUNT>
0

> <PUBCHEM_ATOM_UDEF_STEREO_COUNT>
0

> <PUBCHEM_BOND_DEF_STEREO_COUNT>
0

> <PUBCHEM_BOND_UDEF_STEREO_COUNT>
0

> <PUBCHEM_ISOTOPIC_ATOM_COUNT>
0

> <PUBCHEM_COMPONENT_COUNT>
1

> <PUBCHEM_CACTVS_TAUTO_COUNT>
1

> <PUBCHEM_CONFORMER_ID>
00014BC400000001

> <PUBCHEM_MMFF94_ENERGY>
13.9963

> <PUBCHEM_FEATURE_SELFOVERLAP>
15.223

> <PUBCHEM_SHAPE_FINGERPRINT>
11062470 55 12679461967471967929
12932764 1 17458336468418004616
14325111 11 18411140255172692608
23235685 24 18411136926615184235
23380061 50 14189565330335984874
23552423 10 18189336938601029626
3248919 1 18339633546799449016
369184 2 18059574728048435401

> <PUBCHEM_SHAPE_MULTIPOLES>
167.61
4.99
1.14
0.98
3.14
0.42
0.38
0.14
-0.2
-0.03
-0.17
-0.61
-0.09
0.03

> <PUBCHEM_SHAPE_SELFOVERLAP>
301.603

> <PUBCHEM_SHAPE_VOLUME>
110.2

> <PUBCHEM_COORDINATE_TYPE>
2
5
10

$$$$
