101925421
  -OEChem-11012401143D

 46 47  0     0  0  0  0  0  0999 V2000
    0.3471   -2.3520   -1.6863 O   0  0  0  0  0  0  0  0  0  0  0  0
   -0.5184   -0.9403    2.1089 O   0  0  0  0  0  0  0  0  0  0  0  0
    3.0546   -1.5318    0.0699 O   0  0  0  0  0  0  0  0  0  0  0  0
    0.0226   -3.1448    0.4503 O   0  0  0  0  0  0  0  0  0  0  0  0
    1.7089   -0.4339    2.3392 O   0  0  0  0  0  0  0  0  0  0  0  0
    2.5352    0.2674   -1.2666 O   0  0  0  0  0  0  0  0  0  0  0  0
   -0.1769    0.2743   -0.6049 C   0  0  0  0  0  0  0  0  0  0  0  0
    0.7703   -0.8071    0.0893 C   0  0  0  0  0  0  0  0  0  0  0  0
   -1.6856    0.0986   -0.3962 C   0  0  0  0  0  0  0  0  0  0  0  0
    0.2317    1.7490   -0.4685 C   0  0  0  0  0  0  0  0  0  0  0  0
    0.3322   -2.2467   -0.3201 C   0  0  0  0  0  0  0  0  0  0  0  0
    0.7427   -0.6987    1.6352 C   0  0  0  0  0  0  0  0  0  0  0  0
    2.2075   -0.5999   -0.4669 C   0  0  0  0  0  0  0  0  0  0  0  0
   -2.3144    0.7056    0.6907 C   0  0  0  0  0  0  0  0  0  0  0  0
    0.9317    2.1770    0.6594 C   0  0  0  0  0  0  0  0  0  0  0  0
   -2.4293   -0.6682   -1.2933 C   0  0  0  0  0  0  0  0  0  0  0  0
   -0.0972    2.6598   -1.4724 C   0  0  0  0  0  0  0  0  0  0  0  0
   -3.6870    0.5461    0.8807 C   0  0  0  0  0  0  0  0  0  0  0  0
    1.3029    3.5158    0.7835 C   0  0  0  0  0  0  0  0  0  0  0  0
   -3.8020   -0.8278   -1.1034 C   0  0  0  0  0  0  0  0  0  0  0  0
    0.2741    3.9988   -1.3486 C   0  0  0  0  0  0  0  0  0  0  0  0
   -4.4308   -0.2206   -0.0164 C   0  0  0  0  0  0  0  0  0  0  0  0
    0.9741    4.4266   -0.2206 C   0  0  0  0  0  0  0  0  0  0  0  0
   -0.0354   -3.6268   -2.2115 C   0  0  0  0  0  0  0  0  0  0  0  0
   -0.6751   -0.8687    3.5299 C   0  0  0  0  0  0  0  0  0  0  0  0
    4.4165   -1.4517   -0.3616 C   0  0  0  0  0  0  0  0  0  0  0  0
   -0.0325    0.0987   -1.6847 H   0  0  0  0  0  0  0  0  0  0  0  0
   -1.7651    1.3120    1.4047 H   0  0  0  0  0  0  0  0  0  0  0  0
    1.1908    1.5580    1.4939 H   0  0  0  0  0  0  0  0  0  0  0  0
   -1.9633   -1.1357   -2.1552 H   0  0  0  0  0  0  0  0  0  0  0  0
   -0.6422    2.3408   -2.3569 H   0  0  0  0  0  0  0  0  0  0  0  0
   -4.1769    1.0193    1.7267 H   0  0  0  0  0  0  0  0  0  0  0  0
    1.8402    3.8524    1.6654 H   0  0  0  0  0  0  0  0  0  0  0  0
   -4.3818   -1.4217   -1.8038 H   0  0  0  0  0  0  0  0  0  0  0  0
    0.0176    4.7081   -2.1300 H   0  0  0  0  0  0  0  0  0  0  0  0
   -5.4997   -0.3440    0.1311 H   0  0  0  0  0  0  0  0  0  0  0  0
    1.2614    5.4695   -0.1229 H   0  0  0  0  0  0  0  0  0  0  0  0
    0.6652   -4.3980   -1.8778 H   0  0  0  0  0  0  0  0  0  0  0  0
   -1.0568   -3.8728   -1.9058 H   0  0  0  0  0  0  0  0  0  0  0  0
   -0.0007   -3.5688   -3.3026 H   0  0  0  0  0  0  0  0  0  0  0  0
   -0.4331    0.1371    3.8862 H   0  0  0  0  0  0  0  0  0  0  0  0
   -0.0430   -1.6161    4.0185 H   0  0  0  0  0  0  0  0  0  0  0  0
   -1.7204   -1.0831    3.7673 H   0  0  0  0  0  0  0  0  0  0  0  0
    4.4804   -1.6056   -1.4429 H   0  0  0  0  0  0  0  0  0  0  0  0
    4.8460   -0.4852   -0.0816 H   0  0  0  0  0  0  0  0  0  0  0  0
    4.9788   -2.2440    0.1395 H   0  0  0  0  0  0  0  0  0  0  0  0
  1 11  1  0  0  0  0
  1 24  1  0  0  0  0
  2 12  1  0  0  0  0
  2 25  1  0  0  0  0
  3 13  1  0  0  0  0
  3 26  1  0  0  0  0
  4 11  2  0  0  0  0
  5 12  2  0  0  0  0
  6 13  2  0  0  0  0
  7  8  1  0  0  0  0
  7  9  1  0  0  0  0
  7 10  1  0  0  0  0
  7 27  1  0  0  0  0
  8 11  1  0  0  0  0
  8 12  1  0  0  0  0
  8 13  1  0  0  0  0
  9 14  2  0  0  0  0
  9 16  1  0  0  0  0
 10 15  2  0  0  0  0
 10 17  1  0  0  0  0
 14 18  1  0  0  0  0
 14 28  1  0  0  0  0
 15 19  1  0  0  0  0
 15 29  1  0  0  0  0
 16 20  2  0  0  0  0
 16 30  1  0  0  0  0
 17 21  2  0  0  0  0
 17 31  1  0  0  0  0
 18 22  2  0  0  0  0
 18 32  1  0  0  0  0
 19 23  2  0  0  0  0
 19 33  1  0  0  0  0
 20 22  1  0  0  0  0
 20 34  1  0  0  0  0
 21 23  1  0  0  0  0
 21 35  1  0  0  0  0
 22 36  1  0  0  0  0
 23 37  1  0  0  0  0
 24 38  1  0  0  0  0
 24 39  1  0  0  0  0
 24 40  1  0  0  0  0
 25 41  1  0  0  0  0
 25 42  1  0  0  0  0
 25 43  1  0  0  0  0
 26 44  1  0  0  0  0
 26 45  1  0  0  0  0
 26 46  1  0  0  0  0
M  END
> <PUBCHEM_COMPOUND_CID>
101925421

> <PUBCHEM_CONFORMER_RMSD>
1

> <PUBCHEM_CONFORMER_DIVERSEORDER>
1
12
15
18
2
20
7
13
19
10
4
3
8
9
11
14
17
6
5
16

> <PUBCHEM_MMFF94_PARTIAL_CHARGES>
36
1 -0.43
10 -0.14
11 0.66
12 0.66
13 0.66
14 -0.15
15 -0.15
16 -0.15
17 -0.15
18 -0.15
19 -0.15
2 -0.43
20 -0.15
21 -0.15
22 -0.15
23 -0.15
24 0.28
25 0.28
26 0.28
28 0.15
29 0.15
3 -0.43
30 0.15
31 0.15
32 0.15
33 0.15
34 0.15
35 0.15
36 0.15
37 0.15
4 -0.57
5 -0.57
6 -0.57
7 0.29
8 0.18
9 -0.14

> <PUBCHEM_EFFECTIVE_ROTOR_COUNT>
9

> <PUBCHEM_PHARMACOPHORE_FEATURES>
5
1 4 acceptor
1 5 acceptor
1 6 acceptor
6 10 15 17 19 21 23 rings
6 9 14 16 18 20 22 rings

> <PUBCHEM_HEAVY_ATOM_COUNT>
26

> <PUBCHEM_ATOM_DEF_STEREO_COUNT>
0

> <PUBCHEM_ATOM_UDEF_STEREO_COUNT>
0

> <PUBCHEM_BOND_DEF_STEREO_COUNT>
0

> <PUBCHEM_BOND_UDEF_STEREO_COUNT>
0

> <PUBCHEM_ISOTOPIC_ATOM_COUNT>
0

> <PUBCHEM_COMPONENT_COUNT>
1

> <PUBCHEM_CACTVS_TAUTO_COUNT>
3

> <PUBCHEM_CONFORMER_ID>
0613422D00000001

> <PUBCHEM_MMFF94_ENERGY>
88.5845

> <PUBCHEM_FEATURE_SELFOVERLAP>
25.373

> <PUBCHEM_SHAPE_FINGERPRINT>
11578080 2 16192564629315330995
12788726 201 18189054188478351450
13134695 92 18334297573693449485
13140716 1 18266736887951139684
13149001 5 17969236679319861635
13965767 371 16907534782854420529
14713325 29 17765154973711801526
14787075 74 17894354392934594406
14955137 171 18197807473202414621
15420108 30 18124000629364522109
1601671 61 18268713797241783589
16945 1 18041275453032897614
17492 54 18335991959834870364
18981168 100 17615432662433302493
20600515 1 17846501435112103110
20691752 17 18268125648240326962
21330990 113 17915182312755441314
21524375 3 17758108581588946069
22149856 69 17987798640439905191
23419403 2 17754208523138838625
23558518 356 17178829840743523760
238 59 18123210127653365077
2748010 2 18123155001584941444
283562 15 18191028889749577566
3060560 45 18340195375787434015
34934 24 18047194051358789029
350125 39 17543929248062357940
5845 1 17910143246517694780
81228 2 17540566537645889109
9981440 41 17474947005180157889

> <PUBCHEM_SHAPE_MULTIPOLES>
499.85
4.94
4.72
2.28
2.98
0.78
-1.79
1.31
0.74
-3.75
2
0.57
-1
-0.61

> <PUBCHEM_SHAPE_SELFOVERLAP>
1060.83

> <PUBCHEM_SHAPE_VOLUME>
273.7

> <PUBCHEM_COORDINATE_TYPE>
2
5
10

$$$$
