137940
  -OEChem-11012401213D

 22 22  0     0  0  0  0  0  0999 V2000
    2.5217    0.0945   -0.0568 C   0  0  0  0  0  0  0  0  0  0  0  0
    1.6226    1.1403   -0.7327 C   0  0  0  0  0  0  0  0  0  0  0  0
   -1.6224   -1.1403   -0.7327 C   0  0  0  0  0  0  0  0  0  0  0  0
   -2.5218   -0.0942   -0.0581 C   0  0  0  0  0  0  0  0  0  0  0  0
    1.8883   -1.2196    0.3162 C   0  0  0  0  0  0  0  0  0  0  0  0
    0.6503    1.7882    0.2119 C   0  0  0  0  0  0  0  0  0  0  0  0
   -0.6505   -1.7878    0.2126 C   0  0  0  0  0  0  0  0  0  0  0  0
   -1.8881    1.2190    0.3178 C   0  0  0  0  0  0  0  0  0  0  0  0
    0.6233   -1.5221    0.2611 C   0  0  0  0  0  0  0  0  0  0  0  0
   -0.6233    1.5221    0.2606 C   0  0  0  0  0  0  0  0  0  0  0  0
    2.9796    0.5248    0.8429 H   0  0  0  0  0  0  0  0  0  0  0  0
    3.3475   -0.1312   -0.7437 H   0  0  0  0  0  0  0  0  0  0  0  0
    1.1004    0.7002   -1.5913 H   0  0  0  0  0  0  0  0  0  0  0  0
    2.2623    1.9337   -1.1397 H   0  0  0  0  0  0  0  0  0  0  0  0
   -1.0997   -0.7006   -1.5911 H   0  0  0  0  0  0  0  0  0  0  0  0
   -2.2618   -1.9339   -1.1397 H   0  0  0  0  0  0  0  0  0  0  0  0
   -2.9821   -0.5250    0.8402 H   0  0  0  0  0  0  0  0  0  0  0  0
   -3.3459    0.1329   -0.7466 H   0  0  0  0  0  0  0  0  0  0  0  0
    2.5677   -1.9756    0.7018 H   0  0  0  0  0  0  0  0  0  0  0  0
    1.0563    2.4964    0.9288 H   0  0  0  0  0  0  0  0  0  0  0  0
   -1.0567   -2.4954    0.9299 H   0  0  0  0  0  0  0  0  0  0  0  0
   -2.5670    1.9739    0.7064 H   0  0  0  0  0  0  0  0  0  0  0  0
  1  2  1  0  0  0  0
  1  5  1  0  0  0  0
  1 11  1  0  0  0  0
  1 12  1  0  0  0  0
  2  6  1  0  0  0  0
  2 13  1  0  0  0  0
  2 14  1  0  0  0  0
  3  4  1  0  0  0  0
  3  7  1  0  0  0  0
  3 15  1  0  0  0  0
  3 16  1  0  0  0  0
  4  8  1  0  0  0  0
  4 17  1  0  0  0  0
  4 18  1  0  0  0  0
  5  9  2  0  0  0  0
  5 19  1  0  0  0  0
  6 10  2  0  0  0  0
  6 20  1  0  0  0  0
  7  9  2  0  0  0  0
  7 21  1  0  0  0  0
  8 10  2  0  0  0  0
  8 22  1  0  0  0  0
M  END
> <PUBCHEM_COMPOUND_CID>
137940

> <PUBCHEM_CONFORMER_RMSD>
0.4

> <PUBCHEM_CONFORMER_DIVERSEORDER>
1
6
7
2
4
5
3

> <PUBCHEM_MMFF94_PARTIAL_CHARGES>
14
1 0.14
10 -0.13
19 0.15
2 0.14
20 0.15
21 0.15
22 0.15
3 0.14
4 0.14
5 -0.22
6 -0.22
7 -0.22
8 -0.22
9 -0.13

> <PUBCHEM_EFFECTIVE_ROTOR_COUNT>
0.8

> <PUBCHEM_PHARMACOPHORE_FEATURES>
0

> <PUBCHEM_HEAVY_ATOM_COUNT>
10

> <PUBCHEM_ATOM_DEF_STEREO_COUNT>
0

> <PUBCHEM_ATOM_UDEF_STEREO_COUNT>
0

> <PUBCHEM_BOND_DEF_STEREO_COUNT>
0

> <PUBCHEM_BOND_UDEF_STEREO_COUNT>
0

> <PUBCHEM_ISOTOPIC_ATOM_COUNT>
0

> <PUBCHEM_COMPONENT_COUNT>
1

> <PUBCHEM_CACTVS_TAUTO_COUNT>
1

> <PUBCHEM_CONFORMER_ID>
00021AD400000001

> <PUBCHEM_MMFF94_ENERGY>
7.2174

> <PUBCHEM_FEATURE_SELFOVERLAP>
0

> <PUBCHEM_SHAPE_FINGERPRINT>
14251711 518 18192988210458574075
15775835 57 18411428284280228237
16945 1 18410574023806156804
18185500 45 18338794507441639155
22802520 49 18057348126987704878
23552423 10 18192711369883334221
241688 4 18049158865383061786
2748010 2 16177070787981738054
2897 32 18408887321471855908
528862 383 18260553286042731505
63268167 104 18335978692512113167
66348 1 18194402427103346688

> <PUBCHEM_SHAPE_MULTIPOLES>
205.8
3.29
2.28
0.77
0
0
-0.07
0
-0.19
0
0.16
0
0
-0.42

> <PUBCHEM_SHAPE_SELFOVERLAP>
403.184

> <PUBCHEM_SHAPE_VOLUME>
117.1

> <PUBCHEM_COORDINATE_TYPE>
2
5
10

$$$$
