138706
  -OEChem-11012401003D

 31 30  0     0  0  0  0  0  0999 V2000
    3.6460   -0.8224   -0.5401 O   0  0  0  0  0  0  0  0  0  0  0  0
   -2.6398   -0.0114    1.4317 O   0  0  0  0  0  0  0  0  0  0  0  0
   -0.0068    0.0727    0.0463 C   0  0  0  0  0  0  0  0  0  0  0  0
    1.2561   -0.6661   -0.4102 C   0  0  0  0  0  0  0  0  0  0  0  0
   -1.2703   -0.6284   -0.4747 C   0  0  0  0  0  0  0  0  0  0  0  0
    2.5920   -0.0113   -0.0032 C   0  0  0  0  0  0  0  0  0  0  0  0
   -2.5948    0.0028    0.0035 C   0  0  0  0  0  0  0  0  0  0  0  0
    2.7786    0.0451    1.5143 C   0  0  0  0  0  0  0  0  0  0  0  0
    2.7631    1.3818   -0.6103 C   0  0  0  0  0  0  0  0  0  0  0  0
   -3.7798   -0.8201   -0.5125 C   0  0  0  0  0  0  0  0  0  0  0  0
   -2.7444    1.4573   -0.4447 C   0  0  0  0  0  0  0  0  0  0  0  0
   -0.0265    0.1126    1.1396 H   0  0  0  0  0  0  0  0  0  0  0  0
    0.0154    1.1012   -0.3251 H   0  0  0  0  0  0  0  0  0  0  0  0
    1.2345   -1.6949   -0.0257 H   0  0  0  0  0  0  0  0  0  0  0  0
    1.2375   -0.7731   -1.5036 H   0  0  0  0  0  0  0  0  0  0  0  0
   -1.2470   -0.6491   -1.5717 H   0  0  0  0  0  0  0  0  0  0  0  0
   -1.2375   -1.6716   -0.1329 H   0  0  0  0  0  0  0  0  0  0  0  0
    3.7830    0.4005    1.7727 H   0  0  0  0  0  0  0  0  0  0  0  0
    2.0520    0.7075    1.9944 H   0  0  0  0  0  0  0  0  0  0  0  0
    2.6831   -0.9543    1.9533 H   0  0  0  0  0  0  0  0  0  0  0  0
    3.7731    1.7677   -0.4279 H   0  0  0  0  0  0  0  0  0  0  0  0
    2.6383    1.3498   -1.6987 H   0  0  0  0  0  0  0  0  0  0  0  0
    2.0503    2.1028   -0.1991 H   0  0  0  0  0  0  0  0  0  0  0  0
   -3.7221   -1.8533   -0.1513 H   0  0  0  0  0  0  0  0  0  0  0  0
   -4.7280   -0.4167   -0.1389 H   0  0  0  0  0  0  0  0  0  0  0  0
   -3.8150   -0.8356   -1.6066 H   0  0  0  0  0  0  0  0  0  0  0  0
   -2.6734    1.5508   -1.5333 H   0  0  0  0  0  0  0  0  0  0  0  0
   -1.9888    2.1053    0.0114 H   0  0  0  0  0  0  0  0  0  0  0  0
   -3.7131    1.8618   -0.1281 H   0  0  0  0  0  0  0  0  0  0  0  0
    4.4960   -0.4288   -0.2789 H   0  0  0  0  0  0  0  0  0  0  0  0
   -2.0197    0.6561    1.7693 H   0  0  0  0  0  0  0  0  0  0  0  0
  1  6  1  0  0  0  0
  1 30  1  0  0  0  0
  2  7  1  0  0  0  0
  2 31  1  0  0  0  0
  3  4  1  0  0  0  0
  3  5  1  0  0  0  0
  3 12  1  0  0  0  0
  3 13  1  0  0  0  0
  4  6  1  0  0  0  0
  4 14  1  0  0  0  0
  4 15  1  0  0  0  0
  5  7  1  0  0  0  0
  5 16  1  0  0  0  0
  5 17  1  0  0  0  0
  6  8  1  0  0  0  0
  6  9  1  0  0  0  0
  7 10  1  0  0  0  0
  7 11  1  0  0  0  0
  8 18  1  0  0  0  0
  8 19  1  0  0  0  0
  8 20  1  0  0  0  0
  9 21  1  0  0  0  0
  9 22  1  0  0  0  0
  9 23  1  0  0  0  0
 10 24  1  0  0  0  0
 10 25  1  0  0  0  0
 10 26  1  0  0  0  0
 11 27  1  0  0  0  0
 11 28  1  0  0  0  0
 11 29  1  0  0  0  0
M  END
> <PUBCHEM_COMPOUND_CID>
138706

> <PUBCHEM_CONFORMER_RMSD>
0.6

> <PUBCHEM_CONFORMER_DIVERSEORDER>
3
13
5
1
7
6
9
10
8
2
12
4
11

> <PUBCHEM_MMFF94_PARTIAL_CHARGES>
6
1 -0.68
2 -0.68
30 0.4
31 0.4
6 0.28
7 0.28

> <PUBCHEM_EFFECTIVE_ROTOR_COUNT>
4

> <PUBCHEM_PHARMACOPHORE_FEATURES>
6
1 1 acceptor
1 1 donor
1 2 acceptor
1 2 donor
3 6 8 9 hydrophobe
3 7 10 11 hydrophobe

> <PUBCHEM_HEAVY_ATOM_COUNT>
11

> <PUBCHEM_ATOM_DEF_STEREO_COUNT>
0

> <PUBCHEM_ATOM_UDEF_STEREO_COUNT>
0

> <PUBCHEM_BOND_DEF_STEREO_COUNT>
0

> <PUBCHEM_BOND_UDEF_STEREO_COUNT>
0

> <PUBCHEM_ISOTOPIC_ATOM_COUNT>
0

> <PUBCHEM_COMPONENT_COUNT>
1

> <PUBCHEM_CACTVS_TAUTO_COUNT>
1

> <PUBCHEM_CONFORMER_ID>
00021DD200000003

> <PUBCHEM_MMFF94_ENERGY>
23.2511

> <PUBCHEM_FEATURE_SELFOVERLAP>
30.446

> <PUBCHEM_SHAPE_FINGERPRINT>
11062470 55 11891330954444996639
12162725 195 18260545623626065469
12932764 1 17489303100759206319
14144814 61 17458060452070349049
14325111 11 18411981364345815663
14390081 3 16917065564070346827
18186145 218 17060622200302511440
190213 19 18131630088534629335
20528008 55 16877938369328407275
20645477 70 14274002317206279730
20711983 171 18409451353852208965
21028194 46 17988923370527468767
3248919 1 17530964665893343211
8030462 33 17312819359797880039

> <PUBCHEM_SHAPE_MULTIPOLES>
214.64
7.15
1.18
1.09
0.53
0.51
-0.43
-0.1
0.12
0.08
0.2
-0.26
-0.12
-0.13

> <PUBCHEM_SHAPE_SELFOVERLAP>
395.603

> <PUBCHEM_SHAPE_VOLUME>
138

> <PUBCHEM_COORDINATE_TYPE>
2
5
10

$$$$
