39493
  -OEChem-11012401213D

 13 13  0     0  0  0  0  0  0999 V2000
   -1.2947    1.4700    0.0000 O   0  0  0  0  0  0  0  0  0  0  0  0
   -2.9494   -0.0930    0.0001 O   0  5  0  0  0  0  0  0  0  0  0  0
    2.2721   -1.2355   -0.0001 O   0  5  0  0  0  0  0  0  0  0  0  0
    2.6486    0.9315   -0.0002 O   0  0  0  0  0  0  0  0  0  0  0  0
   -1.7144    0.1053   -0.0004 N   0  3  0  0  0  0  0  0  0  0  0  0
    0.0954    1.4742    0.0003 N   0  0  0  0  0  0  0  0  0  0  0  0
    1.8474   -0.0455    0.0002 N   0  3  0  0  0  0  0  0  0  0  0  0
   -0.6316   -0.6710   -0.0002 C   0  0  0  0  0  0  0  0  0  0  0  0
    0.4673    0.1945    0.0001 C   0  0  0  0  0  0  0  0  0  0  0  0
   -0.7407   -2.1304    0.0002 C   0  0  0  0  0  0  0  0  0  0  0  0
   -0.2540   -2.5515   -0.8856 H   0  0  0  0  0  0  0  0  0  0  0  0
   -0.2551   -2.5510    0.8868 H   0  0  0  0  0  0  0  0  0  0  0  0
   -1.7797   -2.4746   -0.0004 H   0  0  0  0  0  0  0  0  0  0  0  0
  1  5  1  0  0  0  0
  1  6  1  0  0  0  0
  2  5  1  0  0  0  0
  3  7  1  0  0  0  0
  4  7  2  0  0  0  0
  5  8  2  0  0  0  0
  6  9  2  0  0  0  0
  7  9  1  0  0  0  0
  8  9  1  0  0  0  0
  8 10  1  0  0  0  0
 10 11  1  0  0  0  0
 10 12  1  0  0  0  0
 10 13  1  0  0  0  0
M  CHG  4   2  -1   3  -1   5   1   7   1
M  END
> <PUBCHEM_COMPOUND_CID>
39493

> <PUBCHEM_CONFORMER_RMSD>
0.4

> <PUBCHEM_CONFORMER_DIVERSEORDER>
1

> <PUBCHEM_MMFF94_PARTIAL_CHARGES>
10
1 -0.12
10 0.18
2 -0.63
3 -0.52
4 -0.52
5 0.95
6 -0.41
7 0.96
8 -0.26
9 0.37

> <PUBCHEM_EFFECTIVE_ROTOR_COUNT>
1

> <PUBCHEM_PHARMACOPHORE_FEATURES>
5
1 2 anion
1 3 acceptor
1 4 acceptor
3 6 7 9 cation
5 1 5 6 8 9 rings

> <PUBCHEM_HEAVY_ATOM_COUNT>
10

> <PUBCHEM_ATOM_DEF_STEREO_COUNT>
0

> <PUBCHEM_ATOM_UDEF_STEREO_COUNT>
0

> <PUBCHEM_BOND_DEF_STEREO_COUNT>
0

> <PUBCHEM_BOND_UDEF_STEREO_COUNT>
0

> <PUBCHEM_ISOTOPIC_ATOM_COUNT>
0

> <PUBCHEM_COMPONENT_COUNT>
1

> <PUBCHEM_CACTVS_TAUTO_COUNT>
1

> <PUBCHEM_CONFORMER_ID>
00009A4500000001

> <PUBCHEM_MMFF94_ENERGY>
12.9042

> <PUBCHEM_FEATURE_SELFOVERLAP>
25.452

> <PUBCHEM_SHAPE_FINGERPRINT>
14325111 11 18410855447565117221
16714656 1 18410012139131225463
16945 1 18338517550765418020
18185500 45 18264770041899946622
21040471 1 18410856546886762976
23552423 10 18261678047704249166
2748010 2 18337670789367841444
29004967 10 18261680362575466936
5084963 1 18130222632083659754

> <PUBCHEM_SHAPE_MULTIPOLES>
167.38
3.26
1.76
0.54
0.51
0.51
0
-0.16
0
-0.17
0
-0.01
0.03
0

> <PUBCHEM_SHAPE_SELFOVERLAP>
342.965

> <PUBCHEM_SHAPE_VOLUME>
97.6

> <PUBCHEM_COORDINATE_TYPE>
2
5
10

$$$$
