5937514
  -OEChem-11012400463D

 25 25  0     0  0  0  0  0  0999 V2000
   -3.7283    0.8484    1.1331 O   0  0  0  0  0  0  0  0  0  0  0  0
    0.0845   -0.8113    0.0095 N   0  0  0  0  0  0  0  0  0  0  0  0
   -0.9566    0.0405    0.0449 N   0  0  0  0  0  0  0  0  0  0  0  0
    1.4029   -0.3277    0.0016 C   0  0  0  0  0  0  0  0  0  0  0  0
   -2.1393   -0.4867    0.0499 C   0  0  0  0  0  0  0  0  0  0  0  0
    2.4786   -1.2174   -0.0715 C   0  0  0  0  0  0  0  0  0  0  0  0
    1.6482    1.0471    0.0671 C   0  0  0  0  0  0  0  0  0  0  0  0
    3.7881   -0.7369   -0.0787 C   0  0  0  0  0  0  0  0  0  0  0  0
    2.9577    1.5277    0.0597 C   0  0  0  0  0  0  0  0  0  0  0  0
   -3.2850    0.4859    0.0543 C   0  0  0  0  0  0  0  0  0  0  0  0
    4.0276    0.6356   -0.0132 C   0  0  0  0  0  0  0  0  0  0  0  0
   -2.4930   -1.9456    0.0253 C   0  0  0  0  0  0  0  0  0  0  0  0
   -3.7855    0.9405   -1.2822 C   0  0  0  0  0  0  0  0  0  0  0  0
    2.3065   -2.2898   -0.1231 H   0  0  0  0  0  0  0  0  0  0  0  0
    0.8399    1.7714    0.1258 H   0  0  0  0  0  0  0  0  0  0  0  0
   -0.0497   -1.8142   -0.0359 H   0  0  0  0  0  0  0  0  0  0  0  0
    4.6213   -1.4314   -0.1353 H   0  0  0  0  0  0  0  0  0  0  0  0
    3.1448    2.5964    0.1110 H   0  0  0  0  0  0  0  0  0  0  0  0
   -3.5770   -2.0782    0.0820 H   0  0  0  0  0  0  0  0  0  0  0  0
   -2.1341   -2.3947   -0.9046 H   0  0  0  0  0  0  0  0  0  0  0  0
   -2.0369   -2.4522    0.8801 H   0  0  0  0  0  0  0  0  0  0  0  0
    5.0472    1.0098   -0.0188 H   0  0  0  0  0  0  0  0  0  0  0  0
   -4.6284    1.6229   -1.1423 H   0  0  0  0  0  0  0  0  0  0  0  0
   -4.1240    0.0786   -1.8626 H   0  0  0  0  0  0  0  0  0  0  0  0
   -2.9899    1.4668   -1.8151 H   0  0  0  0  0  0  0  0  0  0  0  0
  1 10  2  0  0  0  0
  2  3  1  0  0  0  0
  2  4  1  0  0  0  0
  2 16  1  0  0  0  0
  3  5  2  0  0  0  0
  4  6  2  0  0  0  0
  4  7  1  0  0  0  0
  5 10  1  0  0  0  0
  5 12  1  0  0  0  0
  6  8  1  0  0  0  0
  6 14  1  0  0  0  0
  7  9  2  0  0  0  0
  7 15  1  0  0  0  0
  8 11  2  0  0  0  0
  8 17  1  0  0  0  0
  9 11  1  0  0  0  0
  9 18  1  0  0  0  0
 10 13  1  0  0  0  0
 11 22  1  0  0  0  0
 12 19  1  0  0  0  0
 12 20  1  0  0  0  0
 12 21  1  0  0  0  0
 13 23  1  0  0  0  0
 13 24  1  0  0  0  0
 13 25  1  0  0  0  0
M  END
> <PUBCHEM_COMPOUND_CID>
5937514

> <PUBCHEM_CONFORMER_RMSD>
0.6

> <PUBCHEM_CONFORMER_DIVERSEORDER>
1
9
3
7
5
6
4
8
2

> <PUBCHEM_MMFF94_PARTIAL_CHARGES>
19
1 -0.57
10 0.51
11 -0.15
12 0.06
13 0.06
14 0.15
15 0.15
16 0.4
17 0.15
18 0.15
2 -0.46
22 0.15
3 -0.49
4 0.1
5 0.39
6 -0.15
7 -0.15
8 -0.15
9 -0.15

> <PUBCHEM_EFFECTIVE_ROTOR_COUNT>
3

> <PUBCHEM_PHARMACOPHORE_FEATURES>
4
1 1 acceptor
1 2 donor
1 3 acceptor
6 4 6 7 8 9 11 rings

> <PUBCHEM_HEAVY_ATOM_COUNT>
13

> <PUBCHEM_ATOM_DEF_STEREO_COUNT>
0

> <PUBCHEM_ATOM_UDEF_STEREO_COUNT>
0

> <PUBCHEM_BOND_DEF_STEREO_COUNT>
1

> <PUBCHEM_BOND_UDEF_STEREO_COUNT>
0

> <PUBCHEM_ISOTOPIC_ATOM_COUNT>
0

> <PUBCHEM_COMPONENT_COUNT>
1

> <PUBCHEM_CACTVS_TAUTO_COUNT>
2

> <PUBCHEM_CONFORMER_ID>
005A996A00000001

> <PUBCHEM_MMFF94_ENERGY>
38.0573

> <PUBCHEM_FEATURE_SELFOVERLAP>
20.298

> <PUBCHEM_SHAPE_FINGERPRINT>
10014705 185 18260542342629630685
10608611 8 18337105773667012876
11471102 20 18411696574203004604
11543360 7 15841543119696720536
12500047 106 18260822704882939263
12932764 1 17749382659214457651
13675066 3 17603871082786478019
13922767 16 18411975854356487920
14144814 61 18341896276977699178
14252887 29 12107777498454722416
14325111 11 18411419557064827898
14415576 193 18410015472405785460
15442244 35 18125726686425523466
18186145 218 18410578374798055146
1986462 14 18410577318252061191
20279233 1 18260545619251833934
20645477 56 18259983773595585765
20645477 70 18272373031878757918
23402539 116 16200430243659110520
23402655 69 18341894099846154444
23559900 14 18343301453750957658
3248919 1 17775290451773622535
3545911 37 18411420630579681641
4028521 119 18187917353410635093
5104073 3 18410574024265269066
77779 3 18411141363253272818
93112 12 18411698798442240918

> <PUBCHEM_SHAPE_MULTIPOLES>
251.7
8.49
1.59
0.81
1.07
0.29
-0.05
-1.74
-0.35
0.1
-0.04
0.74
-0.19
0.24

> <PUBCHEM_SHAPE_SELFOVERLAP>
511.874

> <PUBCHEM_SHAPE_VOLUME>
146.5

> <PUBCHEM_COORDINATE_TYPE>
2
5
10

$$$$
