30386
  -OEChem-11012400563D

 18 19  0     0  0  0  0  0  0999 V2000
   -1.7012    2.1811    0.0000 O   0  0  0  0  0  0  0  0  0  0  0  0
    2.7004   -0.3522   -0.0002 N   0  0  0  0  0  0  0  0  0  0  0  0
    0.0098    0.4772    0.0001 C   0  0  0  0  0  0  0  0  0  0  0  0
    0.3299   -0.8962    0.0001 C   0  0  0  0  0  0  0  0  0  0  0  0
   -1.3403    0.8641   -0.0001 C   0  0  0  0  0  0  0  0  0  0  0  0
   -0.6983   -1.8531    0.0002 C   0  0  0  0  0  0  0  0  0  0  0  0
    1.0488    1.4151    0.0002 C   0  0  0  0  0  0  0  0  0  0  0  0
   -2.3541   -0.0956   -0.0001 C   0  0  0  0  0  0  0  0  0  0  0  0
   -2.0338   -1.4512   -0.0001 C   0  0  0  0  0  0  0  0  0  0  0  0
    1.6826   -1.2424    0.0000 C   0  0  0  0  0  0  0  0  0  0  0  0
    2.3563    0.9533   -0.0001 C   0  0  0  0  0  0  0  0  0  0  0  0
   -0.4659   -2.9156    0.0002 H   0  0  0  0  0  0  0  0  0  0  0  0
    0.8879    2.4870    0.0143 H   0  0  0  0  0  0  0  0  0  0  0  0
   -3.3975    0.2085   -0.0002 H   0  0  0  0  0  0  0  0  0  0  0  0
    1.9980   -2.2822    0.0000 H   0  0  0  0  0  0  0  0  0  0  0  0
   -2.8243   -2.1960   -0.0002 H   0  0  0  0  0  0  0  0  0  0  0  0
    3.1893    1.6490    0.0033 H   0  0  0  0  0  0  0  0  0  0  0  0
   -0.9935    2.7313   -0.3687 H   0  0  0  0  0  0  0  0  0  0  0  0
  1  5  1  0  0  0  0
  1 18  1  0  0  0  0
  2 10  2  0  0  0  0
  2 11  1  0  0  0  0
  3  4  2  0  0  0  0
  3  5  1  0  0  0  0
  3  7  1  0  0  0  0
  4  6  1  0  0  0  0
  4 10  1  0  0  0  0
  5  8  2  0  0  0  0
  6  9  2  0  0  0  0
  6 12  1  0  0  0  0
  7 11  2  0  0  0  0
  7 13  1  0  0  0  0
  8  9  1  0  0  0  0
  8 14  1  0  0  0  0
  9 16  1  0  0  0  0
 10 15  1  0  0  0  0
 11 17  1  0  0  0  0
M  END
> <PUBCHEM_COMPOUND_CID>
30386

> <PUBCHEM_CONFORMER_RMSD>
0.4

> <PUBCHEM_CONFORMER_DIVERSEORDER>
1

> <PUBCHEM_MMFF94_PARTIAL_CHARGES>
16
1 -0.53
10 0.16
11 0.16
12 0.15
13 0.15
14 0.15
15 0.15
16 0.15
17 0.15
18 0.45
2 -0.62
5 0.08
6 -0.15
7 -0.15
8 -0.15
9 -0.15

> <PUBCHEM_EFFECTIVE_ROTOR_COUNT>
0

> <PUBCHEM_PHARMACOPHORE_FEATURES>
4
1 1 donor
1 2 acceptor
6 2 3 4 7 10 11 rings
6 3 4 5 6 8 9 rings

> <PUBCHEM_HEAVY_ATOM_COUNT>
11

> <PUBCHEM_ATOM_DEF_STEREO_COUNT>
0

> <PUBCHEM_ATOM_UDEF_STEREO_COUNT>
0

> <PUBCHEM_BOND_DEF_STEREO_COUNT>
0

> <PUBCHEM_BOND_UDEF_STEREO_COUNT>
0

> <PUBCHEM_ISOTOPIC_ATOM_COUNT>
0

> <PUBCHEM_COMPONENT_COUNT>
1

> <PUBCHEM_CACTVS_TAUTO_COUNT>
3

> <PUBCHEM_CONFORMER_ID>
000076B200000001

> <PUBCHEM_MMFF94_ENERGY>
33.8787

> <PUBCHEM_FEATURE_SELFOVERLAP>
20.324

> <PUBCHEM_SHAPE_FINGERPRINT>
11206711 2 18410013242816540709
12423570 1 11929380039660628092
12524768 44 18268997646770750599
12897270 3 18338797930546424422
16945 1 18410856589783811846
18185500 45 17979073013415970263
193761 8 18194401083095386471
19973954 147 18410577292429256396
21040471 1 18338798901367327712
23552423 10 18188772880498709614
23559900 14 18055078649901324638
241688 4 18194680599434907851
2748010 2 18194684769668771526
369184 2 18341893034282762747
5084963 1 18202001027430058178
528886 8 18339639074195551219
66348 1 18410009909916598295

> <PUBCHEM_SHAPE_MULTIPOLES>
215.52
3.39
2.05
0.6
0.72
0.3
0
-0.04
0
-0.54
0
-0.01
-0.02
0

> <PUBCHEM_SHAPE_SELFOVERLAP>
476.335

> <PUBCHEM_SHAPE_VOLUME>
115.4

> <PUBCHEM_COORDINATE_TYPE>
2
5
10

$$$$
