11945
  -OEChem-11012400433D

 19 20  0     0  0  0  0  0  0999 V2000
   -3.7685    0.6192    0.0002 O   0  5  0  0  0  0  0  0  0  0  0  0
   -3.2144   -1.5048   -0.0002 O   0  0  0  0  0  0  0  0  0  0  0  0
    2.4943    1.1582    0.0000 N   0  0  0  0  0  0  0  0  0  0  0  0
   -2.9027   -0.2892    0.0001 N   0  3  0  0  0  0  0  0  0  0  0  0
    0.8129   -0.5681    0.0000 C   0  0  0  0  0  0  0  0  0  0  0  0
    1.1995    0.7885   -0.0001 C   0  0  0  0  0  0  0  0  0  0  0  0
   -0.5480   -0.9181    0.0000 C   0  0  0  0  0  0  0  0  0  0  0  0
   -1.5292    0.0692    0.0000 C   0  0  0  0  0  0  0  0  0  0  0  0
    0.1977    1.7551    0.0000 C   0  0  0  0  0  0  0  0  0  0  0  0
   -1.1555    1.4073   -0.0001 C   0  0  0  0  0  0  0  0  0  0  0  0
    1.8211   -1.5415    0.0000 C   0  0  0  0  0  0  0  0  0  0  0  0
    3.1561   -1.1636    0.0001 C   0  0  0  0  0  0  0  0  0  0  0  0
    3.4367    0.1877    0.0001 C   0  0  0  0  0  0  0  0  0  0  0  0
   -0.8146   -1.9736    0.0001 H   0  0  0  0  0  0  0  0  0  0  0  0
    0.4648    2.8104   -0.0001 H   0  0  0  0  0  0  0  0  0  0  0  0
   -1.8873    2.2111   -0.0001 H   0  0  0  0  0  0  0  0  0  0  0  0
    1.5719   -2.6002    0.0001 H   0  0  0  0  0  0  0  0  0  0  0  0
    3.9483   -1.9029    0.0001 H   0  0  0  0  0  0  0  0  0  0  0  0
    4.4620    0.5427    0.0002 H   0  0  0  0  0  0  0  0  0  0  0  0
  1  4  1  0  0  0  0
  2  4  2  0  0  0  0
  3  6  1  0  0  0  0
  3 13  2  0  0  0  0
  4  8  1  0  0  0  0
  5  6  2  0  0  0  0
  5  7  1  0  0  0  0
  5 11  1  0  0  0  0
  6  9  1  0  0  0  0
  7  8  2  0  0  0  0
  7 14  1  0  0  0  0
  8 10  1  0  0  0  0
  9 10  2  0  0  0  0
  9 15  1  0  0  0  0
 10 16  1  0  0  0  0
 11 12  2  0  0  0  0
 11 17  1  0  0  0  0
 12 13  1  0  0  0  0
 12 18  1  0  0  0  0
 13 19  1  0  0  0  0
M  CHG  2   1  -1   4   1
M  END
> <PUBCHEM_COMPOUND_CID>
11945

> <PUBCHEM_CONFORMER_RMSD>
0.4

> <PUBCHEM_CONFORMER_DIVERSEORDER>
1

> <PUBCHEM_MMFF94_PARTIAL_CHARGES>
18
1 -0.52
10 -0.15
11 -0.15
12 -0.15
13 0.16
14 0.15
15 0.15
16 0.15
17 0.15
18 0.15
19 0.15
2 -0.52
3 -0.62
4 0.91
6 0.31
7 -0.15
8 0.13
9 -0.15

> <PUBCHEM_EFFECTIVE_ROTOR_COUNT>
1

> <PUBCHEM_PHARMACOPHORE_FEATURES>
6
1 1 acceptor
1 1 anion
1 2 acceptor
1 3 acceptor
6 3 5 6 11 12 13 rings
6 5 6 7 8 9 10 rings

> <PUBCHEM_HEAVY_ATOM_COUNT>
13

> <PUBCHEM_ATOM_DEF_STEREO_COUNT>
0

> <PUBCHEM_ATOM_UDEF_STEREO_COUNT>
0

> <PUBCHEM_BOND_DEF_STEREO_COUNT>
0

> <PUBCHEM_BOND_UDEF_STEREO_COUNT>
0

> <PUBCHEM_ISOTOPIC_ATOM_COUNT>
0

> <PUBCHEM_COMPONENT_COUNT>
1

> <PUBCHEM_CACTVS_TAUTO_COUNT>
1

> <PUBCHEM_CONFORMER_ID>
00002EA900000001

> <PUBCHEM_MMFF94_ENERGY>
41.1236

> <PUBCHEM_FEATURE_SELFOVERLAP>
30.559

> <PUBCHEM_SHAPE_FINGERPRINT>
10219947 1 18272371970620460622
10608611 8 18409442579170855853
10967382 1 18410855417204979526
11132069 177 18412538808240866762
11471102 20 18410288103564772677
11769659 78 18409724054115658106
11806522 49 18266735973228269439
12032990 46 18410862061561720878
12932764 1 17385714773364772979
14144814 61 18412827975445995243
14325111 11 18410575106190747361
15536298 74 18343865519994643888
16945 1 18410575102117384608
17844478 74 18040438776202467373
18186145 218 17822006497545930247
193761 8 17689997834355704034
20201158 50 18408041796988021571
20645477 70 18411978023246823119
20871998 22 18199192784944859830
21267235 1 18411146830778529463
21501502 16 18266182738406261208
21501925 9 18411127065307112082
23402539 116 18411407411097891982
23402655 69 18411975832707747301
23463225 33 18409730647037968676
23552423 10 18260833648675562396
23559900 14 18267297647935060938
2748010 2 18339074865953875276
3312278 4 18410858763195382913
528886 8 18411976970625972314
53812653 166 18272082855282169432
7364860 26 18269555116573015320
8809292 202 18260272944763690579

> <PUBCHEM_SHAPE_MULTIPOLES>
245.83
5.57
1.72
0.59
1.8
0.12
0
-1.14
0
-0.09
0
-0.06
0
0

> <PUBCHEM_SHAPE_SELFOVERLAP>
541.917

> <PUBCHEM_SHAPE_VOLUME>
132.4

> <PUBCHEM_COORDINATE_TYPE>
2
5
10

$$$$
