21122476
  -OEChem-11012401053D

 58 59  0     1  0  0  0  0  0999 V2000
   -0.6676   -0.5152   -0.4963 C   0  0  2  0  0  0  0  0  0  0  0  0
    0.4757    0.4288    0.1627 C   0  0  1  0  0  0  0  0  0  0  0  0
   -2.0249   -0.2607    0.1564 C   0  0  0  0  0  0  0  0  0  0  0  0
    1.8407   -0.2549    0.1115 C   0  0  0  0  0  0  0  0  0  0  0  0
   -0.3103   -2.0316   -0.3171 C   0  0  0  0  0  0  0  0  0  0  0  0
    0.5786    1.7951   -0.6000 C   0  0  0  0  0  0  0  0  0  0  0  0
   -2.4446    1.2050   -0.0195 C   0  0  0  0  0  0  0  0  0  0  0  0
   -3.0884   -1.2063   -0.4179 C   0  0  0  0  0  0  0  0  0  0  0  0
    2.7115    0.1839    1.2964 C   0  0  0  0  0  0  0  0  0  0  0  0
    2.5437    0.0374   -1.2211 C   0  0  0  0  0  0  0  0  0  0  0  0
   -0.8409   -0.2189   -2.0086 C   0  0  0  0  0  0  0  0  0  0  0  0
    0.1788    0.7135    1.6578 C   0  0  0  0  0  0  0  0  0  0  0  0
   -3.8238    1.4722    0.5789 C   0  0  0  0  0  0  0  0  0  0  0  0
   -4.4666   -0.9350    0.1810 C   0  0  0  0  0  0  0  0  0  0  0  0
    4.1015   -0.4455    1.2383 C   0  0  0  0  0  0  0  0  0  0  0  0
    3.9338   -0.5920   -1.2750 C   0  0  0  0  0  0  0  0  0  0  0  0
   -4.8764    0.5247    0.0120 C   0  0  0  0  0  0  0  0  0  0  0  0
    4.7935   -0.1603   -0.0910 C   0  0  0  0  0  0  0  0  0  0  0  0
   -0.2020   -2.5495    1.1159 C   0  0  0  0  0  0  0  0  0  0  0  0
    1.5876    2.8093   -0.0645 C   0  0  0  0  0  0  0  0  0  0  0  0
   -1.9957   -0.4678    1.2319 H   0  0  0  0  0  0  0  0  0  0  0  0
    1.8274   -1.3337    0.2193 H   0  0  0  0  0  0  0  0  0  0  0  0
   -1.0463   -2.6558   -0.8371 H   0  0  0  0  0  0  0  0  0  0  0  0
    0.5937   -2.2892   -0.8825 H   0  0  0  0  0  0  0  0  0  0  0  0
    0.7796    1.6669   -1.6687 H   0  0  0  0  0  0  0  0  0  0  0  0
   -0.3625    2.3372   -0.6068 H   0  0  0  0  0  0  0  0  0  0  0  0
   -1.8157    1.9341    0.4768 H   0  0  0  0  0  0  0  0  0  0  0  0
   -2.5233    1.4953   -1.0700 H   0  0  0  0  0  0  0  0  0  0  0  0
   -3.2045   -1.1100   -1.4999 H   0  0  0  0  0  0  0  0  0  0  0  0
   -2.8755   -2.2554   -0.1979 H   0  0  0  0  0  0  0  0  0  0  0  0
    2.8593    1.2588    1.3856 H   0  0  0  0  0  0  0  0  0  0  0  0
    2.3066   -0.1739    2.2502 H   0  0  0  0  0  0  0  0  0  0  0  0
    1.9904   -0.3950   -2.0550 H   0  0  0  0  0  0  0  0  0  0  0  0
    2.7178    1.0824   -1.4628 H   0  0  0  0  0  0  0  0  0  0  0  0
    0.0923   -0.3871   -2.5480 H   0  0  0  0  0  0  0  0  0  0  0  0
   -1.5268   -0.9145   -2.5002 H   0  0  0  0  0  0  0  0  0  0  0  0
   -1.1591    0.7901   -2.2711 H   0  0  0  0  0  0  0  0  0  0  0  0
   -0.7706    1.2048    1.8577 H   0  0  0  0  0  0  0  0  0  0  0  0
    0.1521   -0.1936    2.2660 H   0  0  0  0  0  0  0  0  0  0  0  0
    0.8739    1.4063    2.1397 H   0  0  0  0  0  0  0  0  0  0  0  0
   -4.1207    2.5088    0.3810 H   0  0  0  0  0  0  0  0  0  0  0  0
   -3.7786    1.3567    1.6691 H   0  0  0  0  0  0  0  0  0  0  0  0
   -5.2117   -1.5835   -0.2941 H   0  0  0  0  0  0  0  0  0  0  0  0
   -4.4580   -1.1895    1.2483 H   0  0  0  0  0  0  0  0  0  0  0  0
    4.0199   -1.5307    1.3793 H   0  0  0  0  0  0  0  0  0  0  0  0
    4.7162   -0.0653    2.0625 H   0  0  0  0  0  0  0  0  0  0  0  0
    4.4314   -0.3173   -2.2124 H   0  0  0  0  0  0  0  0  0  0  0  0
    3.8399   -1.6853   -1.2762 H   0  0  0  0  0  0  0  0  0  0  0  0
   -5.8362    0.6984    0.5115 H   0  0  0  0  0  0  0  0  0  0  0  0
   -5.0267    0.7407   -1.0530 H   0  0  0  0  0  0  0  0  0  0  0  0
    5.7566   -0.6818   -0.1249 H   0  0  0  0  0  0  0  0  0  0  0  0
    5.0077    0.9128   -0.1678 H   0  0  0  0  0  0  0  0  0  0  0  0
   -0.0493   -3.6350    1.0823 H   0  0  0  0  0  0  0  0  0  0  0  0
    0.6379   -2.1496    1.6827 H   0  0  0  0  0  0  0  0  0  0  0  0
   -1.1193   -2.3879    1.6873 H   0  0  0  0  0  0  0  0  0  0  0  0
    1.4785    3.7340   -0.6463 H   0  0  0  0  0  0  0  0  0  0  0  0
    1.3802    3.0927    0.9706 H   0  0  0  0  0  0  0  0  0  0  0  0
    2.6392    2.5445   -0.1580 H   0  0  0  0  0  0  0  0  0  0  0  0
  1  2  1  0  0  0  0
  1  3  1  0  0  0  0
  1  5  1  0  0  0  0
  1 11  1  0  0  0  0
  2  4  1  0  0  0  0
  2  6  1  0  0  0  0
  2 12  1  0  0  0  0
  3  7  1  0  0  0  0
  3  8  1  0  0  0  0
  3 21  1  0  0  0  0
  4  9  1  0  0  0  0
  4 10  1  0  0  0  0
  4 22  1  0  0  0  0
  5 19  1  0  0  0  0
  5 23  1  0  0  0  0
  5 24  1  0  0  0  0
  6 20  1  0  0  0  0
  6 25  1  0  0  0  0
  6 26  1  0  0  0  0
  7 13  1  0  0  0  0
  7 27  1  0  0  0  0
  7 28  1  0  0  0  0
  8 14  1  0  0  0  0
  8 29  1  0  0  0  0
  8 30  1  0  0  0  0
  9 15  1  0  0  0  0
  9 31  1  0  0  0  0
  9 32  1  0  0  0  0
 10 16  1  0  0  0  0
 10 33  1  0  0  0  0
 10 34  1  0  0  0  0
 11 35  1  0  0  0  0
 11 36  1  0  0  0  0
 11 37  1  0  0  0  0
 12 38  1  0  0  0  0
 12 39  1  0  0  0  0
 12 40  1  0  0  0  0
 13 17  1  0  0  0  0
 13 41  1  0  0  0  0
 13 42  1  0  0  0  0
 14 17  1  0  0  0  0
 14 43  1  0  0  0  0
 14 44  1  0  0  0  0
 15 18  1  0  0  0  0
 15 45  1  0  0  0  0
 15 46  1  0  0  0  0
 16 18  1  0  0  0  0
 16 47  1  0  0  0  0
 16 48  1  0  0  0  0
 17 49  1  0  0  0  0
 17 50  1  0  0  0  0
 18 51  1  0  0  0  0
 18 52  1  0  0  0  0
 19 53  1  0  0  0  0
 19 54  1  0  0  0  0
 19 55  1  0  0  0  0
 20 56  1  0  0  0  0
 20 57  1  0  0  0  0
 20 58  1  0  0  0  0
M  END
> <PUBCHEM_COMPOUND_CID>
21122476

> <PUBCHEM_CONFORMER_RMSD>
0.8

> <PUBCHEM_CONFORMER_DIVERSEORDER>
2
13
7
4
5
11
1
8
12
6
9
10
3

> <PUBCHEM_MMFF94_PARTIAL_CHARGES>
0

> <PUBCHEM_EFFECTIVE_ROTOR_COUNT>
7.4

> <PUBCHEM_PHARMACOPHORE_FEATURES>
7
1 11 hydrophobe
1 12 hydrophobe
1 19 hydrophobe
1 20 hydrophobe
4 1 2 5 6 hydrophobe
6 3 7 8 13 14 17 rings
6 4 9 10 15 16 18 rings

> <PUBCHEM_HEAVY_ATOM_COUNT>
20

> <PUBCHEM_ATOM_DEF_STEREO_COUNT>
0

> <PUBCHEM_ATOM_UDEF_STEREO_COUNT>
2

> <PUBCHEM_BOND_DEF_STEREO_COUNT>
0

> <PUBCHEM_BOND_UDEF_STEREO_COUNT>
0

> <PUBCHEM_ISOTOPIC_ATOM_COUNT>
0

> <PUBCHEM_COMPONENT_COUNT>
1

> <PUBCHEM_CACTVS_TAUTO_COUNT>
1

> <PUBCHEM_CONFORMER_ID>
01424DAC00000002

> <PUBCHEM_MMFF94_ENERGY>
104.4006

> <PUBCHEM_FEATURE_SELFOVERLAP>
35.903

> <PUBCHEM_SHAPE_FINGERPRINT>
10366900 7 17967537870100390233
10863032 1 18200596869598543099
11132069 177 18411419484118799879
12011746 2 18408318861597542527
12236239 1 17749109976578919438
12403814 3 17168139035709598175
12507560 40 17560798840076301536
12592029 89 18114467759986822451
12633257 1 18335427855010311449
12788726 201 18339653243794255928
13140716 1 18409732898018031145
13224815 77 10953453024841093101
13544592 145 17918000438720517702
13675066 3 17846777433641585419
14022347 108 18336555936834133358
14115302 16 18040723601559624086
14251751 93 18412261705847039421
14573314 32 17632298938885357440
14790565 3 18334584542107866228
14993402 34 18333454243979704876
15209289 33 18408885148503422691
15309172 13 18113894948930790419
15375462 189 17749380447675468248
1601671 61 18336265639340702869
16945 1 18341615940383814207
17804303 29 18410856585736725441
1813 80 18411981356288994836
18186145 218 18409441514166367181
20028762 73 18270402840492302639
20600515 1 18411690011598737912
20671657 1 17970917879812255708
20905425 154 17982737367870044343
21033648 29 17131538454015800713
21267235 1 18411427237041418039
21330990 113 18335421205762367302
21421861 104 17462845372255970947
21501502 16 18052250996933478974
23402539 116 18341326726187097086
23557571 272 17203609315619122943
23558518 356 18047470312034186351
23559900 14 17989492905451491502
296302 2 15769771381618033812
3286 77 18114175380230285741
350125 39 18410859884630597209
465052 167 17385732404311330331
5104073 3 18339367482571585593
59755656 215 18272932696456270519
633830 44 18413386562155729677
69090 78 16917342641079726343
7364860 26 18128255795114076992
7495541 125 17604440698829940241
74978 22 18262801907538387074
81228 2 18127710252926655760
9981440 41 17192893680973746873
9999458 23 18334860536943014901

> <PUBCHEM_SHAPE_MULTIPOLES>
411.59
8.36
2.1
1.4
1.37
0.27
0.11
-0.13
-0.4
0.37
-0.24
-0.8
-0.14
-0.18

> <PUBCHEM_SHAPE_SELFOVERLAP>
825.667

> <PUBCHEM_SHAPE_VOLUME>
241.5

> <PUBCHEM_COORDINATE_TYPE>
2
5
10

$$$$
