68337
  -OEChem-11012401193D

 17 16  0     0  0  0  0  0  0999 V2000
   -0.0135   -1.2097    0.0080 Si  0  0  0  0  0  0  0  0  0  0  0  0
    1.4019   -0.1548    0.6131 C   0  0  0  0  0  0  0  0  0  0  0  0
   -1.4106   -0.1730   -0.6047 C   0  0  0  0  0  0  0  0  0  0  0  0
    2.0388    0.7539   -0.4304 C   0  0  0  0  0  0  0  0  0  0  0  0
   -2.0166    0.7836    0.4140 C   0  0  0  0  0  0  0  0  0  0  0  0
    0.4664   -2.0976   -1.0813 H   0  0  0  0  0  0  0  0  0  0  0  0
   -0.4841   -2.0759    1.1185 H   0  0  0  0  0  0  0  0  0  0  0  0
    1.0537    0.4613    1.4500 H   0  0  0  0  0  0  0  0  0  0  0  0
    2.1773   -0.8160    1.0170 H   0  0  0  0  0  0  0  0  0  0  0  0
   -1.0757    0.4108   -1.4699 H   0  0  0  0  0  0  0  0  0  0  0  0
   -2.2060   -0.8319   -0.9719 H   0  0  0  0  0  0  0  0  0  0  0  0
    2.8658    1.3165    0.0151 H   0  0  0  0  0  0  0  0  0  0  0  0
    2.4387    0.1783   -1.2724 H   0  0  0  0  0  0  0  0  0  0  0  0
    1.3175    1.4768   -0.8267 H   0  0  0  0  0  0  0  0  0  0  0  0
   -2.8463    1.3375   -0.0380 H   0  0  0  0  0  0  0  0  0  0  0  0
   -2.4073    0.2475    1.2860 H   0  0  0  0  0  0  0  0  0  0  0  0
   -1.2812    1.5149    0.7671 H   0  0  0  0  0  0  0  0  0  0  0  0
  1  2  1  0  0  0  0
  1  3  1  0  0  0  0
  1  6  1  0  0  0  0
  1  7  1  0  0  0  0
  2  4  1  0  0  0  0
  2  8  1  0  0  0  0
  2  9  1  0  0  0  0
  3  5  1  0  0  0  0
  3 10  1  0  0  0  0
  3 11  1  0  0  0  0
  4 12  1  0  0  0  0
  4 13  1  0  0  0  0
  4 14  1  0  0  0  0
  5 15  1  0  0  0  0
  5 16  1  0  0  0  0
  5 17  1  0  0  0  0
M  END
> <PUBCHEM_COMPOUND_CID>
68337

> <PUBCHEM_CONFORMER_RMSD>
0.4

> <PUBCHEM_CONFORMER_DIVERSEORDER>
1
5
2
6
3
4

> <PUBCHEM_MMFF94_PARTIAL_CHARGES>
5
1 0.56
2 -0.08
3 -0.08
6 -0.2
7 -0.2

> <PUBCHEM_EFFECTIVE_ROTOR_COUNT>
2

> <PUBCHEM_PHARMACOPHORE_FEATURES>
0

> <PUBCHEM_HEAVY_ATOM_COUNT>
5

> <PUBCHEM_ATOM_DEF_STEREO_COUNT>
0

> <PUBCHEM_ATOM_UDEF_STEREO_COUNT>
0

> <PUBCHEM_BOND_DEF_STEREO_COUNT>
0

> <PUBCHEM_BOND_UDEF_STEREO_COUNT>
0

> <PUBCHEM_ISOTOPIC_ATOM_COUNT>
0

> <PUBCHEM_COMPONENT_COUNT>
1

> <PUBCHEM_CACTVS_TAUTO_COUNT>
1

> <PUBCHEM_CONFORMER_ID>
00010AF100000001

> <PUBCHEM_MMFF94_ENERGY>
-2.346

> <PUBCHEM_FEATURE_SELFOVERLAP>
0

> <PUBCHEM_SHAPE_FINGERPRINT>
14390081 3 18201714085028668416
16714656 1 18127413564600678663
20096714 4 18409444782483472586
20651381 22 17749965469460561747
21040471 1 18343014493235736266
23552449 1 17693088978369715266
24536 1 18338222825814703138
29004967 10 14129055911261565254
5943 1 14854163093546357066

> <PUBCHEM_SHAPE_MULTIPOLES>
121.11
2.79
1.37
0.91
0.05
0.38
0
-1.23
0.02
-0.02
0
0
0.05
-0.27

> <PUBCHEM_SHAPE_SELFOVERLAP>
189.694

> <PUBCHEM_SHAPE_VOLUME>
87.6

> <PUBCHEM_COORDINATE_TYPE>
2
5
10

$$$$
