9170
  -OEChem-11012400453D

 30 33  0     0  0  0  0  0  0999 V2000
   -1.0664   -0.9491    0.0004 C   0  0  0  0  0  0  0  0  0  0  0  0
   -1.3575    0.4420    0.0002 C   0  0  0  0  0  0  0  0  0  0  0  0
    0.2959   -1.3966    0.0004 C   0  0  0  0  0  0  0  0  0  0  0  0
   -0.2888    1.3980    0.0001 C   0  0  0  0  0  0  0  0  0  0  0  0
    1.3553   -0.4490    0.0006 C   0  0  0  0  0  0  0  0  0  0  0  0
    1.0616    0.9546    0.0005 C   0  0  0  0  0  0  0  0  0  0  0  0
   -2.1676   -1.8521    0.0005 C   0  0  0  0  0  0  0  0  0  0  0  0
   -2.7282    0.8277   -0.0001 C   0  0  0  0  0  0  0  0  0  0  0  0
    0.6473   -2.7767   -0.0005 C   0  0  0  0  0  0  0  0  0  0  0  0
   -0.5201    2.8032   -0.0004 C   0  0  0  0  0  0  0  0  0  0  0  0
    2.6878   -0.9512    0.0006 C   0  0  0  0  0  0  0  0  0  0  0  0
    2.0809    1.9489    0.0004 C   0  0  0  0  0  0  0  0  0  0  0  0
   -3.4969   -1.4347    0.0000 C   0  0  0  0  0  0  0  0  0  0  0  0
   -3.7788   -0.0874   -0.0004 C   0  0  0  0  0  0  0  0  0  0  0  0
    1.9651   -3.2287   -0.0011 C   0  0  0  0  0  0  0  0  0  0  0  0
    0.5059    3.7457   -0.0008 C   0  0  0  0  0  0  0  0  0  0  0  0
    2.9909   -2.3110   -0.0004 C   0  0  0  0  0  0  0  0  0  0  0  0
    1.8136    3.3162   -0.0002 C   0  0  0  0  0  0  0  0  0  0  0  0
   -2.0190   -2.9285    0.0009 H   0  0  0  0  0  0  0  0  0  0  0  0
   -3.0236    1.8735   -0.0004 H   0  0  0  0  0  0  0  0  0  0  0  0
   -0.1106   -3.5554   -0.0010 H   0  0  0  0  0  0  0  0  0  0  0  0
   -1.5266    3.2128   -0.0007 H   0  0  0  0  0  0  0  0  0  0  0  0
    3.5457   -0.2844    0.0010 H   0  0  0  0  0  0  0  0  0  0  0  0
    3.1342    1.6819    0.0008 H   0  0  0  0  0  0  0  0  0  0  0  0
   -4.2994   -2.1656   -0.0001 H   0  0  0  0  0  0  0  0  0  0  0  0
   -4.8070    0.2605   -0.0008 H   0  0  0  0  0  0  0  0  0  0  0  0
    2.1779   -4.2931   -0.0019 H   0  0  0  0  0  0  0  0  0  0  0  0
    0.2741    4.8062   -0.0013 H   0  0  0  0  0  0  0  0  0  0  0  0
    4.0252   -2.6405   -0.0007 H   0  0  0  0  0  0  0  0  0  0  0  0
    2.6290    4.0328   -0.0004 H   0  0  0  0  0  0  0  0  0  0  0  0
  1  2  1  0  0  0  0
  1  3  1  0  0  0  0
  1  7  2  0  0  0  0
  2  4  1  0  0  0  0
  2  8  2  0  0  0  0
  3  5  1  0  0  0  0
  3  9  2  0  0  0  0
  4  6  1  0  0  0  0
  4 10  2  0  0  0  0
  5  6  1  0  0  0  0
  5 11  2  0  0  0  0
  6 12  2  0  0  0  0
  7 13  1  0  0  0  0
  7 19  1  0  0  0  0
  8 14  1  0  0  0  0
  8 20  1  0  0  0  0
  9 15  1  0  0  0  0
  9 21  1  0  0  0  0
 10 16  1  0  0  0  0
 10 22  1  0  0  0  0
 11 17  1  0  0  0  0
 11 23  1  0  0  0  0
 12 18  1  0  0  0  0
 12 24  1  0  0  0  0
 13 14  2  0  0  0  0
 13 25  1  0  0  0  0
 14 26  1  0  0  0  0
 15 17  2  0  0  0  0
 15 27  1  0  0  0  0
 16 18  2  0  0  0  0
 16 28  1  0  0  0  0
 17 29  1  0  0  0  0
 18 30  1  0  0  0  0
M  END
> <PUBCHEM_COMPOUND_CID>
9170

> <PUBCHEM_CONFORMER_RMSD>
0.4

> <PUBCHEM_CONFORMER_DIVERSEORDER>
1

> <PUBCHEM_MMFF94_PARTIAL_CHARGES>
24
10 -0.15
11 -0.15
12 -0.15
13 -0.15
14 -0.15
15 -0.15
16 -0.15
17 -0.15
18 -0.15
19 0.15
20 0.15
21 0.15
22 0.15
23 0.15
24 0.15
25 0.15
26 0.15
27 0.15
28 0.15
29 0.15
30 0.15
7 -0.15
8 -0.15
9 -0.15

> <PUBCHEM_EFFECTIVE_ROTOR_COUNT>
0

> <PUBCHEM_PHARMACOPHORE_FEATURES>
4
6 1 2 3 4 5 6 rings
6 1 2 7 8 13 14 rings
6 3 5 9 11 15 17 rings
6 4 6 10 12 16 18 rings

> <PUBCHEM_HEAVY_ATOM_COUNT>
18

> <PUBCHEM_ATOM_DEF_STEREO_COUNT>
0

> <PUBCHEM_ATOM_UDEF_STEREO_COUNT>
0

> <PUBCHEM_BOND_DEF_STEREO_COUNT>
0

> <PUBCHEM_BOND_UDEF_STEREO_COUNT>
0

> <PUBCHEM_ISOTOPIC_ATOM_COUNT>
0

> <PUBCHEM_COMPONENT_COUNT>
1

> <PUBCHEM_CACTVS_TAUTO_COUNT>
1

> <PUBCHEM_CONFORMER_ID>
000023D200000001

> <PUBCHEM_MMFF94_ENERGY>
73.8375

> <PUBCHEM_FEATURE_SELFOVERLAP>
20.362

> <PUBCHEM_SHAPE_FINGERPRINT>
10319926 262 16615595174468831544
10411042 1 18266741286008421063
10693767 8 18130790113407414574
10967382 1 18410574019542896486
1100329 8 18051415059059768585
11578080 2 17127570286734546353
116883 192 17908423558776499415
12173636 292 16969138143078647116
12553582 1 18266746783312702767
12788726 201 17901955136339626434
13027679 85 18266458711250362445
13140716 1 18410855473013064113
13583140 156 13756354347552423807
138480 1 18410856551049854979
14178342 30 18270389628818413617
14790565 3 18265906932876896524
15042514 8 17544762226894070579
15309172 13 17761784257449776529
15442244 35 18412830153490474873
16087824 20 17762058736316119789
16945 1 18338517409036642087
193761 8 18266459815088748708
19591789 44 17833557073338154094
20510252 161 17477760187367759306
20645477 70 18263351651005716239
21029758 11 18194392299939754029
21524375 3 17684640313636248144
221490 88 18335988670280869739
2334 1 18266741461758246919
23402539 116 17837475372234618207
23419403 2 17679827545494323990
23557571 272 17768250107571264710
23558518 356 17469896480206658650
23559900 14 18339350959526351067
238 59 17759756646286131229
2748010 2 18337951297981990253
3071541 12 18339365278541055981
3091708 16 9214317004549259449
335352 9 18122624955433406215
34934 24 18266168440222957291
350125 39 17688878952525799370
352729 6 17041761985156349989
43471831 8 17977381964690686859
458136 41 17975997645307740017
54173680 148 17689717459033286330
58807428 26 17907295812044067913
5939293 188 18411415111546972634
6138700 20 18339087094496121252
6438718 38 17339828682883486861
7364860 26 18339080500781980451
81228 2 17978509736986804602
8272917 22 18268153231126814007
84936 182 18057889249901471441
9709674 26 17262148130594335142

> <PUBCHEM_SHAPE_MULTIPOLES>
370.43
4.69
4.69
0.62
1.6
3.63
0
-3.63
0
-1.6
0
0
0
0

> <PUBCHEM_SHAPE_SELFOVERLAP>
849.291

> <PUBCHEM_SHAPE_VOLUME>
175.1

> <PUBCHEM_COORDINATE_TYPE>
2
5
10

$$$$
