4686860
  -OEChem-11012401273D

 12 11  0     0  0  0  0  0  0999 V2000
   -0.5924    1.2912   -0.0030 O   0  0  0  0  0  0  0  0  0  0  0  0
    2.0151    0.5656    0.0008 O   0  0  0  0  0  0  0  0  0  0  0  0
    0.1613   -1.0062   -0.0104 C   0  0  0  0  0  0  0  0  0  0  0  0
   -0.8770    0.0950   -0.0016 C   0  0  0  0  0  0  0  0  0  0  0  0
   -2.3158   -0.3547    0.0066 C   0  0  0  0  0  0  0  0  0  0  0  0
    1.6090   -0.5909    0.0076 C   0  0  0  0  0  0  0  0  0  0  0  0
    0.0089   -1.6109   -0.9103 H   0  0  0  0  0  0  0  0  0  0  0  0
   -0.0035   -1.6338    0.8717 H   0  0  0  0  0  0  0  0  0  0  0  0
   -2.5197   -0.9467   -0.8890 H   0  0  0  0  0  0  0  0  0  0  0  0
   -2.9754    0.5175    0.0112 H   0  0  0  0  0  0  0  0  0  0  0  0
   -2.5092   -0.9480    0.9037 H   0  0  0  0  0  0  0  0  0  0  0  0
    2.3281   -1.4285    0.0224 H   0  0  0  0  0  0  0  0  0  0  0  0
  1  4  2  0  0  0  0
  2  6  2  0  0  0  0
  3  4  1  0  0  0  0
  3  6  1  0  0  0  0
  3  7  1  0  0  0  0
  3  8  1  0  0  0  0
  4  5  1  0  0  0  0
  5  9  1  0  0  0  0
  5 10  1  0  0  0  0
  5 11  1  0  0  0  0
  6 12  1  0  0  0  0
M  END
> <PUBCHEM_COMPOUND_CID>
4686860

> <PUBCHEM_CONFORMER_RMSD>
0.4

> <PUBCHEM_CONFORMER_DIVERSEORDER>
1
11
6
8
9
5
2
7
3
16
14
12
15
13
10
4

> <PUBCHEM_MMFF94_PARTIAL_CHARGES>
7
1 -0.57
12 0.06
2 -0.57
3 0.12
4 0.45
5 0.06
6 0.45

> <PUBCHEM_EFFECTIVE_ROTOR_COUNT>
2

> <PUBCHEM_PHARMACOPHORE_FEATURES>
3
1 1 acceptor
1 2 acceptor
1 3 anion

> <PUBCHEM_HEAVY_ATOM_COUNT>
6

> <PUBCHEM_ATOM_DEF_STEREO_COUNT>
0

> <PUBCHEM_ATOM_UDEF_STEREO_COUNT>
0

> <PUBCHEM_BOND_DEF_STEREO_COUNT>
0

> <PUBCHEM_BOND_UDEF_STEREO_COUNT>
0

> <PUBCHEM_ISOTOPIC_ATOM_COUNT>
0

> <PUBCHEM_COMPONENT_COUNT>
1

> <PUBCHEM_CACTVS_TAUTO_COUNT>
5

> <PUBCHEM_CONFORMER_ID>
0047840C00000001

> <PUBCHEM_MMFF94_ENERGY>
2.8535

> <PUBCHEM_FEATURE_SELFOVERLAP>
15.229

> <PUBCHEM_SHAPE_FINGERPRINT>
139733 1 9295289439123716323
16714656 1 18343023315061580583
20096714 4 18339080363490746042
21040471 1 18410855490303871554
24536 1 18054777399739186854
29004967 10 18334583464081013747
5460574 1 9295292737510984547

> <PUBCHEM_SHAPE_MULTIPOLES>
111.74
2.77
1.11
0.58
0.18
0.13
0
-0.09
-0.01
-0.04
0
0.03
-0.03
0

> <PUBCHEM_SHAPE_SELFOVERLAP>
201.587

> <PUBCHEM_SHAPE_VOLUME>
71.4

> <PUBCHEM_COORDINATE_TYPE>
2
5
10

$$$$
