136695
  -OEChem-11012400323D

 27 29  0     0  0  0  0  0  0999 V2000
    0.7218    1.6652   -0.0003 O   0  0  0  0  0  0  0  0  0  0  0  0
   -0.0392   -0.4414   -0.0004 N   0  0  0  0  0  0  0  0  0  0  0  0
   -0.6759    1.7559   -0.0006 N   0  0  0  0  0  0  0  0  0  0  0  0
    2.4091    0.0082    0.0003 C   0  0  0  0  0  0  0  0  0  0  0  0
   -2.4289    0.0716   -0.0002 C   0  0  0  0  0  0  0  0  0  0  0  0
    1.0127    0.3379   -0.0005 C   0  0  0  0  0  0  0  0  0  0  0  0
   -1.0506    0.4737   -0.0003 C   0  0  0  0  0  0  0  0  0  0  0  0
    3.3725    1.0225    0.0012 C   0  0  0  0  0  0  0  0  0  0  0  0
    2.8188   -1.3293   -0.0006 C   0  0  0  0  0  0  0  0  0  0  0  0
   -3.4368    1.0360   -0.0004 C   0  0  0  0  0  0  0  0  0  0  0  0
   -2.7602   -1.2834    0.0003 C   0  0  0  0  0  0  0  0  0  0  0  0
    4.7302    0.7029    0.0010 C   0  0  0  0  0  0  0  0  0  0  0  0
    4.1766   -1.6488   -0.0007 C   0  0  0  0  0  0  0  0  0  0  0  0
   -4.7759    0.6454    0.0001 C   0  0  0  0  0  0  0  0  0  0  0  0
   -4.0993   -1.6740    0.0006 C   0  0  0  0  0  0  0  0  0  0  0  0
    5.1323   -0.6327    0.0001 C   0  0  0  0  0  0  0  0  0  0  0  0
   -5.1071   -0.7095    0.0005 C   0  0  0  0  0  0  0  0  0  0  0  0
    3.0996    2.0749    0.0018 H   0  0  0  0  0  0  0  0  0  0  0  0
    2.0921   -2.1385   -0.0014 H   0  0  0  0  0  0  0  0  0  0  0  0
   -3.2172    2.1006   -0.0008 H   0  0  0  0  0  0  0  0  0  0  0  0
   -1.9981   -2.0588    0.0004 H   0  0  0  0  0  0  0  0  0  0  0  0
    5.4747    1.4936    0.0016 H   0  0  0  0  0  0  0  0  0  0  0  0
    4.4900   -2.6887   -0.0015 H   0  0  0  0  0  0  0  0  0  0  0  0
   -5.5610    1.3959    0.0001 H   0  0  0  0  0  0  0  0  0  0  0  0
   -4.3578   -2.7289    0.0010 H   0  0  0  0  0  0  0  0  0  0  0  0
    6.1895   -0.8815   -0.0001 H   0  0  0  0  0  0  0  0  0  0  0  0
   -6.1497   -1.0135    0.0008 H   0  0  0  0  0  0  0  0  0  0  0  0
  1  3  1  0  0  0  0
  1  6  1  0  0  0  0
  2  6  2  0  0  0  0
  2  7  1  0  0  0  0
  3  7  2  0  0  0  0
  4  6  1  0  0  0  0
  4  8  2  0  0  0  0
  4  9  1  0  0  0  0
  5  7  1  0  0  0  0
  5 10  2  0  0  0  0
  5 11  1  0  0  0  0
  8 12  1  0  0  0  0
  8 18  1  0  0  0  0
  9 13  2  0  0  0  0
  9 19  1  0  0  0  0
 10 14  1  0  0  0  0
 10 20  1  0  0  0  0
 11 15  2  0  0  0  0
 11 21  1  0  0  0  0
 12 16  2  0  0  0  0
 12 22  1  0  0  0  0
 13 16  1  0  0  0  0
 13 23  1  0  0  0  0
 14 17  2  0  0  0  0
 14 24  1  0  0  0  0
 15 17  1  0  0  0  0
 15 25  1  0  0  0  0
 16 26  1  0  0  0  0
 17 27  1  0  0  0  0
M  END
> <PUBCHEM_COMPOUND_CID>
136695

> <PUBCHEM_CONFORMER_RMSD>
0.6

> <PUBCHEM_CONFORMER_DIVERSEORDER>
1

> <PUBCHEM_MMFF94_PARTIAL_CHARGES>
27
1 -0.02
10 -0.15
11 -0.15
12 -0.15
13 -0.15
14 -0.15
15 -0.15
16 -0.15
17 -0.15
18 0.15
19 0.15
2 -0.57
20 0.15
21 0.15
22 0.15
23 0.15
24 0.15
25 0.15
26 0.15
27 0.15
3 -0.41
4 0.05
5 0.05
6 0.43
7 0.46
8 -0.15
9 -0.15

> <PUBCHEM_EFFECTIVE_ROTOR_COUNT>
2

> <PUBCHEM_PHARMACOPHORE_FEATURES>
4
3 2 3 7 cation
5 1 2 3 6 7 rings
6 4 8 9 12 13 16 rings
6 5 10 11 14 15 17 rings

> <PUBCHEM_HEAVY_ATOM_COUNT>
17

> <PUBCHEM_ATOM_DEF_STEREO_COUNT>
0

> <PUBCHEM_ATOM_UDEF_STEREO_COUNT>
0

> <PUBCHEM_BOND_DEF_STEREO_COUNT>
0

> <PUBCHEM_BOND_UDEF_STEREO_COUNT>
0

> <PUBCHEM_ISOTOPIC_ATOM_COUNT>
0

> <PUBCHEM_COMPONENT_COUNT>
1

> <PUBCHEM_CACTVS_TAUTO_COUNT>
1

> <PUBCHEM_CONFORMER_ID>
000215F700000001

> <PUBCHEM_MMFF94_ENERGY>
37.6697

> <PUBCHEM_FEATURE_SELFOVERLAP>
20.297

> <PUBCHEM_SHAPE_FINGERPRINT>
10616163 171 18412828018443836079
10968037 39 18408888451048215854
11806522 49 18408041823105809484
12032990 46 18410857663451776321
12107183 9 17691408507753094370
12596602 18 15913322528592578050
12916748 109 9079116682568759287
13167823 11 18410572885650723658
13288520 33 18411420605110584319
13685833 64 18335424599525353795
13862211 1 18410569587110682499
14251764 18 18272939332512681731
14252887 29 17632585933290578718
14528608 73 18336553823641931660
15196674 1 18410575088958325543
15242433 33 18409450288584086358
15352361 1 18410575088973896451
15788980 27 18040156214461789693
17804303 29 18342458162306862025
17834072 33 18411419539816296068
17844677 252 18411989056632788337
1813 80 17385726889256551596
18186145 218 15864073208129633589
19141452 34 18412826897968529047
200 152 18272651246584341857
20261772 1 17917989503454363262
20281475 54 18410576184174992525
20374829 77 18334853905001917251
20645477 70 18411700946390456950
21250096 35 18342738515790582904
21267235 1 18410582781250053411
221490 88 18190467258034618219
22485316 2 18410573985151477123
22854114 59 11167943562870287283
23402539 116 18335697234725801925
23557571 272 18337675217801143644
23559900 14 18412538834042669936
239999 70 18272656736449689510
26918003 58 18342736303956278530
2871803 45 18261109647658985802
300161 21 18409160013214013929
3004659 81 18260267421963079886
3268164 11 16370998586113636127
335352 9 18410573977537677405
33824 294 18408884019333420122
4047638 21 9223229655069172852
42 15 18411420604857389663
4214541 1 18410856529875991173
465052 167 18273219719976885142
4921388 177 16298678282069791067
5104073 3 18412263930238945496
5283173 99 18188199893339119429
5374978 207 18412538804478740544
559249 180 18335978662880170659
77779 3 18410575084668366660
9709674 26 18409174298555380482

> <PUBCHEM_SHAPE_MULTIPOLES>
334.02
12.01
1.69
0.6
0.17
0.13
0
2.88
0
-0.02
0
0
0.02
0

> <PUBCHEM_SHAPE_SELFOVERLAP>
741.051

> <PUBCHEM_SHAPE_VOLUME>
180

> <PUBCHEM_COORDINATE_TYPE>
2
5
10

$$$$
