53440600
  -OEChem-11012401143D

 18 17  0     0  0  0  0  0  0999 V2000
   -3.9870   -0.8849   -0.6420 O   0  0  0  0  0  0  0  0  0  0  0  0
   -3.4117    1.0768    0.3479 O   0  0  0  0  0  0  0  0  0  0  0  0
    3.9662    0.6430   -0.8116 O   0  0  0  0  0  0  0  0  0  0  0  0
    3.3821   -1.0812    0.5505 O   0  0  0  0  0  0  0  0  0  0  0  0
   -0.6938    0.4556    0.4824 C   0  0  0  0  0  0  0  0  0  0  0  0
   -1.6819   -0.5460   -0.1088 C   0  0  0  0  0  0  0  0  0  0  0  0
    0.7147   -0.0698    0.5078 C   0  0  0  0  0  0  0  0  0  0  0  0
   -3.0976   -0.0217   -0.0923 C   0  0  0  0  0  0  0  0  0  0  0  0
    1.7273    0.5073   -0.1534 C   0  0  0  0  0  0  0  0  0  0  0  0
    3.0818   -0.0791   -0.0804 C   0  0  0  0  0  0  0  0  0  0  0  0
   -0.9851    0.6984    1.5122 H   0  0  0  0  0  0  0  0  0  0  0  0
   -0.7445    1.3973   -0.0792 H   0  0  0  0  0  0  0  0  0  0  0  0
   -1.6616   -1.4791    0.4659 H   0  0  0  0  0  0  0  0  0  0  0  0
   -1.4130   -0.7655   -1.1485 H   0  0  0  0  0  0  0  0  0  0  0  0
    0.8831   -0.9616    1.1065 H   0  0  0  0  0  0  0  0  0  0  0  0
    1.5830    1.3985   -0.7539 H   0  0  0  0  0  0  0  0  0  0  0  0
   -4.8994   -0.5249   -0.6347 H   0  0  0  0  0  0  0  0  0  0  0  0
    4.8703    0.2643   -0.7718 H   0  0  0  0  0  0  0  0  0  0  0  0
  1  8  1  0  0  0  0
  1 17  1  0  0  0  0
  2  8  2  0  0  0  0
  3 10  1  0  0  0  0
  3 18  1  0  0  0  0
  4 10  2  0  0  0  0
  5  6  1  0  0  0  0
  5  7  1  0  0  0  0
  5 11  1  0  0  0  0
  5 12  1  0  0  0  0
  6  8  1  0  0  0  0
  6 13  1  0  0  0  0
  6 14  1  0  0  0  0
  7  9  2  3  0  0  0
  7 15  1  0  0  0  0
  9 10  1  0  0  0  0
  9 16  1  0  0  0  0
M  END
> <PUBCHEM_COMPOUND_CID>
53440600

> <PUBCHEM_CONFORMER_RMSD>
0.6

> <PUBCHEM_CONFORMER_DIVERSEORDER>
2
12
13
1
3
9
11
4
6
10
8
5
7

> <PUBCHEM_MMFF94_PARTIAL_CHARGES>
14
1 -0.65
10 0.71
15 0.15
16 0.15
17 0.5
18 0.5
2 -0.57
3 -0.65
4 -0.57
5 0.14
6 0.06
7 -0.29
8 0.66
9 -0.14

> <PUBCHEM_EFFECTIVE_ROTOR_COUNT>
4

> <PUBCHEM_PHARMACOPHORE_FEATURES>
6
1 1 acceptor
1 2 acceptor
1 3 acceptor
1 4 acceptor
3 1 2 8 anion
3 3 4 10 anion

> <PUBCHEM_HEAVY_ATOM_COUNT>
10

> <PUBCHEM_ATOM_DEF_STEREO_COUNT>
0

> <PUBCHEM_ATOM_UDEF_STEREO_COUNT>
0

> <PUBCHEM_BOND_DEF_STEREO_COUNT>
0

> <PUBCHEM_BOND_UDEF_STEREO_COUNT>
1

> <PUBCHEM_ISOTOPIC_ATOM_COUNT>
0

> <PUBCHEM_COMPONENT_COUNT>
1

> <PUBCHEM_CACTVS_TAUTO_COUNT>
1

> <PUBCHEM_CONFORMER_ID>
032F705800000002

> <PUBCHEM_MMFF94_ENERGY>
9.5193

> <PUBCHEM_FEATURE_SELFOVERLAP>
30.564

> <PUBCHEM_SHAPE_FINGERPRINT>
11062470 55 18412547613097942176
11987891 27 18341886394289820374
12932764 1 18201995542740970944
14325111 11 18409167709795388971
18186145 218 16877664543498520928
190213 19 16442785721570729709
1986462 14 18131914853878301397
20281407 28 17060340716656829354
20645477 70 17822007575904871586
21293036 1 17822009834693158720
22485316 2 17632291272263148198
23402655 69 18186799153894760020

> <PUBCHEM_SHAPE_MULTIPOLES>
182.32
7.91
0.95
0.76
0.21
0.02
-0.01
0.49
-1.35
0.17
0.03
-0.17
0
-0.64

> <PUBCHEM_SHAPE_SELFOVERLAP>
347.357

> <PUBCHEM_SHAPE_VOLUME>
111

> <PUBCHEM_COORDINATE_TYPE>
2
5
10

$$$$
