138541
  -OEChem-11012400593D

 36 36  0     0  0  0  0  0  0999 V2000
    2.4729   -0.2561    0.3317 C   0  0  0  0  0  0  0  0  0  0  0  0
    3.6782   -1.1217   -0.0222 C   0  0  0  0  0  0  0  0  0  0  0  0
    2.8156    1.0694   -0.3407 C   0  0  0  0  0  0  0  0  0  0  0  0
    4.8669   -0.1746    0.1100 C   0  0  0  0  0  0  0  0  0  0  0  0
    4.3095    1.2368   -0.0832 C   0  0  0  0  0  0  0  0  0  0  0  0
    1.1544   -0.8438   -0.1403 C   0  0  0  0  0  0  0  0  0  0  0  0
   -0.0282    0.0345    0.2677 C   0  0  0  0  0  0  0  0  0  0  0  0
   -1.3518   -0.5433   -0.2388 C   0  0  0  0  0  0  0  0  0  0  0  0
   -2.5370    0.3175    0.2038 C   0  0  0  0  0  0  0  0  0  0  0  0
   -3.8948   -0.2535   -0.2153 C   0  0  0  0  0  0  0  0  0  0  0  0
   -5.0818    0.5676    0.2900 C   0  0  0  0  0  0  0  0  0  0  0  0
   -6.4041   -0.0329   -0.1628 C   0  0  0  0  0  0  0  0  0  0  0  0
    2.4457   -0.1141    1.4209 H   0  0  0  0  0  0  0  0  0  0  0  0
    3.6087   -1.4849   -1.0550 H   0  0  0  0  0  0  0  0  0  0  0  0
    3.7735   -1.9927    0.6335 H   0  0  0  0  0  0  0  0  0  0  0  0
    2.2475    1.9121    0.0646 H   0  0  0  0  0  0  0  0  0  0  0  0
    2.6291    1.0228   -1.4207 H   0  0  0  0  0  0  0  0  0  0  0  0
    5.6450   -0.4089   -0.6235 H   0  0  0  0  0  0  0  0  0  0  0  0
    5.3172   -0.2625    1.1055 H   0  0  0  0  0  0  0  0  0  0  0  0
    4.4762    1.8279    0.8249 H   0  0  0  0  0  0  0  0  0  0  0  0
    4.8008    1.7599   -0.9098 H   0  0  0  0  0  0  0  0  0  0  0  0
    1.1622   -0.9684   -1.2304 H   0  0  0  0  0  0  0  0  0  0  0  0
    1.0282   -1.8449    0.2904 H   0  0  0  0  0  0  0  0  0  0  0  0
   -0.0582    0.1244    1.3605 H   0  0  0  0  0  0  0  0  0  0  0  0
    0.0888    1.0458   -0.1375 H   0  0  0  0  0  0  0  0  0  0  0  0
   -1.3350   -0.6098   -1.3332 H   0  0  0  0  0  0  0  0  0  0  0  0
   -1.4776   -1.5626    0.1460 H   0  0  0  0  0  0  0  0  0  0  0  0
   -2.4280    1.3276   -0.2100 H   0  0  0  0  0  0  0  0  0  0  0  0
   -2.5185    0.4196    1.2961 H   0  0  0  0  0  0  0  0  0  0  0  0
   -3.9830   -1.2802    0.1615 H   0  0  0  0  0  0  0  0  0  0  0  0
   -3.9331   -0.3145   -1.3100 H   0  0  0  0  0  0  0  0  0  0  0  0
   -5.0059    1.5961   -0.0812 H   0  0  0  0  0  0  0  0  0  0  0  0
   -5.0616    0.6145    1.3848 H   0  0  0  0  0  0  0  0  0  0  0  0
   -6.4672   -0.0643   -1.2552 H   0  0  0  0  0  0  0  0  0  0  0  0
   -6.5230   -1.0523    0.2182 H   0  0  0  0  0  0  0  0  0  0  0  0
   -7.2398    0.5683    0.2086 H   0  0  0  0  0  0  0  0  0  0  0  0
  1  2  1  0  0  0  0
  1  3  1  0  0  0  0
  1  6  1  0  0  0  0
  1 13  1  0  0  0  0
  2  4  1  0  0  0  0
  2 14  1  0  0  0  0
  2 15  1  0  0  0  0
  3  5  1  0  0  0  0
  3 16  1  0  0  0  0
  3 17  1  0  0  0  0
  4  5  1  0  0  0  0
  4 18  1  0  0  0  0
  4 19  1  0  0  0  0
  5 20  1  0  0  0  0
  5 21  1  0  0  0  0
  6  7  1  0  0  0  0
  6 22  1  0  0  0  0
  6 23  1  0  0  0  0
  7  8  1  0  0  0  0
  7 24  1  0  0  0  0
  7 25  1  0  0  0  0
  8  9  1  0  0  0  0
  8 26  1  0  0  0  0
  8 27  1  0  0  0  0
  9 10  1  0  0  0  0
  9 28  1  0  0  0  0
  9 29  1  0  0  0  0
 10 11  1  0  0  0  0
 10 30  1  0  0  0  0
 10 31  1  0  0  0  0
 11 12  1  0  0  0  0
 11 32  1  0  0  0  0
 11 33  1  0  0  0  0
 12 34  1  0  0  0  0
 12 35  1  0  0  0  0
 12 36  1  0  0  0  0
M  END
> <PUBCHEM_COMPOUND_CID>
138541

> <PUBCHEM_CONFORMER_RMSD>
0.8

> <PUBCHEM_CONFORMER_DIVERSEORDER>
1
25
41
16
39
33
6
3
12
14
19
30
29
44
37
17
8
18
26
5
35
10
11
22
21
7
23
40
34
36
4
42
32
24
43
31
2
9
27
20
13
15
38
28

> <PUBCHEM_MMFF94_PARTIAL_CHARGES>
0

> <PUBCHEM_EFFECTIVE_ROTOR_COUNT>
7

> <PUBCHEM_PHARMACOPHORE_FEATURES>
4
1 12 hydrophobe
3 6 7 8 hydrophobe
3 9 10 11 hydrophobe
5 1 2 3 4 5 rings

> <PUBCHEM_HEAVY_ATOM_COUNT>
12

> <PUBCHEM_ATOM_DEF_STEREO_COUNT>
0

> <PUBCHEM_ATOM_UDEF_STEREO_COUNT>
0

> <PUBCHEM_BOND_DEF_STEREO_COUNT>
0

> <PUBCHEM_BOND_UDEF_STEREO_COUNT>
0

> <PUBCHEM_ISOTOPIC_ATOM_COUNT>
0

> <PUBCHEM_COMPONENT_COUNT>
1

> <PUBCHEM_CACTVS_TAUTO_COUNT>
1

> <PUBCHEM_CONFORMER_ID>
00021D2D00000001

> <PUBCHEM_MMFF94_ENERGY>
5.1521

> <PUBCHEM_FEATURE_SELFOVERLAP>
20.309

> <PUBCHEM_SHAPE_FINGERPRINT>
10354089 29 18334013899851563104
11287383 113 18261114097297631235
12815109 37 7853853884386231967
13081056 2 18260546714484481213
13167372 99 18341334375513782601
13533116 47 17023455357272554602
14123238 8 18342176665892069237
1420 363 17967540073439692563
14251718 22 17060054869973026165
14252887 29 11891326526739883360
17834072 33 18273212028133192591
17834076 25 18410575088958046215
187816 3 15482672381762721011
20645477 70 18341051809357019742
212847 35 18272931630950777688
23402539 116 18202277013902684429
23402655 69 18342457079927539894
23557571 272 16732981964715984615
3545911 37 18408605868149303758
4047638 21 18260831505655797258
42788 4 18410573981341767545
522135 26 18410856547271969290
5374978 207 18186514402195586520
542803 24 18343585135918469009

> <PUBCHEM_SHAPE_MULTIPOLES>
246.95
14.07
1.08
0.67
15.64
0.09
0
1.66
0.14
-1.09
0.05
0.02
0.01
-0.25

> <PUBCHEM_SHAPE_SELFOVERLAP>
462.109

> <PUBCHEM_SHAPE_VOLUME>
152.8

> <PUBCHEM_COORDINATE_TYPE>
2
5
10

$$$$
