18386
  -OEChem-11012400333D

 37 39  0     0  0  0  0  0  0999 V2000
   -0.7139    2.9590    0.3225 O   0  0  0  0  0  0  0  0  0  0  0  0
    0.0857    0.3206    0.5184 N   0  0  0  0  0  0  0  0  0  0  0  0
    0.6830    0.2014   -0.5746 N   0  0  0  0  0  0  0  0  0  0  0  0
   -2.2235   -0.3957    0.1553 C   0  0  0  0  0  0  0  0  0  0  0  0
   -3.5761   -0.0496   -0.0764 C   0  0  0  0  0  0  0  0  0  0  0  0
   -1.2669    0.6239    0.2882 C   0  0  0  0  0  0  0  0  0  0  0  0
    2.9781    0.9149   -0.2142 C   0  0  0  0  0  0  0  0  0  0  0  0
    2.0359   -0.1019   -0.3449 C   0  0  0  0  0  0  0  0  0  0  0  0
   -3.9321    1.3058   -0.1682 C   0  0  0  0  0  0  0  0  0  0  0  0
   -1.6385    1.9654    0.1942 C   0  0  0  0  0  0  0  0  0  0  0  0
   -1.8676   -1.7510    0.2474 C   0  0  0  0  0  0  0  0  0  0  0  0
    4.7079   -0.7402    0.1111 C   0  0  0  0  0  0  0  0  0  0  0  0
   -4.5329   -1.0691   -0.2090 C   0  0  0  0  0  0  0  0  0  0  0  0
    4.3165    0.5952    0.0142 C   0  0  0  0  0  0  0  0  0  0  0  0
   -2.9685    2.3057   -0.0336 C   0  0  0  0  0  0  0  0  0  0  0  0
    2.4226   -1.4362   -0.2489 C   0  0  0  0  0  0  0  0  0  0  0  0
    3.7610   -1.7558   -0.0204 C   0  0  0  0  0  0  0  0  0  0  0  0
   -2.8312   -2.7509    0.1132 C   0  0  0  0  0  0  0  0  0  0  0  0
   -4.1613   -2.4106   -0.1146 C   0  0  0  0  0  0  0  0  0  0  0  0
    2.5830    2.3520   -0.3149 C   0  0  0  0  0  0  0  0  0  0  0  0
    6.1387   -1.0831    0.3551 C   0  0  0  0  0  0  0  0  0  0  0  0
   -4.9659    1.5948   -0.3459 H   0  0  0  0  0  0  0  0  0  0  0  0
   -0.8418   -2.0608    0.4308 H   0  0  0  0  0  0  0  0  0  0  0  0
   -5.5784   -0.8263   -0.3872 H   0  0  0  0  0  0  0  0  0  0  0  0
    5.0574    1.3841    0.1209 H   0  0  0  0  0  0  0  0  0  0  0  0
   -3.2720    3.3465   -0.1091 H   0  0  0  0  0  0  0  0  0  0  0  0
    1.6930   -2.2350   -0.3515 H   0  0  0  0  0  0  0  0  0  0  0  0
    4.0529   -2.8000    0.0546 H   0  0  0  0  0  0  0  0  0  0  0  0
   -2.5432   -3.7955    0.1880 H   0  0  0  0  0  0  0  0  0  0  0  0
   -4.9111   -3.1894   -0.2186 H   0  0  0  0  0  0  0  0  0  0  0  0
    3.4543    2.9997   -0.4618 H   0  0  0  0  0  0  0  0  0  0  0  0
    1.9194    2.5196   -1.1697 H   0  0  0  0  0  0  0  0  0  0  0  0
    2.0801    2.6697    0.6037 H   0  0  0  0  0  0  0  0  0  0  0  0
    6.8047   -0.3479   -0.1092 H   0  0  0  0  0  0  0  0  0  0  0  0
    6.3402   -1.1104    1.4305 H   0  0  0  0  0  0  0  0  0  0  0  0
    6.3913   -2.0591   -0.0734 H   0  0  0  0  0  0  0  0  0  0  0  0
   -1.1561    3.8199    0.2267 H   0  0  0  0  0  0  0  0  0  0  0  0
  1 10  1  0  0  0  0
  1 37  1  0  0  0  0
  2  3  2  0  0  0  0
  2  6  1  0  0  0  0
  3  8  1  0  0  0  0
  4  5  1  0  0  0  0
  4  6  1  0  0  0  0
  4 11  2  0  0  0  0
  5  9  1  0  0  0  0
  5 13  2  0  0  0  0
  6 10  2  0  0  0  0
  7  8  2  0  0  0  0
  7 14  1  0  0  0  0
  7 20  1  0  0  0  0
  8 16  1  0  0  0  0
  9 15  2  0  0  0  0
  9 22  1  0  0  0  0
 10 15  1  0  0  0  0
 11 18  1  0  0  0  0
 11 23  1  0  0  0  0
 12 14  2  0  0  0  0
 12 17  1  0  0  0  0
 12 21  1  0  0  0  0
 13 19  1  0  0  0  0
 13 24  1  0  0  0  0
 14 25  1  0  0  0  0
 15 26  1  0  0  0  0
 16 17  2  0  0  0  0
 16 27  1  0  0  0  0
 17 28  1  0  0  0  0
 18 19  2  0  0  0  0
 18 29  1  0  0  0  0
 19 30  1  0  0  0  0
 20 31  1  0  0  0  0
 20 32  1  0  0  0  0
 20 33  1  0  0  0  0
 21 34  1  0  0  0  0
 21 35  1  0  0  0  0
 21 36  1  0  0  0  0
M  END
> <PUBCHEM_COMPOUND_CID>
18386

> <PUBCHEM_CONFORMER_RMSD>
0.6

> <PUBCHEM_CONFORMER_DIVERSEORDER>
1
5
3
2
6
4

> <PUBCHEM_MMFF94_PARTIAL_CHARGES>
29
1 -0.53
10 0.08
11 -0.15
12 -0.14
13 -0.15
14 -0.15
15 -0.15
16 -0.15
17 -0.15
18 -0.15
19 -0.15
2 -0.18
20 0.14
21 0.14
22 0.15
23 0.15
24 0.15
25 0.15
26 0.15
27 0.15
28 0.15
29 0.15
3 -0.18
30 0.15
37 0.45
6 0.18
7 -0.14
8 0.18
9 -0.15

> <PUBCHEM_EFFECTIVE_ROTOR_COUNT>
2

> <PUBCHEM_PHARMACOPHORE_FEATURES>
4
1 1 donor
6 4 5 11 13 18 19 rings
6 4 5 6 9 10 15 rings
6 7 8 12 14 16 17 rings

> <PUBCHEM_HEAVY_ATOM_COUNT>
21

> <PUBCHEM_ATOM_DEF_STEREO_COUNT>
0

> <PUBCHEM_ATOM_UDEF_STEREO_COUNT>
0

> <PUBCHEM_BOND_DEF_STEREO_COUNT>
0

> <PUBCHEM_BOND_UDEF_STEREO_COUNT>
0

> <PUBCHEM_ISOTOPIC_ATOM_COUNT>
0

> <PUBCHEM_COMPONENT_COUNT>
1

> <PUBCHEM_CACTVS_TAUTO_COUNT>
3

> <PUBCHEM_CONFORMER_ID>
000047D200000001

> <PUBCHEM_MMFF94_ENERGY>
63.1883

> <PUBCHEM_FEATURE_SELFOVERLAP>
20.324

> <PUBCHEM_SHAPE_FINGERPRINT>
10 15 18130208446972492898
10319926 262 18197761247129278778
10411042 1 18267021851047832627
10616163 171 18412547608587203895
10693767 8 17840005671235982663
11045515 52 18186518834655032029
11315181 36 18259985968408198382
11405975 8 18412267233079604904
12107183 9 17759517768890254282
12236239 1 17822011995040609651
12403259 226 18411695525820099344
12633257 1 18341905051596196705
13140716 1 18341619230312990721
13167823 11 18335419075780673026
13544653 18 18263650726357342783
13583140 156 17774990281236646202
138480 1 15168265510939256512
14341114 176 18411142428906153184
14790565 3 18124604081186936769
15042514 8 18408892845596201835
15196674 1 18410575106475668444
15352361 1 18411136965196043286
17349148 13 17967253109146617874
17492 89 18410013251739511742
17857418 61 18409163312107846794
18681886 176 18413105091969845346
18927931 339 18411989061075293031
19141452 34 18336549309146058549
200 152 18413387644160388374
21033648 29 17274239666355052786
21065198 57 18411418380380997284
21267235 1 18409175427931111363
21792934 111 18412821417906621449
221490 88 18337397148822707930
23402539 116 18410568466176556773
23557571 272 18202569449330232376
23559900 14 18412256246780134344
23622692 118 18340199782155029550
26918003 58 18342172250417853570
3004659 81 18187358869727335550
3178227 256 18337971004606040313
335352 9 18410573977358264365
350125 39 18339643438483730044
3545911 37 18339925918113470804
4214541 1 18410011018034017428
4921388 177 16515975868731468587
5104073 3 18413671322640127424
5283173 99 18261943081883943229
559249 180 18262513697905594626
67856867 119 18335139851715232100
9709674 26 18341901753072103390

> <PUBCHEM_SHAPE_MULTIPOLES>
416.34
11.21
3.02
0.67
9.37
0.49
0
-4.62
0.11
-2.23
0.07
0.05
0
-0.25

> <PUBCHEM_SHAPE_SELFOVERLAP>
919.356

> <PUBCHEM_SHAPE_VOLUME>
225.6

> <PUBCHEM_COORDINATE_TYPE>
2
5
10

$$$$
