15233
  -OEChem-11012400573D

 29 29  0     0  0  0  0  0  0999 V2000
    1.6025   -0.3543   -0.0104 O   0  0  0  0  0  0  0  0  0  0  0  0
    0.3171    1.5372   -0.0023 O   0  0  0  0  0  0  0  0  0  0  0  0
   -0.6292   -0.6041   -0.0054 N   0  0  0  0  0  0  0  0  0  0  0  0
    3.9944   -0.4629   -0.0175 C   0  0  0  0  0  0  0  0  0  0  0  0
    5.2947    0.3358   -0.0033 C   0  0  0  0  0  0  0  0  0  0  0  0
    2.7751    0.4481   -0.0118 C   0  0  0  0  0  0  0  0  0  0  0  0
    6.5093   -0.5777    0.0347 C   0  0  0  0  0  0  0  0  0  0  0  0
   -2.0200   -0.3520   -0.0012 C   0  0  0  0  0  0  0  0  0  0  0  0
    0.4020    0.3151   -0.0054 C   0  0  0  0  0  0  0  0  0  0  0  0
   -2.9037   -1.4196   -0.0019 C   0  0  0  0  0  0  0  0  0  0  0  0
   -2.4731    0.9578    0.0045 C   0  0  0  0  0  0  0  0  0  0  0  0
   -4.2762   -1.1711    0.0026 C   0  0  0  0  0  0  0  0  0  0  0  0
   -3.8457    1.2062    0.0092 C   0  0  0  0  0  0  0  0  0  0  0  0
   -4.7472    0.1417    0.0083 C   0  0  0  0  0  0  0  0  0  0  0  0
    3.9584   -1.1153   -0.8989 H   0  0  0  0  0  0  0  0  0  0  0  0
    3.9500   -1.1313    0.8515 H   0  0  0  0  0  0  0  0  0  0  0  0
    5.3169    0.9967    0.8710 H   0  0  0  0  0  0  0  0  0  0  0  0
    5.3498    0.9732   -0.8934 H   0  0  0  0  0  0  0  0  0  0  0  0
    2.7840    1.0811    0.8833 H   0  0  0  0  0  0  0  0  0  0  0  0
    2.7801    1.0863   -0.9032 H   0  0  0  0  0  0  0  0  0  0  0  0
    6.5012   -1.2045    0.9322 H   0  0  0  0  0  0  0  0  0  0  0  0
    6.5348   -1.2328   -0.8421 H   0  0  0  0  0  0  0  0  0  0  0  0
    7.4293    0.0150    0.0427 H   0  0  0  0  0  0  0  0  0  0  0  0
   -0.3567   -1.5841   -0.0089 H   0  0  0  0  0  0  0  0  0  0  0  0
   -2.5475   -2.4461   -0.0061 H   0  0  0  0  0  0  0  0  0  0  0  0
   -1.8379    1.8315    0.0057 H   0  0  0  0  0  0  0  0  0  0  0  0
   -4.9782   -1.9998    0.0019 H   0  0  0  0  0  0  0  0  0  0  0  0
   -4.2140    2.2281    0.0137 H   0  0  0  0  0  0  0  0  0  0  0  0
   -5.8159    0.3352    0.0120 H   0  0  0  0  0  0  0  0  0  0  0  0
  1  6  1  0  0  0  0
  1  9  1  0  0  0  0
  2  9  2  0  0  0  0
  3  8  1  0  0  0  0
  3  9  1  0  0  0  0
  3 24  1  0  0  0  0
  4  5  1  0  0  0  0
  4  6  1  0  0  0  0
  4 15  1  0  0  0  0
  4 16  1  0  0  0  0
  5  7  1  0  0  0  0
  5 17  1  0  0  0  0
  5 18  1  0  0  0  0
  6 19  1  0  0  0  0
  6 20  1  0  0  0  0
  7 21  1  0  0  0  0
  7 22  1  0  0  0  0
  7 23  1  0  0  0  0
  8 10  2  0  0  0  0
  8 11  1  0  0  0  0
 10 12  1  0  0  0  0
 10 25  1  0  0  0  0
 11 13  2  0  0  0  0
 11 26  1  0  0  0  0
 12 14  2  0  0  0  0
 12 27  1  0  0  0  0
 13 14  1  0  0  0  0
 13 28  1  0  0  0  0
 14 29  1  0  0  0  0
M  END
> <PUBCHEM_COMPOUND_CID>
15233

> <PUBCHEM_CONFORMER_RMSD>
0.6

> <PUBCHEM_CONFORMER_DIVERSEORDER>
1
84
77
78
11
52
34
60
70
80
29
73
79
39
24
47
51
55
82
36
12
67
69
30
20
68
65
15
81
90
49
75
72
64
37
86
54
89
45
61
25
44
74
4
53
41
88
46
76
13
27
63
66
87
2
21
40
71
10
62
14
23
83
48
32
38
56
57
22
17
19
9
35
59
3
18
42
33
5
85
31
8
58
43
7
28
6
16
50
26

> <PUBCHEM_MMFF94_PARTIAL_CHARGES>
17
1 -0.43
10 -0.15
11 -0.15
12 -0.15
13 -0.15
14 -0.15
2 -0.57
24 0.37
25 0.15
26 0.15
27 0.15
28 0.15
29 0.15
3 -0.55
6 0.28
8 0.12
9 0.78

> <PUBCHEM_EFFECTIVE_ROTOR_COUNT>
6

> <PUBCHEM_PHARMACOPHORE_FEATURES>
4
1 2 acceptor
1 3 donor
1 7 hydrophobe
6 8 10 11 12 13 14 rings

> <PUBCHEM_HEAVY_ATOM_COUNT>
14

> <PUBCHEM_ATOM_DEF_STEREO_COUNT>
0

> <PUBCHEM_ATOM_UDEF_STEREO_COUNT>
0

> <PUBCHEM_BOND_DEF_STEREO_COUNT>
0

> <PUBCHEM_BOND_UDEF_STEREO_COUNT>
0

> <PUBCHEM_ISOTOPIC_ATOM_COUNT>
0

> <PUBCHEM_COMPONENT_COUNT>
1

> <PUBCHEM_CACTVS_TAUTO_COUNT>
2

> <PUBCHEM_CONFORMER_ID>
00003B8100000001

> <PUBCHEM_MMFF94_ENERGY>
26.2072

> <PUBCHEM_FEATURE_SELFOVERLAP>
20.297

> <PUBCHEM_SHAPE_FINGERPRINT>
10968037 39 18407761451946159076
11315181 36 18344149202131052744
11401426 45 18410855464623582678
12091667 2 17240765068932746060
12236239 1 17967251992613252916
13288520 33 18410856581679135039
14123238 8 17022620875481784334
1420 363 17988928868765959630
14251718 22 18410575106617969866
14251731 8 18408602548229293764
17834072 33 18409450323476613756
17834072 8 18408316679511615021
17834076 25 15123509207266854726
187816 3 16225767415379390888
19489759 90 18412824676895235688
200 152 17561080315522348087
20279233 1 17775012288163845967
20645477 70 17417537895885440310
21267235 1 18336271223341454683
22485316 2 18411135827351671078
2297311 6 18343028782665802620
23402539 116 18413102866195584815
23559900 14 18342167912358843480
3545911 37 18411700971864439187
4214541 1 18410856555345082117
42788 4 18410856564462232068
4463277 17 18410856573316229068
5104073 3 18339928224215575513
57483677 66 18410009923376857442

> <PUBCHEM_SHAPE_MULTIPOLES>
271.39
13.54
1.27
0.6
17.99
0.04
0
-1.9
0.1
-1.14
0
-0.01
0
-0.01

> <PUBCHEM_SHAPE_SELFOVERLAP>
544.109

> <PUBCHEM_SHAPE_VOLUME>
159.6

> <PUBCHEM_COORDINATE_TYPE>
2
5
10

$$$$
