150089
  -OEChem-11012400303D

 21 20  0     0  0  0  0  0  0999 V2000
   -2.0928    0.0043   -0.7069 O   0  0  0  0  0  0  0  0  0  0  0  0
    2.5142    0.7743    1.2765 O   0  5  0  0  0  0  0  0  0  0  0  0
    1.8454    2.0999   -0.3493 O   0  0  0  0  0  0  0  0  0  0  0  0
   -2.8110   -0.2450    1.3725 O   0  5  0  0  0  0  0  0  0  0  0  0
   -4.3195    0.0202   -0.2479 O   0  0  0  0  0  0  0  0  0  0  0  0
    1.5911   -0.1235   -0.5666 N   0  0  0  0  0  0  0  0  0  0  0  0
    2.0244    0.9874    0.1610 N   0  3  0  0  0  0  0  0  0  0  0  0
   -3.1783   -0.0789    0.2088 N   0  3  0  0  0  0  0  0  0  0  0  0
    0.2557   -0.0169   -1.1608 C   0  0  0  0  0  0  0  0  0  0  0  0
    1.7703   -1.4238    0.0852 C   0  0  0  0  0  0  0  0  0  0  0  0
   -0.8183   -0.1210   -0.0897 C   0  0  0  0  0  0  0  0  0  0  0  0
    3.2188   -1.8770    0.0171 C   0  0  0  0  0  0  0  0  0  0  0  0
    0.1104   -0.8068   -1.9100 H   0  0  0  0  0  0  0  0  0  0  0  0
    0.1365    0.9138   -1.7306 H   0  0  0  0  0  0  0  0  0  0  0  0
    1.4135   -1.4355    1.1231 H   0  0  0  0  0  0  0  0  0  0  0  0
    1.1952   -2.1959   -0.4440 H   0  0  0  0  0  0  0  0  0  0  0  0
   -0.6878    0.6834    0.6454 H   0  0  0  0  0  0  0  0  0  0  0  0
   -0.7668   -1.0938    0.4129 H   0  0  0  0  0  0  0  0  0  0  0  0
    3.5710   -1.9148   -1.0197 H   0  0  0  0  0  0  0  0  0  0  0  0
    3.8939   -1.2270    0.5810 H   0  0  0  0  0  0  0  0  0  0  0  0
    3.3128   -2.8855    0.4339 H   0  0  0  0  0  0  0  0  0  0  0  0
  1  8  1  0  0  0  0
  1 11  1  0  0  0  0
  2  7  1  0  0  0  0
  3  7  2  0  0  0  0
  4  8  1  0  0  0  0
  5  8  2  0  0  0  0
  6  7  1  0  0  0  0
  6  9  1  0  0  0  0
  6 10  1  0  0  0  0
  9 11  1  0  0  0  0
  9 13  1  0  0  0  0
  9 14  1  0  0  0  0
 10 12  1  0  0  0  0
 10 15  1  0  0  0  0
 10 16  1  0  0  0  0
 11 17  1  0  0  0  0
 11 18  1  0  0  0  0
 12 19  1  0  0  0  0
 12 20  1  0  0  0  0
 12 21  1  0  0  0  0
M  CHG  4   2  -1   4  -1   7   1   8   1
M  END
> <PUBCHEM_COMPOUND_CID>
150089

> <PUBCHEM_CONFORMER_RMSD>
0.6

> <PUBCHEM_CONFORMER_DIVERSEORDER>
1
175
149
233
62
182
41
212
89
206
142
21
187
228
147
236
107
154
20
213
119
188
31
121
223
100
45
134
177
5
224
132
79
10
214
86
51
118
99
215
159
27
14
131
70
157
225
60
124
195
105
2
189
101
201
72
253
30
235
91
202
244
161
174
240
122
196
176
144
24
133
241
32
74
95
78
23
218
234
204
47
98
68
103
66
55
15
104
53
251
126
18
6
44
178
13
232
116
243
168
139
96
164
250
114
171
173
246
200
140
231
148
8
207
135
229
29
138
61
193
4
203
64
92
179
181
153
145
113
208
42
165
209
82
3
137
197
211
93
37
237
81
247
226
245
85
52
34
115
242
156
220
163
216
219
25
252
12
76
16
112
77
87
57
162
128
155
217
102
249
49
22
170
28
238
127
46
230
58
35
50
198
71
239
125
11
63
222
106
210
83
185
65
38
191
190
80
17
151
54
110
26
205
141
33
48
90
152
36
9
143
69
108
129
248
194
88
94
221
73
97
56
84
111
109
254
146
180
130
183
75
7
227
160
167
120
123
169
150
199
184
158
40
186
19
192
166
59
117
39
172
67
43
136

> <PUBCHEM_MMFF94_PARTIAL_CHARGES>
11
1 -0.27
10 0.27
11 0.28
2 -0.52
3 -0.52
4 -0.52
5 -0.52
6 -0.53
7 1.03
8 1.03
9 0.27

> <PUBCHEM_EFFECTIVE_ROTOR_COUNT>
6

> <PUBCHEM_PHARMACOPHORE_FEATURES>
4
1 2 acceptor
1 3 acceptor
1 4 acceptor
1 5 acceptor

> <PUBCHEM_HEAVY_ATOM_COUNT>
12

> <PUBCHEM_ATOM_DEF_STEREO_COUNT>
0

> <PUBCHEM_ATOM_UDEF_STEREO_COUNT>
0

> <PUBCHEM_BOND_DEF_STEREO_COUNT>
0

> <PUBCHEM_BOND_UDEF_STEREO_COUNT>
0

> <PUBCHEM_ISOTOPIC_ATOM_COUNT>
0

> <PUBCHEM_COMPONENT_COUNT>
1

> <PUBCHEM_CACTVS_TAUTO_COUNT>
1

> <PUBCHEM_CONFORMER_ID>
00024A4900000001

> <PUBCHEM_MMFF94_ENERGY>
26.5628

> <PUBCHEM_FEATURE_SELFOVERLAP>
20.449

> <PUBCHEM_SHAPE_FINGERPRINT>
12932764 1 18412832386667552383
15775835 57 17560795588859937552
20559304 39 17131837538284532274
20645477 70 18409444765673219719
20653091 64 18340776935950141144
20671657 1 18342181123867870492
20711985 344 16372126599017774821
20871998 22 18055636118869535222
21730867 7 18334859436977810182
3248919 1 17530969111569454255

> <PUBCHEM_SHAPE_MULTIPOLES>
202.66
6.23
1.54
1.02
6.05
0.3
-0.15
-1.39
-1.01
-2.11
-0.02
0.11
0.07
0.22

> <PUBCHEM_SHAPE_SELFOVERLAP>
380.77

> <PUBCHEM_SHAPE_VOLUME>
127.2

> <PUBCHEM_COORDINATE_TYPE>
2
5
10

$$$$
