3023
  -OEChem-11012400503D

 21 23  0     0  0  0  0  0  0999 V2000
    0.0000   -2.0752    0.0004 S   0  0  0  0  0  0  0  0  0  0  0  0
    0.7257    0.3977    0.0004 C   0  0  0  0  0  0  0  0  0  0  0  0
   -0.7257    0.3977    0.0003 C   0  0  0  0  0  0  0  0  0  0  0  0
    1.2467   -0.8971    0.0002 C   0  0  0  0  0  0  0  0  0  0  0  0
   -1.2467   -0.8972    0.0001 C   0  0  0  0  0  0  0  0  0  0  0  0
    1.6452    1.4792    0.0002 C   0  0  0  0  0  0  0  0  0  0  0  0
   -1.6452    1.4792    0.0002 C   0  0  0  0  0  0  0  0  0  0  0  0
    2.6356   -1.1373   -0.0002 C   0  0  0  0  0  0  0  0  0  0  0  0
   -2.6357   -1.1374   -0.0001 C   0  0  0  0  0  0  0  0  0  0  0  0
    3.0230    1.2462    0.0000 C   0  0  0  0  0  0  0  0  0  0  0  0
   -3.0229    1.2463   -0.0001 C   0  0  0  0  0  0  0  0  0  0  0  0
    3.5113   -0.0511   -0.0006 C   0  0  0  0  0  0  0  0  0  0  0  0
   -3.5113   -0.0510   -0.0006 C   0  0  0  0  0  0  0  0  0  0  0  0
    1.2830    2.5046    0.0003 H   0  0  0  0  0  0  0  0  0  0  0  0
   -1.2830    2.5046    0.0003 H   0  0  0  0  0  0  0  0  0  0  0  0
    3.0267   -2.1510   -0.0004 H   0  0  0  0  0  0  0  0  0  0  0  0
   -3.0268   -2.1510   -0.0003 H   0  0  0  0  0  0  0  0  0  0  0  0
    3.7116    2.0862   -0.0001 H   0  0  0  0  0  0  0  0  0  0  0  0
   -3.7116    2.0863   -0.0003 H   0  0  0  0  0  0  0  0  0  0  0  0
    4.5838   -0.2257   -0.0011 H   0  0  0  0  0  0  0  0  0  0  0  0
   -4.5838   -0.2256   -0.0009 H   0  0  0  0  0  0  0  0  0  0  0  0
  1  4  1  0  0  0  0
  1  5  1  0  0  0  0
  2  3  1  0  0  0  0
  2  4  1  0  0  0  0
  2  6  2  0  0  0  0
  3  5  1  0  0  0  0
  3  7  2  0  0  0  0
  4  8  2  0  0  0  0
  5  9  2  0  0  0  0
  6 10  1  0  0  0  0
  6 14  1  0  0  0  0
  7 11  1  0  0  0  0
  7 15  1  0  0  0  0
  8 12  1  0  0  0  0
  8 16  1  0  0  0  0
  9 13  1  0  0  0  0
  9 17  1  0  0  0  0
 10 12  2  0  0  0  0
 10 18  1  0  0  0  0
 11 13  2  0  0  0  0
 11 19  1  0  0  0  0
 12 20  1  0  0  0  0
 13 21  1  0  0  0  0
M  END
> <PUBCHEM_COMPOUND_CID>
3023

> <PUBCHEM_CONFORMER_RMSD>
0.4

> <PUBCHEM_CONFORMER_DIVERSEORDER>
1

> <PUBCHEM_MMFF94_PARTIAL_CHARGES>
19
1 -0.08
10 -0.15
11 -0.15
12 -0.15
13 -0.15
14 0.15
15 0.15
16 0.15
17 0.15
18 0.15
19 0.15
20 0.15
21 0.15
4 0.04
5 0.04
6 -0.15
7 -0.15
8 -0.15
9 -0.15

> <PUBCHEM_EFFECTIVE_ROTOR_COUNT>
0

> <PUBCHEM_PHARMACOPHORE_FEATURES>
3
5 1 2 3 4 5 rings
6 2 4 6 8 10 12 rings
6 3 5 7 9 11 13 rings

> <PUBCHEM_HEAVY_ATOM_COUNT>
13

> <PUBCHEM_ATOM_DEF_STEREO_COUNT>
0

> <PUBCHEM_ATOM_UDEF_STEREO_COUNT>
0

> <PUBCHEM_BOND_DEF_STEREO_COUNT>
0

> <PUBCHEM_BOND_UDEF_STEREO_COUNT>
0

> <PUBCHEM_ISOTOPIC_ATOM_COUNT>
0

> <PUBCHEM_COMPONENT_COUNT>
1

> <PUBCHEM_CACTVS_TAUTO_COUNT>
1

> <PUBCHEM_CONFORMER_ID>
00000BCF00000001

> <PUBCHEM_MMFF94_ENERGY>
33.0927

> <PUBCHEM_FEATURE_SELFOVERLAP>
15.339

> <PUBCHEM_SHAPE_FINGERPRINT>
10608611 8 18410570690911983328
10967382 1 18410575076073183303
11132069 177 18411975862503310896
11471102 20 18410851027969890805
12032990 46 18410581686028033731
12491281 212 18339372884933574697
13380535 76 18410572889935167427
13897977 150 18410571773470166565
14144814 61 18410292505943128832
14325111 11 18410855464433860480
15196674 1 18410855460128187777
15219456 202 18412265029766383607
15309172 13 18412553106313784115
15442244 35 18194964037306670090
15536298 74 18343301453365575846
15775835 57 18410579482709732932
16945 1 18410855460133657411
17844478 74 18187938299881416625
18186145 218 18343026557856834540
193761 8 17473826121847013004
200 152 18131057243577880053
20201158 50 18412545388093983695
20510252 161 18272091625399633673
20645476 183 17823716324300950206
20645477 70 18340200783299251471
20871998 184 18128261275418415967
21267235 1 18410583885051425703
21501502 16 18410855464423155079
2334 1 18410574019521764997
23402539 116 18342164596469575862
23402655 69 18269824347183248645
23463225 33 18335417928981966610
23552423 10 18334858320328524207
23559900 14 18272092682931999718
25 1 18337110055654305631
2748010 2 18410294713503519485
335352 9 18050567343914922238
5104073 3 18410575088958053715
528886 8 18410849954038156234
53812653 166 18341889693114685304
57096353 35 18339359793915324853
63268167 104 18340772554661499728
6333449 129 18411134757830747047
69090 78 18343578564434117287
7364860 26 18197498424362149030
8809292 202 18261398861776510387
9709674 26 18412268367099008182

> <PUBCHEM_SHAPE_MULTIPOLES>
271.38
5.66
1.92
0.62
0
0.27
0
-1
0
0
0
0
0.01
0

> <PUBCHEM_SHAPE_SELFOVERLAP>
598.69

> <PUBCHEM_SHAPE_VOLUME>
146.9

> <PUBCHEM_COORDINATE_TYPE>
2
5
10

$$$$
