698320
  -OEChem-11012401133D

 31 32  0     0  0  0  0  0  0999 V2000
   -2.6897    4.1804   -0.0358 Cl  0  0  0  0  0  0  0  0  0  0  0  0
    4.4501    0.9349   -0.3339 O   0  0  0  0  0  0  0  0  0  0  0  0
   -3.4238   -3.3039    0.2280 N   0  0  0  0  0  0  0  0  0  0  0  0
    1.0012   -1.3619   -0.0943 C   0  0  0  0  0  0  0  0  0  0  0  0
   -1.7457   -0.2063    0.0375 C   0  0  0  0  0  0  0  0  0  0  0  0
   -0.2069   -2.1673   -0.0102 C   0  0  0  0  0  0  0  0  0  0  0  0
   -1.4356   -1.6505    0.0614 C   0  0  0  0  0  0  0  0  0  0  0  0
    1.4872   -0.9610   -1.3388 C   0  0  0  0  0  0  0  0  0  0  0  0
    1.6742   -0.9907    1.0697 C   0  0  0  0  0  0  0  0  0  0  0  0
    3.3192    0.1821   -0.2551 C   0  0  0  0  0  0  0  0  0  0  0  0
    2.6462   -0.1890   -1.4191 C   0  0  0  0  0  0  0  0  0  0  0  0
    2.8331   -0.2187    0.9894 C   0  0  0  0  0  0  0  0  0  0  0  0
   -1.8157    0.4886    1.2317 C   0  0  0  0  0  0  0  0  0  0  0  0
   -1.9596    0.4176   -1.1789 C   0  0  0  0  0  0  0  0  0  0  0  0
   -2.1093    1.8520    1.2090 C   0  0  0  0  0  0  0  0  0  0  0  0
   -2.2531    1.7811   -1.2015 C   0  0  0  0  0  0  0  0  0  0  0  0
   -2.3280    2.4983   -0.0076 C   0  0  0  0  0  0  0  0  0  0  0  0
   -2.5322   -2.5646    0.1533 C   0  0  0  0  0  0  0  0  0  0  0  0
    5.0883    1.2790    0.8951 C   0  0  0  0  0  0  0  0  0  0  0  0
   -0.0429   -3.2426    0.0075 H   0  0  0  0  0  0  0  0  0  0  0  0
    0.9752   -1.2431   -2.2556 H   0  0  0  0  0  0  0  0  0  0  0  0
    1.3072   -1.2962    2.0469 H   0  0  0  0  0  0  0  0  0  0  0  0
    3.0201    0.1202   -2.3914 H   0  0  0  0  0  0  0  0  0  0  0  0
    3.3058    0.0341    1.9324 H   0  0  0  0  0  0  0  0  0  0  0  0
   -1.6471   -0.0034    2.1859 H   0  0  0  0  0  0  0  0  0  0  0  0
   -1.9043   -0.1301   -2.1158 H   0  0  0  0  0  0  0  0  0  0  0  0
   -2.1641    2.3983    2.1472 H   0  0  0  0  0  0  0  0  0  0  0  0
   -2.4209    2.2714   -2.1570 H   0  0  0  0  0  0  0  0  0  0  0  0
    5.9700    1.8782    0.6448 H   0  0  0  0  0  0  0  0  0  0  0  0
    4.4437    1.9049    1.5217 H   0  0  0  0  0  0  0  0  0  0  0  0
    5.4459    0.3899    1.4255 H   0  0  0  0  0  0  0  0  0  0  0  0
  1 17  1  0  0  0  0
  2 10  1  0  0  0  0
  2 19  1  0  0  0  0
  3 18  3  0  0  0  0
  4  6  1  0  0  0  0
  4  8  2  0  0  0  0
  4  9  1  0  0  0  0
  5  7  1  0  0  0  0
  5 13  2  0  0  0  0
  5 14  1  0  0  0  0
  6  7  2  0  0  0  0
  6 20  1  0  0  0  0
  7 18  1  0  0  0  0
  8 11  1  0  0  0  0
  8 21  1  0  0  0  0
  9 12  2  0  0  0  0
  9 22  1  0  0  0  0
 10 11  2  0  0  0  0
 10 12  1  0  0  0  0
 11 23  1  0  0  0  0
 12 24  1  0  0  0  0
 13 15  1  0  0  0  0
 13 25  1  0  0  0  0
 14 16  2  0  0  0  0
 14 26  1  0  0  0  0
 15 17  2  0  0  0  0
 15 27  1  0  0  0  0
 16 17  1  0  0  0  0
 16 28  1  0  0  0  0
 19 29  1  0  0  0  0
 19 30  1  0  0  0  0
 19 31  1  0  0  0  0
M  END
> <PUBCHEM_COMPOUND_CID>
698320

> <PUBCHEM_CONFORMER_RMSD>
0.6

> <PUBCHEM_CONFORMER_DIVERSEORDER>
1
3
2
4

> <PUBCHEM_MMFF94_PARTIAL_CHARGES>
28
1 -0.18
10 0.08
11 -0.15
12 -0.15
13 -0.15
14 -0.15
15 -0.15
16 -0.15
17 0.18
18 0.49
19 0.28
2 -0.36
20 0.15
21 0.15
22 0.15
23 0.15
24 0.15
25 0.15
26 0.15
27 0.15
28 0.15
3 -0.56
4 0.03
5 0.03
6 -0.18
7 0.04
8 -0.15
9 -0.15

> <PUBCHEM_EFFECTIVE_ROTOR_COUNT>
3

> <PUBCHEM_PHARMACOPHORE_FEATURES>
4
1 2 acceptor
1 3 acceptor
6 4 8 9 10 11 12 rings
6 5 13 14 15 16 17 rings

> <PUBCHEM_HEAVY_ATOM_COUNT>
19

> <PUBCHEM_ATOM_DEF_STEREO_COUNT>
0

> <PUBCHEM_ATOM_UDEF_STEREO_COUNT>
0

> <PUBCHEM_BOND_DEF_STEREO_COUNT>
1

> <PUBCHEM_BOND_UDEF_STEREO_COUNT>
0

> <PUBCHEM_ISOTOPIC_ATOM_COUNT>
0

> <PUBCHEM_COMPONENT_COUNT>
1

> <PUBCHEM_CACTVS_TAUTO_COUNT>
1

> <PUBCHEM_CONFORMER_ID>
000AA7D000000001

> <PUBCHEM_MMFF94_ENERGY>
63.5093

> <PUBCHEM_FEATURE_SELFOVERLAP>
20.297

> <PUBCHEM_SHAPE_FINGERPRINT>
10165383 225 17692858862495651917
10498660 4 18410574002336640700
10670039 82 18193573379185647228
11640471 11 18113894906017839440
11725454 13 16084445919115106453
12107183 9 18046332043259660122
12173636 292 18266181634726403293
12788726 201 18188197801795444083
13764800 53 18341058436464715987
13965767 371 17753047194337129228
14142880 1 18260825986422602461
17134986 127 17907019478301335709
17357779 13 18058156409926231519
1741750 31 18338795611427614816
18981168 100 18268161859025041174
19765921 60 17840006465434789721
200 152 16951678284592154826
20510252 161 18338516447054106410
20600515 1 17982470483172122711
20671657 1 17974569100293261162
21524375 3 17899704457675493547
21864079 5 18195246620264091424
22182937 141 18343590620154330632
22956985 138 16242371479899830618
23227448 37 18413111671090122505
23402539 116 18125998506063350750
23419403 2 17686874513206730951
23557571 272 18340210807389007686
23558518 356 18259989240641320826
27216 239 18261398823116562473
350125 39 18265908951384697755
469060 322 18264783231707739627
474 4 17761486994194839225
495365 180 17686058293163723269
621550 34 17916597573294552150
633830 44 17484528832842085177
6442390 28 18124897667896451811
7399639 24 17987808539273964486
7808743 9 18409738339625699724
81228 2 18265072347769191099
84936 182 17693650420789875721
9981440 41 18270101440686818378

> <PUBCHEM_SHAPE_MULTIPOLES>
382.03
7.23
3.86
1.3
8.41
0.72
-0.13
4.33
0.67
-5.59
0.29
0.27
0.22
0.52

> <PUBCHEM_SHAPE_SELFOVERLAP>
812.613

> <PUBCHEM_SHAPE_VOLUME>
214.2

> <PUBCHEM_COORDINATE_TYPE>
2
5
10

$$$$
