73943
  -OEChem-11012400503D

 15 14  0     0  0  0  0  0  0999 V2000
   -1.7312   -1.5372   -0.0014 F   0  0  0  0  0  0  0  0  0  0  0  0
   -2.4121    0.2132   -1.1074 F   0  0  0  0  0  0  0  0  0  0  0  0
   -2.4402    0.2210    1.0734 F   0  0  0  0  0  0  0  0  0  0  0  0
   -0.1389    1.5939    0.0411 O   0  0  0  0  0  0  0  0  0  0  0  0
    2.4552    1.1226   -0.0448 O   0  0  0  0  0  0  0  0  0  0  0  0
    0.7964   -0.6331    0.0258 C   0  0  0  0  0  0  0  0  0  0  0  0
   -0.3293    0.3796    0.0081 C   0  0  0  0  0  0  0  0  0  0  0  0
    2.2065   -0.0807    0.0063 C   0  0  0  0  0  0  0  0  0  0  0  0
   -1.7238   -0.1802   -0.0066 C   0  0  0  0  0  0  0  0  0  0  0  0
    3.3175   -1.0991    0.0054 C   0  0  0  0  0  0  0  0  0  0  0  0
    0.6883   -1.2353    0.9341 H   0  0  0  0  0  0  0  0  0  0  0  0
    0.6820   -1.2727   -0.8560 H   0  0  0  0  0  0  0  0  0  0  0  0
    3.2268   -1.7412    0.8850 H   0  0  0  0  0  0  0  0  0  0  0  0
    4.2848   -0.5903    0.0412 H   0  0  0  0  0  0  0  0  0  0  0  0
    3.2640   -1.6985   -0.9066 H   0  0  0  0  0  0  0  0  0  0  0  0
  1  9  1  0  0  0  0
  2  9  1  0  0  0  0
  3  9  1  0  0  0  0
  4  7  2  0  0  0  0
  5  8  2  0  0  0  0
  6  7  1  0  0  0  0
  6  8  1  0  0  0  0
  6 11  1  0  0  0  0
  6 12  1  0  0  0  0
  7  9  1  0  0  0  0
  8 10  1  0  0  0  0
 10 13  1  0  0  0  0
 10 14  1  0  0  0  0
 10 15  1  0  0  0  0
M  END
> <PUBCHEM_COMPOUND_CID>
73943

> <PUBCHEM_CONFORMER_RMSD>
0.6

> <PUBCHEM_CONFORMER_DIVERSEORDER>
1
4
9
8
13
6
10
5
3
7
2
12
11

> <PUBCHEM_MMFF94_PARTIAL_CHARGES>
10
1 -0.34
10 0.06
2 -0.34
3 -0.34
4 -0.57
5 -0.57
6 0.12
7 0.45
8 0.45
9 1.08

> <PUBCHEM_EFFECTIVE_ROTOR_COUNT>
3

> <PUBCHEM_PHARMACOPHORE_FEATURES>
3
1 4 acceptor
1 5 acceptor
1 6 anion

> <PUBCHEM_HEAVY_ATOM_COUNT>
10

> <PUBCHEM_ATOM_DEF_STEREO_COUNT>
0

> <PUBCHEM_ATOM_UDEF_STEREO_COUNT>
0

> <PUBCHEM_BOND_DEF_STEREO_COUNT>
0

> <PUBCHEM_BOND_UDEF_STEREO_COUNT>
0

> <PUBCHEM_ISOTOPIC_ATOM_COUNT>
0

> <PUBCHEM_COMPONENT_COUNT>
1

> <PUBCHEM_CACTVS_TAUTO_COUNT>
5

> <PUBCHEM_CONFORMER_ID>
000120D700000001

> <PUBCHEM_MMFF94_ENERGY>
7.5179

> <PUBCHEM_FEATURE_SELFOVERLAP>
15.232

> <PUBCHEM_SHAPE_FINGERPRINT>
10857977 72 18340476884991903658
12897270 3 18408319978067519198
12932764 1 17749106690628368138
14325111 11 18410575106501912258
15310529 11 16588026792394774970
20201158 50 18411133598253276958
20653085 51 16371010646181420964
23552423 10 18260268577034826534
29004967 10 18187369856322101240
3248919 1 17918275350660015694
369184 2 18335420170712185091
5084963 1 18130499752269454834

> <PUBCHEM_SHAPE_MULTIPOLES>
172.24
4.52
1.28
0.74
1.7
0.09
-0.01
-0.9
-0.02
0.23
0
-0.42
0.01
-0.02

> <PUBCHEM_SHAPE_SELFOVERLAP>
334.967

> <PUBCHEM_SHAPE_VOLUME>
104.2

> <PUBCHEM_COORDINATE_TYPE>
2
5
10

$$$$
