7226
  -OEChem-11012401143D

 16 17  0     0  0  0  0  0  0999 V2000
    3.9007    0.7316    0.0002 Cl  0  0  0  0  0  0  0  0  0  0  0  0
   -1.5642    1.5623   -0.0004 S   0  0  0  0  0  0  0  0  0  0  0  0
   -1.7470   -1.0104   -0.0003 N   0  0  0  0  0  0  0  0  0  0  0  0
   -3.8078    0.1428    0.0009 N   0  0  0  0  0  0  0  0  0  0  0  0
   -0.0938    0.6618   -0.0002 C   0  0  0  0  0  0  0  0  0  0  0  0
   -0.3940   -0.7037   -0.0002 C   0  0  0  0  0  0  0  0  0  0  0  0
    1.2300    1.1300    0.0000 C   0  0  0  0  0  0  0  0  0  0  0  0
    0.6702   -1.6315   -0.0001 C   0  0  0  0  0  0  0  0  0  0  0  0
   -2.4491    0.0986   -0.0003 C   0  0  0  0  0  0  0  0  0  0  0  0
    2.2645    0.1909    0.0002 C   0  0  0  0  0  0  0  0  0  0  0  0
    1.9905   -1.1724    0.0001 C   0  0  0  0  0  0  0  0  0  0  0  0
    1.4384    2.1963    0.0000 H   0  0  0  0  0  0  0  0  0  0  0  0
    0.4673   -2.6987   -0.0002 H   0  0  0  0  0  0  0  0  0  0  0  0
    2.7981   -1.9007    0.0003 H   0  0  0  0  0  0  0  0  0  0  0  0
   -4.3140    1.0222    0.0013 H   0  0  0  0  0  0  0  0  0  0  0  0
   -4.3699   -0.7020    0.0015 H   0  0  0  0  0  0  0  0  0  0  0  0
  1 10  1  0  0  0  0
  2  5  1  0  0  0  0
  2  9  1  0  0  0  0
  3  6  1  0  0  0  0
  3  9  2  0  0  0  0
  4  9  1  0  0  0  0
  4 15  1  0  0  0  0
  4 16  1  0  0  0  0
  5  6  2  0  0  0  0
  5  7  1  0  0  0  0
  6  8  1  0  0  0  0
  7 10  2  0  0  0  0
  7 12  1  0  0  0  0
  8 11  2  0  0  0  0
  8 13  1  0  0  0  0
 10 11  1  0  0  0  0
 11 14  1  0  0  0  0
M  END
> <PUBCHEM_COMPOUND_CID>
7226

> <PUBCHEM_CONFORMER_RMSD>
0.4

> <PUBCHEM_CONFORMER_DIVERSEORDER>
1

> <PUBCHEM_MMFF94_PARTIAL_CHARGES>
16
1 -0.18
10 0.18
11 -0.15
12 0.15
13 0.15
14 0.15
15 0.4
16 0.4
2 -0.08
3 -0.57
4 -0.88
5 0.04
6 0.23
7 -0.15
8 -0.15
9 0.46

> <PUBCHEM_EFFECTIVE_ROTOR_COUNT>
0

> <PUBCHEM_PHARMACOPHORE_FEATURES>
4
1 4 donor
3 3 4 9 cation
5 2 3 5 6 9 rings
6 5 6 7 8 10 11 rings

> <PUBCHEM_HEAVY_ATOM_COUNT>
11

> <PUBCHEM_ATOM_DEF_STEREO_COUNT>
0

> <PUBCHEM_ATOM_UDEF_STEREO_COUNT>
0

> <PUBCHEM_BOND_DEF_STEREO_COUNT>
0

> <PUBCHEM_BOND_UDEF_STEREO_COUNT>
0

> <PUBCHEM_ISOTOPIC_ATOM_COUNT>
0

> <PUBCHEM_COMPONENT_COUNT>
1

> <PUBCHEM_CACTVS_TAUTO_COUNT>
2

> <PUBCHEM_CONFORMER_ID>
00001C3A00000001

> <PUBCHEM_MMFF94_ENERGY>
19.5109

> <PUBCHEM_FEATURE_SELFOVERLAP>
20.368

> <PUBCHEM_SHAPE_FINGERPRINT>
10219947 1 18260550026009657340
11062470 55 17603302661039550772
11471102 20 18410569553162017685
12897270 3 18411138038916774853
12932764 1 17059761248248677025
13380535 76 18409729573280677706
14325111 11 18410855421568642020
15775835 57 18343585152623616932
16945 1 18410573993746673476
17844478 74 18113909234350654577
193761 8 17906453221275954340
20201158 50 18409166610368209171
20645477 70 18339636716733538911
21040471 1 18410574036986613702
21501502 16 18266740169004921313
23235685 24 18409161134374616452
23402539 116 18341321271103858180
23402655 69 18341319004126250933
23463225 33 18334571305323932802
23552423 10 18190746327634600458
2748010 2 18193838137183478260
5084963 1 18343584010151799345
528886 8 18411414037847151906
53812653 166 18343578577419194144
63268167 104 18412547569868662136
7364860 26 18270680840707919694

> <PUBCHEM_SHAPE_MULTIPOLES>
222.13
5.23
1.59
0.61
0.24
0.12
0
-1.06
0
0.16
0
0.04
-0.02
0

> <PUBCHEM_SHAPE_SELFOVERLAP>
462.627

> <PUBCHEM_SHAPE_VOLUME>
129.3

> <PUBCHEM_COORDINATE_TYPE>
2
5
10

$$$$
