141441
  -OEChem-11012401123D

 42 42  0     0  0  0  0  0  0999 V2000
    1.1939    4.4386   -1.4511 F   0  0  0  0  0  0  0  0  0  0  0  0
   -5.4638   -1.6903   -1.3307 F   0  0  0  0  0  0  0  0  0  0  0  0
    3.6097   -3.6229    1.4473 F   0  0  0  0  0  0  0  0  0  0  0  0
    0.1811    2.1309   -0.2309 O   0  0  0  0  0  0  0  0  0  0  0  0
   -2.9706   -1.2477   -0.1398 O   0  0  0  0  0  0  0  0  0  0  0  0
    1.5316   -2.2725    0.1480 O   0  0  0  0  0  0  0  0  0  0  0  0
    1.3544    4.4962    1.9656 O   0  5  0  0  0  0  0  0  0  0  0  0
    3.9679    3.7162    0.3098 O   0  5  0  0  0  0  0  0  0  0  0  0
   -5.6244   -1.0777    2.0311 O   0  5  0  0  0  0  0  0  0  0  0  0
   -6.2228    1.3063   -0.0035 O   0  5  0  0  0  0  0  0  0  0  0  0
    3.9334   -3.5309   -1.9571 O   0  5  0  0  0  0  0  0  0  0  0  0
    5.5690   -1.4347   -0.1930 O   0  5  0  0  0  0  0  0  0  0  0  0
    0.1371    5.5349    0.4589 O   0  0  0  0  0  0  0  0  0  0  0  0
    3.4175    5.4593   -0.9103 O   0  0  0  0  0  0  0  0  0  0  0  0
   -5.9120   -2.8544    0.7696 O   0  0  0  0  0  0  0  0  0  0  0  0
   -7.4550   -0.2002   -1.0240 O   0  0  0  0  0  0  0  0  0  0  0  0
    3.4473   -5.0970   -0.4938 O   0  0  0  0  0  0  0  0  0  0  0  0
    6.0435   -3.2012    1.0252 O   0  0  0  0  0  0  0  0  0  0  0  0
    1.0107    4.7260    0.7981 N   0  3  0  0  0  0  0  0  0  0  0  0
    3.1482    4.4154   -0.3013 N   0  3  0  0  0  0  0  0  0  0  0  0
   -5.6436   -1.6573    0.9367 N   0  3  0  0  0  0  0  0  0  0  0  0
   -6.4199    0.1696   -0.4539 N   0  3  0  0  0  0  0  0  0  0  0  0
    3.7259   -3.9312   -0.8036 N   0  3  0  0  0  0  0  0  0  0  0  0
    5.2603   -2.4832    0.3893 N   0  3  0  0  0  0  0  0  0  0  0  0
   -1.4305    0.4782   -0.1895 N   0  0  0  0  0  0  0  0  0  0  0  0
    0.9047   -0.0534   -0.0404 N   0  0  0  0  0  0  0  0  0  0  0  0
   -0.7308   -1.8086    0.0070 N   0  0  0  0  0  0  0  0  0  0  0  0
    1.7142    3.9713   -0.2912 C   0  0  0  0  0  0  0  0  0  0  0  0
   -5.3252   -0.8436   -0.2828 C   0  0  0  0  0  0  0  0  0  0  0  0
    3.8284   -2.9268    0.3062 C   0  0  0  0  0  0  0  0  0  0  0  0
    1.5629    2.4714   -0.1894 C   0  0  0  0  0  0  0  0  0  0  0  0
   -3.9477   -0.2236   -0.2594 C   0  0  0  0  0  0  0  0  0  0  0  0
    2.8612   -1.7734    0.1757 C   0  0  0  0  0  0  0  0  0  0  0  0
   -0.1273    0.7990   -0.1504 C   0  0  0  0  0  0  0  0  0  0  0  0
   -1.6567   -0.8427   -0.1060 C   0  0  0  0  0  0  0  0  0  0  0  0
    0.5273   -1.3399    0.0335 C   0  0  0  0  0  0  0  0  0  0  0  0
    2.0736    2.0006   -1.0398 H   0  0  0  0  0  0  0  0  0  0  0  0
    2.0020    2.0977    0.7452 H   0  0  0  0  0  0  0  0  0  0  0  0
   -3.7844    0.3211   -1.1988 H   0  0  0  0  0  0  0  0  0  0  0  0
   -3.8497    0.4748    0.5824 H   0  0  0  0  0  0  0  0  0  0  0  0
    2.9777   -1.1087    1.0420 H   0  0  0  0  0  0  0  0  0  0  0  0
    3.0566   -1.2035   -0.7424 H   0  0  0  0  0  0  0  0  0  0  0  0
  1 28  1  0  0  0  0
  2 29  1  0  0  0  0
  3 30  1  0  0  0  0
  4 31  1  0  0  0  0
  4 34  1  0  0  0  0
  5 32  1  0  0  0  0
  5 35  1  0  0  0  0
  6 33  1  0  0  0  0
  6 36  1  0  0  0  0
  7 19  1  0  0  0  0
  8 20  1  0  0  0  0
  9 21  1  0  0  0  0
 10 22  1  0  0  0  0
 11 23  1  0  0  0  0
 12 24  1  0  0  0  0
 13 19  2  0  0  0  0
 14 20  2  0  0  0  0
 15 21  2  0  0  0  0
 16 22  2  0  0  0  0
 17 23  2  0  0  0  0
 18 24  2  0  0  0  0
 19 28  1  0  0  0  0
 20 28  1  0  0  0  0
 21 29  1  0  0  0  0
 22 29  1  0  0  0  0
 23 30  1  0  0  0  0
 24 30  1  0  0  0  0
 25 34  2  0  0  0  0
 25 35  1  0  0  0  0
 26 34  1  0  0  0  0
 26 36  2  0  0  0  0
 27 35  2  0  0  0  0
 27 36  1  0  0  0  0
 28 31  1  0  0  0  0
 29 32  1  0  0  0  0
 30 33  1  0  0  0  0
 31 37  1  0  0  0  0
 31 38  1  0  0  0  0
 32 39  1  0  0  0  0
 32 40  1  0  0  0  0
 33 41  1  0  0  0  0
 33 42  1  0  0  0  0
M  CHG  8   7  -1   8  -1   9  -1  10  -1  11  -1  12  -1  19   1  20   1
M  CHG  4  21   1  22   1  23   1  24   1
M  END
> <PUBCHEM_COMPOUND_CID>
141441

> <PUBCHEM_CONFORMER_RMSD>
1.2

> <PUBCHEM_CONFORMER_DIVERSEORDER>
1
2
7
6
8
4
5
3

> <PUBCHEM_MMFF94_PARTIAL_CHARGES>
36
1 -0.34
10 -0.52
11 -0.52
12 -0.52
13 -0.52
14 -0.52
15 -0.52
16 -0.52
17 -0.52
18 -0.52
19 0.8
2 -0.34
20 0.8
21 0.8
22 0.8
23 0.8
24 0.8
25 -0.62
26 -0.62
27 -0.62
28 0.82
29 0.82
3 -0.34
30 0.82
31 0.28
32 0.28
33 0.28
34 0.7
35 0.7
36 0.7
4 -0.36
5 -0.36
6 -0.36
7 -0.52
8 -0.52
9 -0.52

> <PUBCHEM_EFFECTIVE_ROTOR_COUNT>
15

> <PUBCHEM_PHARMACOPHORE_FEATURES>
22
1 10 acceptor
1 10 anion
1 11 acceptor
1 11 anion
1 12 acceptor
1 12 anion
1 13 acceptor
1 14 acceptor
1 15 acceptor
1 16 acceptor
1 17 acceptor
1 18 acceptor
1 7 acceptor
1 7 anion
1 8 acceptor
1 8 anion
1 9 acceptor
1 9 anion
3 25 26 34 cation
3 25 27 35 cation
3 26 27 36 cation
6 25 26 27 34 35 36 rings

> <PUBCHEM_HEAVY_ATOM_COUNT>
36

> <PUBCHEM_ATOM_DEF_STEREO_COUNT>
0

> <PUBCHEM_ATOM_UDEF_STEREO_COUNT>
0

> <PUBCHEM_BOND_DEF_STEREO_COUNT>
0

> <PUBCHEM_BOND_UDEF_STEREO_COUNT>
0

> <PUBCHEM_ISOTOPIC_ATOM_COUNT>
0

> <PUBCHEM_COMPONENT_COUNT>
1

> <PUBCHEM_CACTVS_TAUTO_COUNT>
1

> <PUBCHEM_CONFORMER_ID>
0002288100000001

> <PUBCHEM_MMFF94_ENERGY>
90.0389

> <PUBCHEM_FEATURE_SELFOVERLAP>
114.927

> <PUBCHEM_SHAPE_FINGERPRINT>
10050765 1 18337106899829912799
10074138 170 17544736946536998000
10411042 1 18265892463062932838
11062273 19 18410859905683246100
11331351 85 18058168328206925967
11488393 25 18409171047280688905
11763715 3 17977129893408653982
12218070 45 17480872922367919953
12516196 113 18338231557731609983
12788726 201 17683523940215132731
13540713 4 17968375767049867531
13590594 115 18338239237449354441
13955234 65 18267025140411987451
14790565 3 17690278630748791430
15198563 99 18051132493224142844
15439362 3 18263921201785963805
15927050 60 17978795941282255454
20238998 120 18341043000257522872
21049683 271 18260276278048299908
23559900 14 18408598159326969179
24771293 8 18200580463224464410
24771750 20 18045796834003878134
249999 5 18265613358654624353
283562 15 17974850571059504834
3103668 31 17830452778836897133
3886686 26 16531694139196989002
4046055 4 18050570638313113444
4144715 1 18260269685727194073
5385378 56 18194412306103465641
6700243 42 17412773626018766462
79837 15 17257088701863123922
9962374 69 18341884226450285167

> <PUBCHEM_SHAPE_MULTIPOLES>
586.17
15.05
8.72
1.16
24.31
11.19
-0.17
-14.1
-0.15
-16.53
-0.03
0.14
-0.08
0.24

> <PUBCHEM_SHAPE_SELFOVERLAP>
1223.547

> <PUBCHEM_SHAPE_VOLUME>
329.3

> <PUBCHEM_COORDINATE_TYPE>
2
5
10

$$$$
