30889
  -OEChem-11012400423D

 28 27  0     0  0  0  0  0  0999 V2000
    0.0072    0.0082   -0.9270 N   0  0  0  0  0  0  0  0  0  0  0  0
   -1.2019    0.0002   -0.0969 C   0  0  0  0  0  0  0  0  0  0  0  0
    1.1983    0.0002   -0.0947 C   0  0  0  0  0  0  0  0  0  0  0  0
   -1.1989   -1.2714    0.7584 C   0  0  0  0  0  0  0  0  0  0  0  0
   -1.1837    1.2397    0.8039 C   0  0  0  0  0  0  0  0  0  0  0  0
   -2.4399    0.0239   -1.0011 C   0  0  0  0  0  0  0  0  0  0  0  0
    2.3180   -0.7224   -0.8511 C   0  0  0  0  0  0  0  0  0  0  0  0
    1.6055    1.4500    0.1884 C   0  0  0  0  0  0  0  0  0  0  0  0
    0.8953   -0.7284    1.2200 C   0  0  0  0  0  0  0  0  0  0  0  0
   -0.0078   -0.8121   -1.5336 H   0  0  0  0  0  0  0  0  0  0  0  0
   -1.1644   -1.2013    1.8526 H   0  0  0  0  0  0  0  0  0  0  0  0
   -2.2448   -1.6330    0.7146 H   0  0  0  0  0  0  0  0  0  0  0  0
   -0.7392   -2.1539    0.2901 H   0  0  0  0  0  0  0  0  0  0  0  0
   -0.9713    2.1504    0.2291 H   0  0  0  0  0  0  0  0  0  0  0  0
   -0.6034    1.2510    1.7210 H   0  0  0  0  0  0  0  0  0  0  0  0
   -2.2072    1.3950    1.1779 H   0  0  0  0  0  0  0  0  0  0  0  0
   -2.4741   -0.8552   -1.6556 H   0  0  0  0  0  0  0  0  0  0  0  0
   -3.3667    0.0396   -0.4161 H   0  0  0  0  0  0  0  0  0  0  0  0
   -2.4431    0.9136   -1.6421 H   0  0  0  0  0  0  0  0  0  0  0  0
    2.5423   -0.2241   -1.8018 H   0  0  0  0  0  0  0  0  0  0  0  0
    3.2448   -0.7455   -0.2663 H   0  0  0  0  0  0  0  0  0  0  0  0
    2.0479   -1.7614   -1.0751 H   0  0  0  0  0  0  0  0  0  0  0  0
    1.1682    1.9099    1.0746 H   0  0  0  0  0  0  0  0  0  0  0  0
    1.4168    2.1028   -0.6730 H   0  0  0  0  0  0  0  0  0  0  0  0
    2.6883    1.5013    0.3662 H   0  0  0  0  0  0  0  0  0  0  0  0
    0.8797   -1.8264    1.1805 H   0  0  0  0  0  0  0  0  0  0  0  0
    1.8938   -0.6823    1.7082 H   0  0  0  0  0  0  0  0  0  0  0  0
    0.4022   -0.2404    2.0602 H   0  0  0  0  0  0  0  0  0  0  0  0
  1  2  1  0  0  0  0
  1  3  1  0  0  0  0
  1 10  1  0  0  0  0
  2  4  1  0  0  0  0
  2  5  1  0  0  0  0
  2  6  1  0  0  0  0
  3  7  1  0  0  0  0
  3  8  1  0  0  0  0
  3  9  1  0  0  0  0
  4 11  1  0  0  0  0
  4 12  1  0  0  0  0
  4 13  1  0  0  0  0
  5 14  1  0  0  0  0
  5 15  1  0  0  0  0
  5 16  1  0  0  0  0
  6 17  1  0  0  0  0
  6 18  1  0  0  0  0
  6 19  1  0  0  0  0
  7 20  1  0  0  0  0
  7 21  1  0  0  0  0
  7 22  1  0  0  0  0
  8 23  1  0  0  0  0
  8 24  1  0  0  0  0
  8 25  1  0  0  0  0
  9 26  1  0  0  0  0
  9 27  1  0  0  0  0
  9 28  1  0  0  0  0
M  END
> <PUBCHEM_COMPOUND_CID>
30889

> <PUBCHEM_CONFORMER_RMSD>
0.4

> <PUBCHEM_CONFORMER_DIVERSEORDER>
1

> <PUBCHEM_MMFF94_PARTIAL_CHARGES>
4
1 -0.9
10 0.36
2 0.27
3 0.27

> <PUBCHEM_EFFECTIVE_ROTOR_COUNT>
2

> <PUBCHEM_PHARMACOPHORE_FEATURES>
4
1 1 cation
1 1 donor
4 2 4 5 6 hydrophobe
4 3 7 8 9 hydrophobe

> <PUBCHEM_HEAVY_ATOM_COUNT>
9

> <PUBCHEM_ATOM_DEF_STEREO_COUNT>
0

> <PUBCHEM_ATOM_UDEF_STEREO_COUNT>
0

> <PUBCHEM_BOND_DEF_STEREO_COUNT>
0

> <PUBCHEM_BOND_UDEF_STEREO_COUNT>
0

> <PUBCHEM_ISOTOPIC_ATOM_COUNT>
0

> <PUBCHEM_COMPONENT_COUNT>
1

> <PUBCHEM_CACTVS_TAUTO_COUNT>
1

> <PUBCHEM_CONFORMER_ID>
000078A900000001

> <PUBCHEM_MMFF94_ENERGY>
78.865

> <PUBCHEM_FEATURE_SELFOVERLAP>
20.298

> <PUBCHEM_SHAPE_FINGERPRINT>
12423570 1 12787808465737304618
12897270 3 17917146233617070076
12932741 1 18334579082961105718
14128692 85 16988848271901449300
16945 1 18408325458155651554
21040471 1 17312811680496685503
23235685 24 15357696370573133902
23552423 10 18060419088369493847
24536 1 18343018908456646976
29004967 10 18202015312929192886
369184 2 17749942383663205504
5084963 1 17749689470240092650

> <PUBCHEM_SHAPE_MULTIPOLES>
180.23
2.94
1.33
1.19
0.07
0.25
-0.04
-0.08
0.86
-0.15
-0.34
0.09
-0.17
0.13

> <PUBCHEM_SHAPE_SELFOVERLAP>
341.197

> <PUBCHEM_SHAPE_VOLUME>
114.9

> <PUBCHEM_COORDINATE_TYPE>
2
5
10

$$$$
