140969
  -OEChem-11012400423D

 27 26  0     0  0  0  0  0  0999 V2000
   -0.6075   -0.2570   -0.0918 O   0  0  0  0  0  0  0  0  0  0  0  0
    0.5790    1.7127    0.0959 O   0  0  0  0  0  0  0  0  0  0  0  0
   -2.9946   -0.5167   -0.0077 C   0  0  0  0  0  0  0  0  0  0  0  0
   -4.3398    0.1905    0.1300 C   0  0  0  0  0  0  0  0  0  0  0  0
   -1.8339    0.4656    0.0582 C   0  0  0  0  0  0  0  0  0  0  0  0
    1.7267   -0.4075   -0.2274 C   0  0  0  0  0  0  0  0  0  0  0  0
   -5.4979   -0.7885    0.0205 C   0  0  0  0  0  0  0  0  0  0  0  0
    3.0432    0.3663   -0.1674 C   0  0  0  0  0  0  0  0  0  0  0  0
    0.5296    0.4996   -0.0530 C   0  0  0  0  0  0  0  0  0  0  0  0
    4.2203   -0.5470   -0.3392 C   0  0  0  0  0  0  0  0  0  0  0  0
    5.1749   -0.7181    0.5819 C   0  0  0  0  0  0  0  0  0  0  0  0
   -2.8789   -1.2713    0.7803 H   0  0  0  0  0  0  0  0  0  0  0  0
   -2.9497   -1.0658   -0.9566 H   0  0  0  0  0  0  0  0  0  0  0  0
   -4.4416    0.9535   -0.6505 H   0  0  0  0  0  0  0  0  0  0  0  0
   -4.3925    0.7056    1.0962 H   0  0  0  0  0  0  0  0  0  0  0  0
   -1.9182    1.2038   -0.7480 H   0  0  0  0  0  0  0  0  0  0  0  0
   -1.8329    0.9835    1.0244 H   0  0  0  0  0  0  0  0  0  0  0  0
    1.6323   -0.9123   -1.1961 H   0  0  0  0  0  0  0  0  0  0  0  0
    1.7014   -1.1606    0.5691 H   0  0  0  0  0  0  0  0  0  0  0  0
   -5.4931   -1.2951   -0.9498 H   0  0  0  0  0  0  0  0  0  0  0  0
   -5.4438   -1.5491    0.8059 H   0  0  0  0  0  0  0  0  0  0  0  0
   -6.4512   -0.2609    0.1235 H   0  0  0  0  0  0  0  0  0  0  0  0
    3.0678    1.1215   -0.9626 H   0  0  0  0  0  0  0  0  0  0  0  0
    3.1091    0.9133    0.7815 H   0  0  0  0  0  0  0  0  0  0  0  0
    4.2988   -1.0899   -1.2776 H   0  0  0  0  0  0  0  0  0  0  0  0
    6.0050   -1.3904    0.3942 H   0  0  0  0  0  0  0  0  0  0  0  0
    5.1468   -0.1967    1.5322 H   0  0  0  0  0  0  0  0  0  0  0  0
  1  5  1  0  0  0  0
  1  9  1  0  0  0  0
  2  9  2  0  0  0  0
  3  4  1  0  0  0  0
  3  5  1  0  0  0  0
  3 12  1  0  0  0  0
  3 13  1  0  0  0  0
  4  7  1  0  0  0  0
  4 14  1  0  0  0  0
  4 15  1  0  0  0  0
  5 16  1  0  0  0  0
  5 17  1  0  0  0  0
  6  8  1  0  0  0  0
  6  9  1  0  0  0  0
  6 18  1  0  0  0  0
  6 19  1  0  0  0  0
  7 20  1  0  0  0  0
  7 21  1  0  0  0  0
  7 22  1  0  0  0  0
  8 10  1  0  0  0  0
  8 23  1  0  0  0  0
  8 24  1  0  0  0  0
 10 11  2  0  0  0  0
 10 25  1  0  0  0  0
 11 26  1  0  0  0  0
 11 27  1  0  0  0  0
M  END
> <PUBCHEM_COMPOUND_CID>
140969

> <PUBCHEM_CONFORMER_RMSD>
0.8

> <PUBCHEM_CONFORMER_DIVERSEORDER>
1
76
145
71
132
8
86
34
2
5
69
26
46
124
98
33
12
115
63
82
27
49
94
83
137
20
102
14
62
140
4
100
59
75
6
135
97
3
24
87
116
106
23
129
109
17
134
121
42
128
67
51
43
152
38
144
110
108
84
40
29
155
131
16
105
7
73
60
130
125
127
142
122
25
48
61
64
120
93
66
139
10
30
138
117
28
80
41
133
52
157
92
35
150
74
50
32
65
88
96
154
123
103
72
143
37
81
136
85
9
126
99
112
68
160
149
147
15
58
53
44
22
101
158
95
151
55
141
70
47
18
78
21
119
11
57
111
39
79
45
159
153
90
77
114
146
13
31
113
104
54
156
91
19
118
89
148
56
36
107

> <PUBCHEM_MMFF94_PARTIAL_CHARGES>
11
1 -0.43
10 -0.29
11 -0.3
2 -0.57
25 0.15
26 0.15
27 0.15
5 0.28
6 0.06
8 0.14
9 0.66

> <PUBCHEM_EFFECTIVE_ROTOR_COUNT>
7

> <PUBCHEM_PHARMACOPHORE_FEATURES>
3
1 11 hydrophobe
1 2 acceptor
1 7 hydrophobe

> <PUBCHEM_HEAVY_ATOM_COUNT>
11

> <PUBCHEM_ATOM_DEF_STEREO_COUNT>
0

> <PUBCHEM_ATOM_UDEF_STEREO_COUNT>
0

> <PUBCHEM_BOND_DEF_STEREO_COUNT>
0

> <PUBCHEM_BOND_UDEF_STEREO_COUNT>
0

> <PUBCHEM_ISOTOPIC_ATOM_COUNT>
0

> <PUBCHEM_COMPONENT_COUNT>
1

> <PUBCHEM_CACTVS_TAUTO_COUNT>
1

> <PUBCHEM_CONFORMER_ID>
000226A900000001

> <PUBCHEM_MMFF94_ENERGY>
3.0763

> <PUBCHEM_FEATURE_SELFOVERLAP>
15.223

> <PUBCHEM_SHAPE_FINGERPRINT>
100836 57 9871749108884560107
11062470 55 12391515278131186661
114248 4 15430038759803265926
12815109 37 18412262830790717739
13690532 89 18409168813633638951
14123238 8 17132115744812138719
14252887 29 17775295932373510062
15242439 84 13623534558271053588
17834072 33 18343021141908303685
17834076 25 9295289439223975615
187816 3 16732987513639514264
20605781 2 8862940576345571054
20645477 70 18259987055008927270
20719005 15 18410575080368131126
20767249 13 18412544305778010391
20767249 213 11815894561549400899
21119208 17 15357699690667321018
22485316 2 18410854365127974054
23402539 116 18131346402372532365
42 15 18202004334918762353
42788 4 18410575084663085422
449060 50 15267341816812670972

> <PUBCHEM_SHAPE_MULTIPOLES>
214.64
12.01
1.04
0.65
3.22
0.27
-0.01
-4.34
-0.95
-0.09
-0.04
-0.22
-0.04
-0.14

> <PUBCHEM_SHAPE_SELFOVERLAP>
392.048

> <PUBCHEM_SHAPE_VOLUME>
136.4

> <PUBCHEM_COORDINATE_TYPE>
2
5
10

$$$$
