13414
  -OEChem-11012401273D

 23 24  0     0  0  0  0  0  0999 V2000
   -1.4950   -1.0587   -0.0001 N   0  0  0  0  0  0  0  0  0  0  0  0
    0.1560    0.6967    0.0000 C   0  0  0  0  0  0  0  0  0  0  0  0
   -0.2069   -0.6665   -0.0001 C   0  0  0  0  0  0  0  0  0  0  0  0
    2.5089    0.1003    0.0002 C   0  0  0  0  0  0  0  0  0  0  0  0
    1.5106    1.0704    0.0002 C   0  0  0  0  0  0  0  0  0  0  0  0
   -0.8690    1.6523    0.0000 C   0  0  0  0  0  0  0  0  0  0  0  0
    0.8117   -1.6154    0.0000 C   0  0  0  0  0  0  0  0  0  0  0  0
    2.1585   -1.2441    0.0001 C   0  0  0  0  0  0  0  0  0  0  0  0
   -2.4542   -0.1048   -0.0001 C   0  0  0  0  0  0  0  0  0  0  0  0
   -2.1972    1.2512   -0.0001 C   0  0  0  0  0  0  0  0  0  0  0  0
    3.9444    0.5007   -0.0002 C   0  0  0  0  0  0  0  0  0  0  0  0
   -3.8678   -0.5820    0.0002 C   0  0  0  0  0  0  0  0  0  0  0  0
    1.7836    2.1241   -0.0016 H   0  0  0  0  0  0  0  0  0  0  0  0
   -0.6378    2.7150    0.0000 H   0  0  0  0  0  0  0  0  0  0  0  0
    0.5634   -2.6752   -0.0005 H   0  0  0  0  0  0  0  0  0  0  0  0
    2.9218   -2.0179   -0.0019 H   0  0  0  0  0  0  0  0  0  0  0  0
   -2.9951    1.9856    0.0000 H   0  0  0  0  0  0  0  0  0  0  0  0
    4.0937    1.4307    0.5588 H   0  0  0  0  0  0  0  0  0  0  0  0
    4.5698   -0.2623    0.4756 H   0  0  0  0  0  0  0  0  0  0  0  0
    4.2933    0.6478   -1.0271 H   0  0  0  0  0  0  0  0  0  0  0  0
   -3.9140   -1.6761   -0.0003 H   0  0  0  0  0  0  0  0  0  0  0  0
   -4.3909   -0.2228    0.8922 H   0  0  0  0  0  0  0  0  0  0  0  0
   -4.3916   -0.2222   -0.8911 H   0  0  0  0  0  0  0  0  0  0  0  0
  1  3  1  0  0  0  0
  1  9  2  0  0  0  0
  2  3  2  0  0  0  0
  2  5  1  0  0  0  0
  2  6  1  0  0  0  0
  3  7  1  0  0  0  0
  4  5  2  0  0  0  0
  4  8  1  0  0  0  0
  4 11  1  0  0  0  0
  5 13  1  0  0  0  0
  6 10  2  0  0  0  0
  6 14  1  0  0  0  0
  7  8  2  0  0  0  0
  7 15  1  0  0  0  0
  8 16  1  0  0  0  0
  9 10  1  0  0  0  0
  9 12  1  0  0  0  0
 10 17  1  0  0  0  0
 11 18  1  0  0  0  0
 11 19  1  0  0  0  0
 11 20  1  0  0  0  0
 12 21  1  0  0  0  0
 12 22  1  0  0  0  0
 12 23  1  0  0  0  0
M  END
> <PUBCHEM_COMPOUND_CID>
13414

> <PUBCHEM_CONFORMER_RMSD>
0.4

> <PUBCHEM_CONFORMER_DIVERSEORDER>
1

> <PUBCHEM_MMFF94_PARTIAL_CHARGES>
16
1 -0.62
10 -0.15
11 0.14
12 0.14
13 0.15
14 0.15
15 0.15
16 0.15
17 0.15
3 0.31
4 -0.14
5 -0.15
6 -0.15
7 -0.15
8 -0.15
9 0.17

> <PUBCHEM_EFFECTIVE_ROTOR_COUNT>
0

> <PUBCHEM_PHARMACOPHORE_FEATURES>
3
1 1 acceptor
6 1 2 3 6 9 10 rings
6 2 3 4 5 7 8 rings

> <PUBCHEM_HEAVY_ATOM_COUNT>
12

> <PUBCHEM_ATOM_DEF_STEREO_COUNT>
0

> <PUBCHEM_ATOM_UDEF_STEREO_COUNT>
0

> <PUBCHEM_BOND_DEF_STEREO_COUNT>
0

> <PUBCHEM_BOND_UDEF_STEREO_COUNT>
0

> <PUBCHEM_ISOTOPIC_ATOM_COUNT>
0

> <PUBCHEM_COMPONENT_COUNT>
1

> <PUBCHEM_CACTVS_TAUTO_COUNT>
1

> <PUBCHEM_CONFORMER_ID>
0000346600000001

> <PUBCHEM_MMFF94_ENERGY>
33.2517

> <PUBCHEM_FEATURE_SELFOVERLAP>
15.254

> <PUBCHEM_SHAPE_FINGERPRINT>
10608611 8 18338513041145001612
11132069 177 18341607157138549642
11471102 20 18410569570325965173
12032990 46 18410863165347203959
12897270 3 18410573967971627517
12932764 1 17131818850844787116
13380535 76 18408886252299617602
14144814 61 18410855430068672120
14325111 11 18410855417268367488
14576447 43 18128801122990743743
14993402 34 18040723592874711684
15536298 74 18271243820736414718
15775835 57 18343305855200619656
16945 1 18410574002347157572
17844478 74 18186810166633894881
193761 8 17906452130069255652
19973954 147 18267868267940177236
200 152 18202271516497519821
20201158 50 18407760343660168747
20510252 161 18273216365538848761
20588541 1 18410578413284014275
20645477 70 18339918204579392191
21501502 16 18266458706886569912
2334 1 17762338423757123396
23402539 116 18340476850437155407
23402655 69 18268978822672975613
23463225 33 18408040693202291564
23552423 10 18189620444886463051
2748010 2 18266741264195032772
5084963 1 18343865506613915480
528886 8 18411414042168583922
53812653 166 18272082833854669304
7364860 26 18198340650669919550
8809292 202 18115030826099636931

> <PUBCHEM_SHAPE_MULTIPOLES>
241.97
5.52
1.63
0.61
0.02
0.01
0
-0.08
0
0.04
0
-0.01
0.01
0

> <PUBCHEM_SHAPE_SELFOVERLAP>
526.419

> <PUBCHEM_SHAPE_VOLUME>
133

> <PUBCHEM_COORDINATE_TYPE>
2
5
10

$$$$
