143873
  -OEChem-11012400493D

 26 25  0     0  0  0  0  0  0999 V2000
   -5.2985   -0.6231    0.0182 Cl  0  0  0  0  0  0  0  0  0  0  0  0
   -0.2203   -0.5197   -0.0968 O   0  0  0  0  0  0  0  0  0  0  0  0
   -1.2270    1.5458    0.1073 O   0  0  0  0  0  0  0  0  0  0  0  0
    3.5656   -0.4622   -0.0361 C   0  0  0  0  0  0  0  0  0  0  0  0
    2.1265   -0.9955   -0.1248 C   0  0  0  0  0  0  0  0  0  0  0  0
    1.0623    0.0904   -0.0223 C   0  0  0  0  0  0  0  0  0  0  0  0
    3.8120    0.5566   -1.1515 C   0  0  0  0  0  0  0  0  0  0  0  0
    3.8683    0.1744    1.3209 C   0  0  0  0  0  0  0  0  0  0  0  0
   -1.2917    0.3306   -0.0186 C   0  0  0  0  0  0  0  0  0  0  0  0
   -2.5725   -0.4731   -0.0843 C   0  0  0  0  0  0  0  0  0  0  0  0
   -3.8247    0.3757    0.0880 C   0  0  0  0  0  0  0  0  0  0  0  0
    4.2474   -1.3095   -0.1798 H   0  0  0  0  0  0  0  0  0  0  0  0
    1.9596   -1.7406    0.6639 H   0  0  0  0  0  0  0  0  0  0  0  0
    1.9913   -1.5396   -1.0688 H   0  0  0  0  0  0  0  0  0  0  0  0
    1.1423    0.6236    0.9305 H   0  0  0  0  0  0  0  0  0  0  0  0
    1.1515    0.8049   -0.8469 H   0  0  0  0  0  0  0  0  0  0  0  0
    4.8779    0.8059   -1.2021 H   0  0  0  0  0  0  0  0  0  0  0  0
    3.2715    1.4945   -0.9892 H   0  0  0  0  0  0  0  0  0  0  0  0
    3.5227    0.1520   -2.1271 H   0  0  0  0  0  0  0  0  0  0  0  0
    3.2947    1.0917    1.4864 H   0  0  0  0  0  0  0  0  0  0  0  0
    4.9301    0.4354    1.3899 H   0  0  0  0  0  0  0  0  0  0  0  0
    3.6435   -0.5222    2.1352 H   0  0  0  0  0  0  0  0  0  0  0  0
   -2.5990   -0.9801   -1.0558 H   0  0  0  0  0  0  0  0  0  0  0  0
   -2.5331   -1.2305    0.7075 H   0  0  0  0  0  0  0  0  0  0  0  0
   -3.8975    1.1322   -0.6998 H   0  0  0  0  0  0  0  0  0  0  0  0
   -3.8186    0.8929    1.0528 H   0  0  0  0  0  0  0  0  0  0  0  0
  1 11  1  0  0  0  0
  2  6  1  0  0  0  0
  2  9  1  0  0  0  0
  3  9  2  0  0  0  0
  4  5  1  0  0  0  0
  4  7  1  0  0  0  0
  4  8  1  0  0  0  0
  4 12  1  0  0  0  0
  5  6  1  0  0  0  0
  5 13  1  0  0  0  0
  5 14  1  0  0  0  0
  6 15  1  0  0  0  0
  6 16  1  0  0  0  0
  7 17  1  0  0  0  0
  7 18  1  0  0  0  0
  7 19  1  0  0  0  0
  8 20  1  0  0  0  0
  8 21  1  0  0  0  0
  8 22  1  0  0  0  0
  9 10  1  0  0  0  0
 10 11  1  0  0  0  0
 10 23  1  0  0  0  0
 10 24  1  0  0  0  0
 11 25  1  0  0  0  0
 11 26  1  0  0  0  0
M  END
> <PUBCHEM_COMPOUND_CID>
143873

> <PUBCHEM_CONFORMER_RMSD>
0.6

> <PUBCHEM_CONFORMER_DIVERSEORDER>
1
120
99
134
82
84
108
72
7
150
44
89
140
8
33
141
147
31
63
86
136
55
122
3
106
129
6
144
57
116
42
142
28
149
41
68
23
9
119
30
37
133
118
92
73
36
127
151
46
145
139
11
67
100
88
50
137
5
131
110
54
40
95
148
143
34
98
2
21
101
97
15
10
32
93
65
104
152
70
22
25
138
17
12
112
123
52
64
76
114
132
113
75
74
14
94
69
135
45
96
115
85
130
83
105
78
48
146
24
103
20
121
13
16
71
27
56
18
126
60
102
90
47
111
19
66
87
38
4
35
125
80
43
29
53
26
39
61
49
109
81
59
62
79
77
128
124
51
91
107
117
58

> <PUBCHEM_MMFF94_PARTIAL_CHARGES>
7
1 -0.29
10 0.06
11 0.29
2 -0.43
3 -0.57
6 0.28
9 0.66

> <PUBCHEM_EFFECTIVE_ROTOR_COUNT>
6

> <PUBCHEM_PHARMACOPHORE_FEATURES>
2
1 3 acceptor
3 4 7 8 hydrophobe

> <PUBCHEM_HEAVY_ATOM_COUNT>
11

> <PUBCHEM_ATOM_DEF_STEREO_COUNT>
0

> <PUBCHEM_ATOM_UDEF_STEREO_COUNT>
0

> <PUBCHEM_BOND_DEF_STEREO_COUNT>
0

> <PUBCHEM_BOND_UDEF_STEREO_COUNT>
0

> <PUBCHEM_ISOTOPIC_ATOM_COUNT>
0

> <PUBCHEM_COMPONENT_COUNT>
1

> <PUBCHEM_CACTVS_TAUTO_COUNT>
1

> <PUBCHEM_CONFORMER_ID>
0002320100000001

> <PUBCHEM_MMFF94_ENERGY>
9.4498

> <PUBCHEM_FEATURE_SELFOVERLAP>
10.148

> <PUBCHEM_SHAPE_FINGERPRINT>
11062470 55 17167865261677658351
12932764 1 17632005369528518390
14123238 8 17894914040158352999
14252887 29 17989497307244739935
17834072 33 18335140946841741119
17834076 25 18334297573608897343
20645477 70 14996273692068511682
20719005 15 18411419509957324711
20767249 13 18259981578835720267
22485316 2 18343016679838326583
23048698 100 17022624169774545312
23402539 116 11819274494742678067
23557571 272 18272099248819046916
42788 4 17458344139609299455
449060 50 16558749031383197607
522135 26 13398633848819531438
5374978 207 18334289877259689608

> <PUBCHEM_SHAPE_MULTIPOLES>
216.51
10.35
1.02
0.9
6.45
0.14
-0.09
-0.99
-0.27
0.1
0.03
-1.1
0.08
-0.21

> <PUBCHEM_SHAPE_SELFOVERLAP>
388.707

> <PUBCHEM_SHAPE_VOLUME>
140.6

> <PUBCHEM_COORDINATE_TYPE>
2
5
10

$$$$
