57599480
  -OEChem-10312420302D

 46 52  0     1  0  0  0  0  0999 V2000
    3.6857    0.0271    0.0000 C   0  0  3  0  0  0  0  0  0  0  0  0
    4.5518   -0.4729    0.0000 C   0  0  3  0  0  0  0  0  0  0  0  0
    3.6857    1.0270    0.0000 C   0  0  3  0  0  0  0  0  0  0  0  0
    5.4178    0.0271    0.0000 C   0  0  3  0  0  0  0  0  0  0  0  0
    4.5518    1.5270    0.0000 C   0  0  3  0  0  0  0  0  0  0  0  0
    5.4178    1.0270    0.0000 C   0  0  3  0  0  0  0  0  0  0  0  0
    2.7757   -0.4798    0.0000 C   0  0  3  0  0  0  0  0  0  0  0  0
    4.5678   -1.5144    0.0000 C   0  0  3  0  0  0  0  0  0  0  0  0
    3.0645    0.2450    0.0000 C   0  0  0  0  0  0  0  0  0  0  0  0
    4.7610    2.4989    0.0000 C   0  0  3  0  0  0  0  0  0  0  0  0
    6.1548    1.6941    0.0000 C   0  0  3  0  0  0  0  0  0  0  0  0
    3.5755   -1.0846    0.0000 C   0  0  0  0  0  0  0  0  0  0  0  0
    2.7677   -1.5214    0.0000 C   0  0  3  0  0  0  0  0  0  0  0  0
    3.6698   -2.0422    0.0000 C   0  0  3  0  0  0  0  0  0  0  0  0
    5.7497    2.6019    0.0000 C   0  0  0  0  0  0  0  0  0  0  0  0
    5.4998    3.1618    0.0000 C   0  0  0  0  0  0  0  0  0  0  0  0
    6.3595    2.6655    0.0000 C   0  0  0  0  0  0  0  0  0  0  0  0
    2.0000   -2.2162    0.0000 C   0  0  0  0  0  0  0  0  0  0  0  0
    3.4519   -3.0545    0.0000 C   0  0  0  0  0  0  0  0  0  0  0  0
    2.4220   -3.1618    0.0000 C   0  0  0  0  0  0  0  0  0  0  0  0
    4.2227    0.3371    0.0000 H   0  0  0  0  0  0  0  0  0  0  0  0
    5.0911   -0.7788    0.0000 H   0  0  0  0  0  0  0  0  0  0  0  0
    3.2809    1.4966    0.0000 H   0  0  0  0  0  0  0  0  0  0  0  0
    5.9547   -0.2829    0.0000 H   0  0  0  0  0  0  0  0  0  0  0  0
    4.0506    1.8921    0.0000 H   0  0  0  0  0  0  0  0  0  0  0  0
    5.9845    0.7756    0.0000 H   0  0  0  0  0  0  0  0  0  0  0  0
    2.2424   -0.1636    0.0000 H   0  0  0  0  0  0  0  0  0  0  0  0
    5.1083   -1.8182    0.0000 H   0  0  0  0  0  0  0  0  0  0  0  0
    2.5141    0.5304    0.0000 H   0  0  0  0  0  0  0  0  0  0  0  0
    2.8900   -0.3499    0.0000 H   0  0  0  0  0  0  0  0  0  0  0  0
    4.2247    2.8100    0.0000 H   0  0  0  0  0  0  0  0  0  0  0  0
    6.6924    1.3853    0.0000 H   0  0  0  0  0  0  0  0  0  0  0  0
    3.0254   -1.3705    0.0000 H   0  0  0  0  0  0  0  0  0  0  0  0
    3.8879   -0.5491    0.0000 H   0  0  0  0  0  0  0  0  0  0  0  0
    2.2020   -1.2678    0.0000 H   0  0  0  0  0  0  0  0  0  0  0  0
    4.1723   -2.4054    0.0000 H   0  0  0  0  0  0  0  0  0  0  0  0
    6.3393    2.7937    0.0000 H   0  0  0  0  0  0  0  0  0  0  0  0
    5.6210    3.2084    0.0000 H   0  0  0  0  0  0  0  0  0  0  0  0
    5.8645    3.6632    0.0000 H   0  0  0  0  0  0  0  0  0  0  0  0
    5.0396    3.5772    0.0000 H   0  0  0  0  0  0  0  0  0  0  0  0
    6.9494    2.4746    0.0000 H   0  0  0  0  0  0  0  0  0  0  0  0
    6.6114    3.2320    0.0000 H   0  0  0  0  0  0  0  0  0  0  0  0
    1.6346   -1.7154    0.0000 H   0  0  0  0  0  0  0  0  0  0  0  0
    1.4635   -2.5270    0.0000 H   0  0  0  0  0  0  0  0  0  0  0  0
    3.8659   -3.5160    0.0000 H   0  0  0  0  0  0  0  0  0  0  0  0
    2.1120   -3.6988    0.0000 H   0  0  0  0  0  0  0  0  0  0  0  0
  1  2  1  0  0  0  0
  1  3  1  0  0  0  0
  1  7  1  0  0  0  0
  1 21  1  0  0  0  0
  2  4  1  0  0  0  0
  2  8  1  0  0  0  0
  2 22  1  0  0  0  0
  3  5  1  0  0  0  0
  3  9  1  0  0  0  0
  3 23  1  0  0  0  0
  4  6  1  0  0  0  0
  4  9  1  0  0  0  0
  4 24  1  0  0  0  0
  5  6  1  0  0  0  0
  5 10  1  0  0  0  0
  5 25  1  0  0  0  0
  6 11  1  0  0  0  0
  6 26  1  0  0  0  0
  7 12  1  0  0  0  0
  7 13  1  0  0  0  0
  7 27  1  0  0  0  0
  8 12  1  0  0  0  0
  8 14  1  0  0  0  0
  8 28  1  0  0  0  0
  9 29  1  0  0  0  0
  9 30  1  0  0  0  0
 10 15  1  0  0  0  0
 10 16  1  0  0  0  0
 10 31  1  0  0  0  0
 11 15  1  0  0  0  0
 11 17  1  0  0  0  0
 11 32  1  0  0  0  0
 12 33  1  0  0  0  0
 12 34  1  0  0  0  0
 13 14  1  0  0  0  0
 13 18  1  0  0  0  0
 13 35  1  0  0  0  0
 14 19  1  0  0  0  0
 14 36  1  0  0  0  0
 15 37  1  0  0  0  0
 15 38  1  0  0  0  0
 16 17  1  0  0  0  0
 16 39  1  0  0  0  0
 16 40  1  0  0  0  0
 17 41  1  0  0  0  0
 17 42  1  0  0  0  0
 18 20  1  0  0  0  0
 18 43  1  0  0  0  0
 18 44  1  0  0  0  0
 19 20  2  0  0  0  0
 19 45  1  0  0  0  0
 20 46  1  0  0  0  0
M  END
> <PUBCHEM_COMPOUND_CID>
57599480

> <PUBCHEM_COMPOUND_CANONICALIZED>
1

> <PUBCHEM_CACTVS_COMPLEXITY>
518

> <PUBCHEM_CACTVS_HBOND_ACCEPTOR>
0

> <PUBCHEM_CACTVS_HBOND_DONOR>
0

> <PUBCHEM_CACTVS_ROTATABLE_BOND>
0

> <PUBCHEM_CACTVS_SUBSKEYS>
AAADceB4AAAAAAAAAAAAAAAAAAAAAYMGDBgwYMAAAAAYMAAAAAAAGAAAAAAADQCAAAAAAAAAAACAACBCAAAAAAAgAAAICAAAAAgAAAIAAQAAAAAAgAAIAAMAgMAOgAAAAAAAAACAAAQAACAAAQAACAAAAA==

> <PUBCHEM_IUPAC_OPENEYE_NAME>
heptacyclo[9.6.1.13,9.113,16.02,10.04,8.012,17]icos-5-ene

> <PUBCHEM_IUPAC_CAS_NAME>
heptacyclo[9.6.1.13,9.113,16.02,10.04,8.012,17]eicos-5-ene

> <PUBCHEM_IUPAC_NAME_MARKUP>
heptacyclo[9.6.1.1<SUP>3,9</SUP>.1<SUP>13,16</SUP>.0<SUP>2,10</SUP>.0<SUP>4,8</SUP>.0<SUP>12,17</SUP>]icos-5-ene

> <PUBCHEM_IUPAC_NAME>
heptacyclo[9.6.1.13,9.113,16.02,10.04,8.012,17]icos-5-ene

> <PUBCHEM_IUPAC_SYSTEMATIC_NAME>
heptacyclo[9.6.1.13,9.113,16.02,10.04,8.012,17]icos-5-ene

> <PUBCHEM_IUPAC_TRADITIONAL_NAME>
heptacyclo[9.6.1.13,9.113,16.02,10.04,8.012,17]eicos-5-ene

> <PUBCHEM_IUPAC_INCHI>
InChI=1S/C20H26/c1-2-11-12(3-1)14-7-13(11)19-15-8-16(20(14)19)18-10-5-4-9(6-10)17(15)18/h1-2,9-20H,3-8H2

> <PUBCHEM_IUPAC_INCHIKEY>
GNRJQHYWDBPHKP-UHFFFAOYSA-N

> <PUBCHEM_XLOGP3_AA>
5.4

> <PUBCHEM_EXACT_MASS>
266.203450829

> <PUBCHEM_MOLECULAR_FORMULA>
C20H26

> <PUBCHEM_MOLECULAR_WEIGHT>
266.4

> <PUBCHEM_OPENEYE_CAN_SMILES>
C1CC2CC1C3C2C4CC3C5C4C6CC5C7C6C=CC7

> <PUBCHEM_OPENEYE_ISO_SMILES>
C1CC2CC1C3C2C4CC3C5C4C6CC5C7C6C=CC7

> <PUBCHEM_CACTVS_TPSA>
0

> <PUBCHEM_MONOISOTOPIC_WEIGHT>
266.203450829

> <PUBCHEM_TOTAL_CHARGE>
0

> <PUBCHEM_HEAVY_ATOM_COUNT>
20

> <PUBCHEM_ATOM_DEF_STEREO_COUNT>
0

> <PUBCHEM_ATOM_UDEF_STEREO_COUNT>
12

> <PUBCHEM_BOND_DEF_STEREO_COUNT>
0

> <PUBCHEM_BOND_UDEF_STEREO_COUNT>
0

> <PUBCHEM_ISOTOPIC_ATOM_COUNT>
0

> <PUBCHEM_COMPONENT_COUNT>
1

> <PUBCHEM_CACTVS_TAUTO_COUNT>
-1

> <PUBCHEM_COORDINATE_TYPE>
1
5
255

> <PUBCHEM_BONDANNOTATIONS>
1  7  3
10  16  3
11  17  3
13  18  3
14  19  3
2  8  3
3  9  3
4  9  3
5  10  3
6  11  3
7  12  3
8  12  3

$$$$
