5377859
  -OEChem-11012400413D

 30 31  0     0  0  0  0  0  0999 V2000
    4.7159    1.9544    0.7783 O   0  5  0  0  0  0  0  0  0  0  0  0
   -4.7233    1.9429   -0.7791 O   0  5  0  0  0  0  0  0  0  0  0  0
    3.7452    2.5706   -1.0918 O   0  0  0  0  0  0  0  0  0  0  0  0
   -3.7552    2.5639    1.0907 O   0  0  0  0  0  0  0  0  0  0  0  0
    3.8867    1.7612   -0.1434 N   0  3  0  0  0  0  0  0  0  0  0  0
   -3.8932    1.7536    0.1426 N   0  3  0  0  0  0  0  0  0  0  0  0
    1.4938   -1.7264   -0.0519 C   0  0  0  0  0  0  0  0  0  0  0  0
   -1.4970   -1.7064    0.0529 C   0  0  0  0  0  0  0  0  0  0  0  0
    0.6840   -2.9090   -0.0232 C   0  0  0  0  0  0  0  0  0  0  0  0
   -0.6701   -2.9027    0.0243 C   0  0  0  0  0  0  0  0  0  0  0  0
    2.4344   -1.4742    0.9614 C   0  0  0  0  0  0  0  0  0  0  0  0
   -2.4267   -1.4759   -0.9609 C   0  0  0  0  0  0  0  0  0  0  0  0
    1.3660   -0.7944   -1.0962 C   0  0  0  0  0  0  0  0  0  0  0  0
   -1.3613   -0.7907    1.0964 C   0  0  0  0  0  0  0  0  0  0  0  0
    3.0840    0.5903   -0.1125 C   0  0  0  0  0  0  0  0  0  0  0  0
   -3.0854    0.5862    0.1122 C   0  0  0  0  0  0  0  0  0  0  0  0
    3.2235   -0.3244    0.9313 C   0  0  0  0  0  0  0  0  0  0  0  0
   -3.2210   -0.3295   -0.9312 C   0  0  0  0  0  0  0  0  0  0  0  0
    2.1553    0.3552   -1.1262 C   0  0  0  0  0  0  0  0  0  0  0  0
   -2.1556    0.3555    1.1260 C   0  0  0  0  0  0  0  0  0  0  0  0
    1.2061   -3.8618   -0.0196 H   0  0  0  0  0  0  0  0  0  0  0  0
   -1.2002   -3.8516    0.0226 H   0  0  0  0  0  0  0  0  0  0  0  0
    2.5569   -2.1761    1.7838 H   0  0  0  0  0  0  0  0  0  0  0  0
   -2.5433   -2.1803   -1.7809 H   0  0  0  0  0  0  0  0  0  0  0  0
    0.6615   -0.9607   -1.9086 H   0  0  0  0  0  0  0  0  0  0  0  0
   -0.6552   -0.9569    1.9066 H   0  0  0  0  0  0  0  0  0  0  0  0
    3.9363   -0.1738    1.7380 H   0  0  0  0  0  0  0  0  0  0  0  0
   -3.9344   -0.1824   -1.7380 H   0  0  0  0  0  0  0  0  0  0  0  0
    2.0215    1.0440   -1.9565 H   0  0  0  0  0  0  0  0  0  0  0  0
   -2.0247    1.0452    1.9561 H   0  0  0  0  0  0  0  0  0  0  0  0
  1  5  1  0  0  0  0
  2  6  1  0  0  0  0
  3  5  2  0  0  0  0
  4  6  2  0  0  0  0
  5 15  1  0  0  0  0
  6 16  1  0  0  0  0
  7  9  1  0  0  0  0
  7 11  2  0  0  0  0
  7 13  1  0  0  0  0
  8 10  1  0  0  0  0
  8 12  2  0  0  0  0
  8 14  1  0  0  0  0
  9 10  2  0  0  0  0
  9 21  1  0  0  0  0
 10 22  1  0  0  0  0
 11 17  1  0  0  0  0
 11 23  1  0  0  0  0
 12 18  1  0  0  0  0
 12 24  1  0  0  0  0
 13 19  2  0  0  0  0
 13 25  1  0  0  0  0
 14 20  2  0  0  0  0
 14 26  1  0  0  0  0
 15 17  2  0  0  0  0
 15 19  1  0  0  0  0
 16 18  2  0  0  0  0
 16 20  1  0  0  0  0
 17 27  1  0  0  0  0
 18 28  1  0  0  0  0
 19 29  1  0  0  0  0
 20 30  1  0  0  0  0
M  CHG  4   1  -1   2  -1   5   1   6   1
M  END
> <PUBCHEM_COMPOUND_CID>
5377859

> <PUBCHEM_CONFORMER_RMSD>
0.6

> <PUBCHEM_CONFORMER_DIVERSEORDER>
2
1

> <PUBCHEM_MMFF94_PARTIAL_CHARGES>
30
1 -0.52
10 -0.18
11 -0.15
12 -0.15
13 -0.15
14 -0.15
15 0.13
16 0.13
17 -0.15
18 -0.15
19 -0.15
2 -0.52
20 -0.15
21 0.15
22 0.15
23 0.15
24 0.15
25 0.15
26 0.15
27 0.15
28 0.15
29 0.15
3 -0.52
30 0.15
4 -0.52
5 0.91
6 0.91
7 0.03
8 0.03
9 -0.18

> <PUBCHEM_EFFECTIVE_ROTOR_COUNT>
4

> <PUBCHEM_PHARMACOPHORE_FEATURES>
8
1 1 acceptor
1 1 anion
1 2 acceptor
1 2 anion
1 3 acceptor
1 4 acceptor
6 7 11 13 15 17 19 rings
6 8 12 14 16 18 20 rings

> <PUBCHEM_HEAVY_ATOM_COUNT>
20

> <PUBCHEM_ATOM_DEF_STEREO_COUNT>
0

> <PUBCHEM_ATOM_UDEF_STEREO_COUNT>
0

> <PUBCHEM_BOND_DEF_STEREO_COUNT>
1

> <PUBCHEM_BOND_UDEF_STEREO_COUNT>
0

> <PUBCHEM_ISOTOPIC_ATOM_COUNT>
0

> <PUBCHEM_COMPONENT_COUNT>
1

> <PUBCHEM_CACTVS_TAUTO_COUNT>
1

> <PUBCHEM_CONFORMER_ID>
00520F4300000002

> <PUBCHEM_MMFF94_ENERGY>
69.3737

> <PUBCHEM_FEATURE_SELFOVERLAP>
40.761

> <PUBCHEM_SHAPE_FINGERPRINT>
10498660 4 18202004343145005552
10968037 57 8430323450036698709
11640471 11 18410571790428801422
12173636 292 18339923822016774599
12633257 1 17822278068702414736
12788726 201 18197201767029858431
12824470 246 8646768906517677247
13134695 92 17758682143905616703
13965767 371 18041273275405045748
14123255 52 18410579482709596518
14142880 1 18261386819073152527
14251764 75 18341346517186342681
14739800 52 17982427585597771512
15295992 7 17970643899832882611
15342168 16 18408605829800540485
15475509 8 18197223555963148030
1741750 31 18410013281603420018
17834072 32 18411140238098513296
17980427 23 17984391110984687530
20510252 161 18123194768629314210
20621476 13 18191301572680911429
20715895 44 18048866400023507437
21427221 339 18115008789117969170
21475661 188 17606958383158440989
21731516 1 9223229632945983595
21864079 5 18410858762958168326
22749437 52 18410572885645150084
235170 7 16056602096494930196
23559900 14 18059855005173012294
27216 239 18188215428161592627
43658 37 18338797815067603989
474 4 18336824178642266635
49207404 50 18044119898588822803
5048184 11 18411703187957034489
6328613 192 18335144224466426860
7808743 9 18266745864463995160
8199 26 18411982472431540585
84936 182 18271802384958417498
88748 71 10447929485981578109
9981440 41 18338791325077283970

> <PUBCHEM_SHAPE_MULTIPOLES>
378.15
8.47
3.22
1.2
0.05
0.03
0
8.53
0
-0.03
0
0
0.15
-0.82

> <PUBCHEM_SHAPE_SELFOVERLAP>
818.712

> <PUBCHEM_SHAPE_VOLUME>
207.7

> <PUBCHEM_COORDINATE_TYPE>
2
5
10

$$$$
