117790
  -OEChem-11012400523D

 32 32  0     0  0  0  0  0  0999 V2000
    1.3927   -2.4864    0.4627 O   0  0  0  0  0  0  0  0  0  0  0  0
   -4.7028   -0.3172   -0.2957 O   0  0  0  0  0  0  0  0  0  0  0  0
    1.9180    0.2772    0.5055 N   0  0  0  0  0  0  0  0  0  0  0  0
   -2.8188    1.0836   -0.0799 N   0  0  0  0  0  0  0  0  0  0  0  0
    5.1083    0.8489   -1.2608 N   0  0  0  0  0  0  0  0  0  0  0  0
    0.6065   -0.2227    0.3493 C   0  0  0  0  0  0  0  0  0  0  0  0
    0.3685   -1.5969    0.3313 C   0  0  0  0  0  0  0  0  0  0  0  0
   -0.4557    0.6710    0.2123 C   0  0  0  0  0  0  0  0  0  0  0  0
   -1.7559    0.1903    0.0572 C   0  0  0  0  0  0  0  0  0  0  0  0
    2.2167    1.6747    0.5307 C   0  0  0  0  0  0  0  0  0  0  0  0
   -0.9317   -2.0776    0.1762 C   0  0  0  0  0  0  0  0  0  0  0  0
   -1.9939   -1.1840    0.0391 C   0  0  0  0  0  0  0  0  0  0  0  0
    3.7140    1.9076    0.7030 C   0  0  0  0  0  0  0  0  0  0  0  0
   -4.1793    0.7911   -0.2438 C   0  0  0  0  0  0  0  0  0  0  0  0
    2.0325   -2.9190   -0.7362 C   0  0  0  0  0  0  0  0  0  0  0  0
   -5.0112    2.0440   -0.3555 C   0  0  0  0  0  0  0  0  0  0  0  0
    4.4922    1.3154   -0.3952 C   0  0  0  0  0  0  0  0  0  0  0  0
   -0.3036    1.7467    0.2231 H   0  0  0  0  0  0  0  0  0  0  0  0
    2.6534   -0.4037    0.6603 H   0  0  0  0  0  0  0  0  0  0  0  0
    1.6987    2.1634    1.3648 H   0  0  0  0  0  0  0  0  0  0  0  0
    1.8918    2.1526   -0.4023 H   0  0  0  0  0  0  0  0  0  0  0  0
   -1.1235   -3.1473    0.1620 H   0  0  0  0  0  0  0  0  0  0  0  0
   -2.9712   -1.6312   -0.0769 H   0  0  0  0  0  0  0  0  0  0  0  0
    3.9090    2.9850    0.7496 H   0  0  0  0  0  0  0  0  0  0  0  0
    4.0499    1.4794    1.6551 H   0  0  0  0  0  0  0  0  0  0  0  0
   -2.5643    2.0689   -0.0569 H   0  0  0  0  0  0  0  0  0  0  0  0
    2.4543   -2.0687   -1.2814 H   0  0  0  0  0  0  0  0  0  0  0  0
    1.3247   -3.4590   -1.3732 H   0  0  0  0  0  0  0  0  0  0  0  0
    2.8457   -3.5975   -0.4644 H   0  0  0  0  0  0  0  0  0  0  0  0
   -4.9230    2.6291    0.5641 H   0  0  0  0  0  0  0  0  0  0  0  0
   -6.0611    1.7795   -0.5095 H   0  0  0  0  0  0  0  0  0  0  0  0
   -4.6686    2.6426   -1.2042 H   0  0  0  0  0  0  0  0  0  0  0  0
  1  7  1  0  0  0  0
  1 15  1  0  0  0  0
  2 14  2  0  0  0  0
  3  6  1  0  0  0  0
  3 10  1  0  0  0  0
  3 19  1  0  0  0  0
  4  9  1  0  0  0  0
  4 14  1  0  0  0  0
  4 26  1  0  0  0  0
  5 17  3  0  0  0  0
  6  7  2  0  0  0  0
  6  8  1  0  0  0  0
  7 11  1  0  0  0  0
  8  9  2  0  0  0  0
  8 18  1  0  0  0  0
  9 12  1  0  0  0  0
 10 13  1  0  0  0  0
 10 20  1  0  0  0  0
 10 21  1  0  0  0  0
 11 12  2  0  0  0  0
 11 22  1  0  0  0  0
 12 23  1  0  0  0  0
 13 17  1  0  0  0  0
 13 24  1  0  0  0  0
 13 25  1  0  0  0  0
 14 16  1  0  0  0  0
 15 27  1  0  0  0  0
 15 28  1  0  0  0  0
 15 29  1  0  0  0  0
 16 30  1  0  0  0  0
 16 31  1  0  0  0  0
 16 32  1  0  0  0  0
M  END
> <PUBCHEM_COMPOUND_CID>
117790

> <PUBCHEM_CONFORMER_RMSD>
0.8

> <PUBCHEM_CONFORMER_DIVERSEORDER>
5
26
35
16
43
30
31
33
19
42
24
32
39
38
41
21
40
8
18
25
10
29
36
23
34
17
14
9
7
37
4
22
13
28
20
15
27
11
1
12
3
2
6

> <PUBCHEM_MMFF94_PARTIAL_CHARGES>
22
1 -0.36
10 0.37
11 -0.15
12 -0.15
13 0.2
14 0.57
15 0.28
16 0.06
17 0.36
18 0.15
19 0.4
2 -0.57
22 0.15
23 0.15
26 0.37
3 -0.87
4 -0.55
5 -0.56
6 0.1
7 0.08
8 -0.15
9 0.12

> <PUBCHEM_EFFECTIVE_ROTOR_COUNT>
6

> <PUBCHEM_PHARMACOPHORE_FEATURES>
7
1 1 acceptor
1 2 acceptor
1 3 cation
1 3 donor
1 4 donor
1 5 acceptor
6 6 7 8 9 11 12 rings

> <PUBCHEM_HEAVY_ATOM_COUNT>
17

> <PUBCHEM_ATOM_DEF_STEREO_COUNT>
0

> <PUBCHEM_ATOM_UDEF_STEREO_COUNT>
0

> <PUBCHEM_BOND_DEF_STEREO_COUNT>
0

> <PUBCHEM_BOND_UDEF_STEREO_COUNT>
0

> <PUBCHEM_ISOTOPIC_ATOM_COUNT>
0

> <PUBCHEM_COMPONENT_COUNT>
1

> <PUBCHEM_CACTVS_TAUTO_COUNT>
2

> <PUBCHEM_CONFORMER_ID>
0001CC1E00000005

> <PUBCHEM_MMFF94_ENERGY>
60.3406

> <PUBCHEM_FEATURE_SELFOVERLAP>
35.522

> <PUBCHEM_SHAPE_FINGERPRINT>
10726558 24 18410294739616182016
10922049 32 18341333391454048888
12173636 292 18050279568511624332
12644460 14 18261393291261625354
12730499 353 18412270536246955043
13380535 76 18336820983059991499
13464514 151 18341615901554827114
13544592 145 18271531987488632308
14123255 52 18410567422563145057
14508225 48 17477771182690532118
17834072 32 18262520415414079444
18186145 218 18058739129624438624
18915476 22 18341349811320399939
19784866 170 18186241727649160649
200 152 15625955256515785656
20602899 9 16486981742579984959
20612939 158 18268147557221730341
20645477 56 18124311864143110296
20645477 70 18270109094872141695
21524375 3 18335693987735813920
22182313 1 18265073442732663387
22218785 32 18343023319804856372
23366157 5 18042119873647197442
23402655 69 18272082769588525597
23559900 14 18198332962161735594
25 1 18411412916881832056
2748010 2 18335711533136660595
3071541 37 18409166576224703194
495365 180 17561074861230556008
4990 188 17989490740218625940
5104073 3 18262238803725903153
56616090 163 18408892831904373095
6138700 20 18340773642296118982
633830 44 18200584912568067756
7364860 26 18342453686624015450
81228 2 17260176122203832274
81539 233 18260822683444844146

> <PUBCHEM_SHAPE_MULTIPOLES>
323.17
9.51
2.9
0.82
2.1
1.76
-0.09
-7.7
-2.69
-1.36
-0.09
-0.64
-0.05
0.48

> <PUBCHEM_SHAPE_SELFOVERLAP>
656.5

> <PUBCHEM_SHAPE_VOLUME>
185.4

> <PUBCHEM_COORDINATE_TYPE>
2
5
10

$$$$
