137197
  -OEChem-11012401273D

 53 56  0     0  0  0  0  0  0999 V2000
    0.0009   -0.6528    0.2879 O   0  0  0  0  0  0  0  0  0  0  0  0
    1.2974   -2.1325   -0.9348 O   0  0  0  0  0  0  0  0  0  0  0  0
   -1.2946   -2.1314   -0.9369 O   0  0  0  0  0  0  0  0  0  0  0  0
    2.3393   -0.4764    0.5274 C   0  0  0  0  0  0  0  0  0  0  0  0
   -2.3381   -0.4767    0.5257 C   0  0  0  0  0  0  0  0  0  0  0  0
    3.6958   -1.1142    0.2571 C   0  0  0  0  0  0  0  0  0  0  0  0
    2.3526    1.0264    0.2794 C   0  0  0  0  0  0  0  0  0  0  0  0
   -2.3534    1.0261    0.2781 C   0  0  0  0  0  0  0  0  0  0  0  0
   -3.6944   -1.1157    0.2565 C   0  0  0  0  0  0  0  0  0  0  0  0
    1.1779   -1.1940   -0.1586 C   0  0  0  0  0  0  0  0  0  0  0  0
   -1.1757   -1.1930   -0.1604 C   0  0  0  0  0  0  0  0  0  0  0  0
    4.1510   -2.0978    1.1102 C   0  0  0  0  0  0  0  0  0  0  0  0
    2.8789    1.8562    1.2473 C   0  0  0  0  0  0  0  0  0  0  0  0
   -2.8813    1.8549    1.2460 C   0  0  0  0  0  0  0  0  0  0  0  0
   -4.4265   -0.6902   -0.8322 C   0  0  0  0  0  0  0  0  0  0  0  0
    4.4266   -0.6879   -0.8322 C   0  0  0  0  0  0  0  0  0  0  0  0
    1.8377    1.5101   -0.9052 C   0  0  0  0  0  0  0  0  0  0  0  0
   -1.8391    1.5109   -0.9063 C   0  0  0  0  0  0  0  0  0  0  0  0
   -4.1478   -2.0994    1.1104 C   0  0  0  0  0  0  0  0  0  0  0  0
    5.3934   -2.6816    0.8628 C   0  0  0  0  0  0  0  0  0  0  0  0
    2.8908    3.2324    1.0202 C   0  0  0  0  0  0  0  0  0  0  0  0
   -2.8954    3.2312    1.0191 C   0  0  0  0  0  0  0  0  0  0  0  0
   -5.6686   -1.2753   -1.0783 C   0  0  0  0  0  0  0  0  0  0  0  0
    5.6691   -1.2718   -1.0796 C   0  0  0  0  0  0  0  0  0  0  0  0
    1.8497    2.8863   -1.1322 C   0  0  0  0  0  0  0  0  0  0  0  0
   -1.8532    2.8871   -1.1331 C   0  0  0  0  0  0  0  0  0  0  0  0
   -5.3900   -2.6844    0.8641 C   0  0  0  0  0  0  0  0  0  0  0  0
    6.1523   -2.2687   -0.2322 C   0  0  0  0  0  0  0  0  0  0  0  0
    2.3763    3.7474   -0.1696 C   0  0  0  0  0  0  0  0  0  0  0  0
   -2.3813    3.7472   -0.1704 C   0  0  0  0  0  0  0  0  0  0  0  0
   -6.1503   -2.2724   -0.2302 C   0  0  0  0  0  0  0  0  0  0  0  0
    2.1345   -0.6104    1.6022 H   0  0  0  0  0  0  0  0  0  0  0  0
   -2.1327   -0.6105    1.6003 H   0  0  0  0  0  0  0  0  0  0  0  0
    3.5663   -2.4281    1.9634 H   0  0  0  0  0  0  0  0  0  0  0  0
    3.2820    1.4637    2.1759 H   0  0  0  0  0  0  0  0  0  0  0  0
   -3.2841    1.4615    2.1744 H   0  0  0  0  0  0  0  0  0  0  0  0
   -4.0756    0.0644   -1.5265 H   0  0  0  0  0  0  0  0  0  0  0  0
    4.0744    0.0665   -1.5261 H   0  0  0  0  0  0  0  0  0  0  0  0
    1.4396    0.8629   -1.6801 H   0  0  0  0  0  0  0  0  0  0  0  0
   -1.4398    0.8644   -1.6810 H   0  0  0  0  0  0  0  0  0  0  0  0
   -3.5621   -2.4290    1.9632 H   0  0  0  0  0  0  0  0  0  0  0  0
    5.7693   -3.4586    1.5220 H   0  0  0  0  0  0  0  0  0  0  0  0
    3.3010    3.9029    1.7696 H   0  0  0  0  0  0  0  0  0  0  0  0
   -3.3069    3.9010    1.7685 H   0  0  0  0  0  0  0  0  0  0  0  0
   -6.2586   -0.9586   -1.9334 H   0  0  0  0  0  0  0  0  0  0  0  0
    6.2580   -0.9544   -1.9353 H   0  0  0  0  0  0  0  0  0  0  0  0
    1.4540    3.2873   -2.0608 H   0  0  0  0  0  0  0  0  0  0  0  0
   -1.4579    3.2889   -2.0615 H   0  0  0  0  0  0  0  0  0  0  0  0
   -5.7646   -3.4616    1.5239 H   0  0  0  0  0  0  0  0  0  0  0  0
    7.1189   -2.7245   -0.4258 H   0  0  0  0  0  0  0  0  0  0  0  0
    2.3863    4.8188   -0.3469 H   0  0  0  0  0  0  0  0  0  0  0  0
   -2.3931    4.8186   -0.3475 H   0  0  0  0  0  0  0  0  0  0  0  0
   -7.1167   -2.7290   -0.4229 H   0  0  0  0  0  0  0  0  0  0  0  0
  1 10  1  0  0  0  0
  1 11  1  0  0  0  0
  2 10  2  0  0  0  0
  3 11  2  0  0  0  0
  4  6  1  0  0  0  0
  4  7  1  0  0  0  0
  4 10  1  0  0  0  0
  4 32  1  0  0  0  0
  5  8  1  0  0  0  0
  5  9  1  0  0  0  0
  5 11  1  0  0  0  0
  5 33  1  0  0  0  0
  6 12  2  0  0  0  0
  6 16  1  0  0  0  0
  7 13  2  0  0  0  0
  7 17  1  0  0  0  0
  8 14  2  0  0  0  0
  8 18  1  0  0  0  0
  9 15  2  0  0  0  0
  9 19  1  0  0  0  0
 12 20  1  0  0  0  0
 12 34  1  0  0  0  0
 13 21  1  0  0  0  0
 13 35  1  0  0  0  0
 14 22  1  0  0  0  0
 14 36  1  0  0  0  0
 15 23  1  0  0  0  0
 15 37  1  0  0  0  0
 16 24  2  0  0  0  0
 16 38  1  0  0  0  0
 17 25  2  0  0  0  0
 17 39  1  0  0  0  0
 18 26  2  0  0  0  0
 18 40  1  0  0  0  0
 19 27  2  0  0  0  0
 19 41  1  0  0  0  0
 20 28  2  0  0  0  0
 20 42  1  0  0  0  0
 21 29  2  0  0  0  0
 21 43  1  0  0  0  0
 22 30  2  0  0  0  0
 22 44  1  0  0  0  0
 23 31  2  0  0  0  0
 23 45  1  0  0  0  0
 24 28  1  0  0  0  0
 24 46  1  0  0  0  0
 25 29  1  0  0  0  0
 25 47  1  0  0  0  0
 26 30  1  0  0  0  0
 26 48  1  0  0  0  0
 27 31  1  0  0  0  0
 27 49  1  0  0  0  0
 28 50  1  0  0  0  0
 29 51  1  0  0  0  0
 30 52  1  0  0  0  0
 31 53  1  0  0  0  0
M  END
> <PUBCHEM_COMPOUND_CID>
137197

> <PUBCHEM_CONFORMER_RMSD>
1

> <PUBCHEM_CONFORMER_DIVERSEORDER>
1
19
35
13
36
39
33
43
7
23
48
47
14
50
28
18
9
11
42
25
16
29
27
52
53
30
4
2
46
22
38
17
34
40
12
37
51
41
45
3
10
26
5
32
6
24
21
55
54
44
20
49
31
15
8

> <PUBCHEM_MMFF94_PARTIAL_CHARGES>
51
1 -0.3
10 0.66
11 0.66
12 -0.15
13 -0.15
14 -0.15
15 -0.15
16 -0.15
17 -0.15
18 -0.15
19 -0.15
2 -0.57
20 -0.15
21 -0.15
22 -0.15
23 -0.15
24 -0.15
25 -0.15
26 -0.15
27 -0.15
28 -0.15
29 -0.15
3 -0.57
30 -0.15
31 -0.15
34 0.15
35 0.15
36 0.15
37 0.15
38 0.15
39 0.15
4 0.35
40 0.15
41 0.15
42 0.15
43 0.15
44 0.15
45 0.15
46 0.15
47 0.15
48 0.15
49 0.15
5 0.35
50 0.15
51 0.15
52 0.15
53 0.15
6 -0.14
7 -0.14
8 -0.14
9 -0.14

> <PUBCHEM_EFFECTIVE_ROTOR_COUNT>
8

> <PUBCHEM_PHARMACOPHORE_FEATURES>
6
1 2 acceptor
1 3 acceptor
6 6 12 16 20 24 28 rings
6 7 13 17 21 25 29 rings
6 8 14 18 22 26 30 rings
6 9 15 19 23 27 31 rings

> <PUBCHEM_HEAVY_ATOM_COUNT>
31

> <PUBCHEM_ATOM_DEF_STEREO_COUNT>
0

> <PUBCHEM_ATOM_UDEF_STEREO_COUNT>
0

> <PUBCHEM_BOND_DEF_STEREO_COUNT>
0

> <PUBCHEM_BOND_UDEF_STEREO_COUNT>
0

> <PUBCHEM_ISOTOPIC_ATOM_COUNT>
0

> <PUBCHEM_COMPONENT_COUNT>
1

> <PUBCHEM_CACTVS_TAUTO_COUNT>
1

> <PUBCHEM_CONFORMER_ID>
000217ED00000001

> <PUBCHEM_MMFF94_ENERGY>
95.0838

> <PUBCHEM_FEATURE_SELFOVERLAP>
30.461

> <PUBCHEM_SHAPE_FINGERPRINT>
10006869 2 18200597011807243741
10366900 7 17967819340207471666
11014199 57 18411703149466353040
11101153 10 18336835268226778012
12107698 1 18411417314949708539
12166972 35 18131634491250927426
12403259 226 18410289215998563280
12403260 363 18413670210016704587
12422481 6 17704358766633477055
12633257 1 18270696250739458585
12988421 55 16624575839325044528
13140716 1 18411985724054697473
13533116 47 18339924934233462273
13782708 43 17989205915273471798
14068700 675 18411973655211965175
14114206 34 16805605806920969900
14114211 68 17755880944823503188
14347332 77 18411134719002292935
14955137 171 18130512938056508366
1601671 61 18198063565397166082
17492 89 18409727391341995243
18393751 57 17551214603666521008
19311894 1 18122628245357275456
21033648 29 17488441006729712786
21703447 108 18338789117405811552
21792934 111 18341327869154852307
21792965 20 17979879836356228667
23559900 14 18114460158184910515
312423 11 18339934791341915641
350125 39 18413111658051882561
4409770 3 17539115169939778876
508706 21 18268153050236839711
5104073 3 18343584031621413793
59755656 215 18265897046067396420
70251023 43 18335140916434261043

> <PUBCHEM_SHAPE_MULTIPOLES>
620.36
13.36
4.9
1.25
0.02
3.98
0.03
-13.33
-0.18
-0.01
0.4
0
0.2
0

> <PUBCHEM_SHAPE_SELFOVERLAP>
1367.55

> <PUBCHEM_SHAPE_VOLUME>
329.3

> <PUBCHEM_COORDINATE_TYPE>
2
5
10

$$$$
