404291
  -OEChem-11012400373D

 26 27  0     0  0  0  0  0  0999 V2000
    0.6431   -2.9724   -0.1083 O   0  5  0  0  0  0  0  0  0  0  0  0
   -0.6347    2.3831    0.0043 O   0  0  0  0  0  0  0  0  0  0  0  0
   -3.4037    0.7743    1.1124 O   0  0  0  0  0  0  0  0  0  0  0  0
    0.3138   -1.5820   -0.0106 N   0  0  0  0  0  0  0  0  0  0  0  0
   -0.3630    1.1319    0.0236 N   0  3  0  0  0  0  0  0  0  0  0  0
    1.3623   -0.6191   -0.0087 C   0  0  0  0  0  0  0  0  0  0  0  0
    1.0440    0.7463    0.0153 C   0  0  0  0  0  0  0  0  0  0  0  0
   -1.0389   -1.1866    0.0453 C   0  0  0  0  0  0  0  0  0  0  0  0
   -1.4202    0.1133    0.0468 C   0  0  0  0  0  0  0  0  0  0  0  0
    2.7282   -0.9640   -0.0266 C   0  0  0  0  0  0  0  0  0  0  0  0
    2.0403    1.7334    0.0230 C   0  0  0  0  0  0  0  0  0  0  0  0
   -2.0717   -2.3046    0.1264 C   0  0  0  0  0  0  0  0  0  0  0  0
   -2.8186    0.5739    0.0500 C   0  0  0  0  0  0  0  0  0  0  0  0
    3.7255    0.0159   -0.0195 C   0  0  0  0  0  0  0  0  0  0  0  0
    3.3816    1.3625    0.0058 C   0  0  0  0  0  0  0  0  0  0  0  0
   -3.4881    0.7942   -1.2791 C   0  0  0  0  0  0  0  0  0  0  0  0
    3.0499   -2.0025   -0.0432 H   0  0  0  0  0  0  0  0  0  0  0  0
    1.7954    2.7914    0.0416 H   0  0  0  0  0  0  0  0  0  0  0  0
   -3.0968   -1.9351    0.2232 H   0  0  0  0  0  0  0  0  0  0  0  0
   -1.8871   -2.9374    1.0016 H   0  0  0  0  0  0  0  0  0  0  0  0
   -2.0433   -2.9216   -0.7783 H   0  0  0  0  0  0  0  0  0  0  0  0
    4.1570    2.1227    0.0117 H   0  0  0  0  0  0  0  0  0  0  0  0
    4.7714   -0.2770   -0.0327 H   0  0  0  0  0  0  0  0  0  0  0  0
   -2.8075    0.5647   -2.1040 H   0  0  0  0  0  0  0  0  0  0  0  0
   -3.7918    1.8412   -1.3597 H   0  0  0  0  0  0  0  0  0  0  0  0
   -4.3608    0.1406   -1.3555 H   0  0  0  0  0  0  0  0  0  0  0  0
  1  4  1  0  0  0  0
  2  5  2  0  0  0  0
  3 13  2  0  0  0  0
  4  6  1  0  0  0  0
  4  8  1  0  0  0  0
  5  7  1  0  0  0  0
  5  9  1  0  0  0  0
  6  7  1  0  0  0  0
  6 10  2  0  0  0  0
  7 11  2  0  0  0  0
  8  9  2  0  0  0  0
  8 12  1  0  0  0  0
  9 13  1  0  0  0  0
 10 14  1  0  0  0  0
 10 17  1  0  0  0  0
 11 15  1  0  0  0  0
 11 18  1  0  0  0  0
 12 19  1  0  0  0  0
 12 20  1  0  0  0  0
 12 21  1  0  0  0  0
 13 16  1  0  0  0  0
 14 15  2  0  0  0  0
 14 23  1  0  0  0  0
 15 22  1  0  0  0  0
 16 24  1  0  0  0  0
 16 25  1  0  0  0  0
 16 26  1  0  0  0  0
M  CHG  2   1  -1   5   1
M  END
> <PUBCHEM_COMPOUND_CID>
404291

> <PUBCHEM_CONFORMER_RMSD>
0.6

> <PUBCHEM_CONFORMER_DIVERSEORDER>
1
2

> <PUBCHEM_MMFF94_PARTIAL_CHARGES>
20
1 -0.86
10 -0.15
11 -0.15
12 0.14
13 0.49
14 -0.15
15 -0.15
16 0.06
17 0.15
18 0.15
2 -0.63
22 0.15
23 0.15
3 -0.57
4 -0.08
5 0.7
6 -0.03
7 -0.03
8 -0.17
9 -0.02

> <PUBCHEM_EFFECTIVE_ROTOR_COUNT>
1

> <PUBCHEM_PHARMACOPHORE_FEATURES>
4
1 1 anion
1 3 acceptor
6 4 5 6 7 8 9 rings
6 6 7 10 11 14 15 rings

> <PUBCHEM_HEAVY_ATOM_COUNT>
16

> <PUBCHEM_ATOM_DEF_STEREO_COUNT>
0

> <PUBCHEM_ATOM_UDEF_STEREO_COUNT>
0

> <PUBCHEM_BOND_DEF_STEREO_COUNT>
0

> <PUBCHEM_BOND_UDEF_STEREO_COUNT>
0

> <PUBCHEM_ISOTOPIC_ATOM_COUNT>
0

> <PUBCHEM_COMPONENT_COUNT>
1

> <PUBCHEM_CACTVS_TAUTO_COUNT>
7

> <PUBCHEM_CONFORMER_ID>
00062B4300000001

> <PUBCHEM_MMFF94_ENERGY>
58.2127

> <PUBCHEM_FEATURE_SELFOVERLAP>
20.319

> <PUBCHEM_SHAPE_FINGERPRINT>
10411042 1 17257934793694968203
10608611 8 18338794649418536320
10967382 1 18410856521201394226
11132069 177 18410848880612953768
11471102 20 18338230470882799005
12382932 28 18339642342802807120
12730499 353 17970618598908477221
13140716 1 18410856585583816522
13221675 6 18410294679344293034
13380535 21 18338245950092496758
13380535 76 18410852148729819910
13583140 156 16877933949622800841
13897977 150 18411698794141881836
14251717 144 18340760460144357421
14325111 11 18338799021710873016
14790565 3 15091158689640306251
14911166 2 18410855426026912620
15196674 1 18410575119049204042
15309172 13 18410296908258227009
15775835 57 18335425685745618200
16945 1 18338798896951067114
18186145 218 18413112757726995308
18219364 16 18408046208304394121
193761 8 17618222810706520944
20510252 161 18127697247153357746
20588541 1 18411141303091893742
20645476 183 17823433745617715342
20645477 70 18264198128507988863
21501502 16 18338236097595749290
2334 1 18266458900265723074
23402539 116 18271233946189928508
23402655 69 18341880863041960517
23463225 33 18335984241884172728
23493267 7 17458624467387046345
23559900 14 18271531996484813860
25 1 18336257947222840581
2748010 2 18339083807954420630
335352 9 18266459810899056014
353137 74 18338514132008542737
5104073 3 18338232782292506376
528886 8 18411695504355175856
53812653 166 18341894121236568960
6333449 129 18339923826142475370
69090 78 18411133658403619223
7364860 26 18197499524053072886
81228 2 17760360389528024131
8809292 202 18334581252273206498

> <PUBCHEM_SHAPE_MULTIPOLES>
301.7
5.8
2.5
0.76
0.37
1.15
0.05
-1.66
0.28
-0.24
0.01
-0.56
-0.15
0.16

> <PUBCHEM_SHAPE_SELFOVERLAP>
640.728

> <PUBCHEM_SHAPE_VOLUME>
168.1

> <PUBCHEM_COORDINATE_TYPE>
2
5
10

$$$$
