140952
  -OEChem-11012401103D

 26 25  0     1  0  0  0  0  0999 V2000
    3.4688    0.9698   -0.3104 Cl  0  0  0  0  0  0  0  0  0  0  0  0
   -0.3609    0.1564   -0.4098 O   0  0  0  0  0  0  0  0  0  0  0  0
    0.8884    1.6443    0.8277 O   0  0  0  0  0  0  0  0  0  0  0  0
   -2.7755   -0.0759   -0.3664 C   0  0  0  0  0  0  0  0  0  0  0  0
   -1.5569    0.6671    0.1880 C   0  0  0  0  0  0  0  0  0  0  0  0
   -2.7052   -1.5723   -0.0548 C   0  0  0  0  0  0  0  0  0  0  0  0
   -4.0643    0.5228    0.1927 C   0  0  0  0  0  0  0  0  0  0  0  0
    1.9677    0.0946   -0.7182 C   0  0  1  0  0  0  0  0  0  0  0  0
    2.0905   -1.4013   -0.4156 C   0  0  0  0  0  0  0  0  0  0  0  0
    0.8033    0.7418    0.0055 C   0  0  0  0  0  0  0  0  0  0  0  0
    2.2441   -1.7474    1.0613 C   0  0  0  0  0  0  0  0  0  0  0  0
   -2.7814    0.0313   -1.4586 H   0  0  0  0  0  0  0  0  0  0  0  0
   -1.6382    1.7363   -0.0426 H   0  0  0  0  0  0  0  0  0  0  0  0
   -1.4978    0.5427    1.2764 H   0  0  0  0  0  0  0  0  0  0  0  0
   -3.5820   -2.0929   -0.4546 H   0  0  0  0  0  0  0  0  0  0  0  0
   -2.6689   -1.7511    1.0252 H   0  0  0  0  0  0  0  0  0  0  0  0
   -1.8171   -2.0289   -0.5037 H   0  0  0  0  0  0  0  0  0  0  0  0
   -4.9414    0.0164   -0.2240 H   0  0  0  0  0  0  0  0  0  0  0  0
   -4.1412    1.5855   -0.0605 H   0  0  0  0  0  0  0  0  0  0  0  0
   -4.1060    0.4302    1.2833 H   0  0  0  0  0  0  0  0  0  0  0  0
    1.8193    0.2474   -1.7925 H   0  0  0  0  0  0  0  0  0  0  0  0
    2.9444   -1.8152   -0.9663 H   0  0  0  0  0  0  0  0  0  0  0  0
    1.2018   -1.9214   -0.7947 H   0  0  0  0  0  0  0  0  0  0  0  0
    2.3147   -2.8333    1.1830 H   0  0  0  0  0  0  0  0  0  0  0  0
    3.1500   -1.3071    1.4879 H   0  0  0  0  0  0  0  0  0  0  0  0
    1.3844   -1.4041    1.6446 H   0  0  0  0  0  0  0  0  0  0  0  0
  1  8  1  0  0  0  0
  2  5  1  0  0  0  0
  2 10  1  0  0  0  0
  3 10  2  0  0  0  0
  4  5  1  0  0  0  0
  4  6  1  0  0  0  0
  4  7  1  0  0  0  0
  4 12  1  0  0  0  0
  5 13  1  0  0  0  0
  5 14  1  0  0  0  0
  6 15  1  0  0  0  0
  6 16  1  0  0  0  0
  6 17  1  0  0  0  0
  7 18  1  0  0  0  0
  7 19  1  0  0  0  0
  7 20  1  0  0  0  0
  8  9  1  0  0  0  0
  8 10  1  0  0  0  0
  8 21  1  0  0  0  0
  9 11  1  0  0  0  0
  9 22  1  0  0  0  0
  9 23  1  0  0  0  0
 11 24  1  0  0  0  0
 11 25  1  0  0  0  0
 11 26  1  0  0  0  0
M  END
> <PUBCHEM_COMPOUND_CID>
140952

> <PUBCHEM_CONFORMER_RMSD>
0.6

> <PUBCHEM_CONFORMER_DIVERSEORDER>
1
61
38
114
28
131
35
50
121
11
130
127
10
128
119
96
43
107
103
33
98
97
6
125
81
41
49
13
36
92
113
31
14
51
124
116
63
53
88
101
44
5
82
105
34
100
129
86
123
54
64
56
30
73
70
23
55
90
110
17
57
115
46
74
66
67
69
79
106
76
29
108
75
12
72
122
15
77
120
4
26
111
87
24
18
93
102
45
47
20
84
83
40
78
126
22
39
3
27
71
25
58
95
85
117
60
7
48
16
99
37
65
59
52
109
32
21
89
68
19
112
118
2
94
42
62
9
104
8
91
80

> <PUBCHEM_MMFF94_PARTIAL_CHARGES>
6
1 -0.29
10 0.66
2 -0.43
3 -0.57
5 0.28
8 0.35

> <PUBCHEM_EFFECTIVE_ROTOR_COUNT>
5

> <PUBCHEM_PHARMACOPHORE_FEATURES>
3
1 11 hydrophobe
1 3 acceptor
3 4 6 7 hydrophobe

> <PUBCHEM_HEAVY_ATOM_COUNT>
11

> <PUBCHEM_ATOM_DEF_STEREO_COUNT>
0

> <PUBCHEM_ATOM_UDEF_STEREO_COUNT>
1

> <PUBCHEM_BOND_DEF_STEREO_COUNT>
0

> <PUBCHEM_BOND_UDEF_STEREO_COUNT>
0

> <PUBCHEM_ISOTOPIC_ATOM_COUNT>
0

> <PUBCHEM_COMPONENT_COUNT>
1

> <PUBCHEM_CACTVS_TAUTO_COUNT>
1

> <PUBCHEM_CONFORMER_ID>
0002269800000001

> <PUBCHEM_MMFF94_ENERGY>
9.1738

> <PUBCHEM_FEATURE_SELFOVERLAP>
15.223

> <PUBCHEM_SHAPE_FINGERPRINT>
10130415 120 18341894035289633209
12500047 106 18408879664035654221
12932764 1 18411135853211067845
14144814 61 18272938198050588713
14252887 29 17846512442791593990
14325111 11 18410294718146646405
15375462 189 18410295813094502563
15775835 57 18408889546476048239
18619055 16 18335697204872072855
20201158 50 18412546522028672919
20279233 1 17603871113173035051
20645477 70 18337106774637272127
20711985 365 18191863418769351365
22485316 2 18334293167383778367
23380061 451 18411420600572952388
23402539 116 16877935079283336052
23552333 60 18410858720477799048
23552423 10 18263927807629865629
3248919 1 17917992741864582535
3312278 4 18341900726817044793

> <PUBCHEM_SHAPE_MULTIPOLES>
216.51
6.47
1.72
0.86
3.81
0.6
0.09
-0.02
-0.18
-0.8
0.35
-0.35
0.09
-0.39

> <PUBCHEM_SHAPE_SELFOVERLAP>
392.017

> <PUBCHEM_SHAPE_VOLUME>
140.3

> <PUBCHEM_COORDINATE_TYPE>
2
5
10

$$$$
