523674
  -OEChem-11012401203D

 32 31  0     0  0  0  0  0  0999 V2000
   -0.4198    0.0001    0.0643 Si  0  0  0  0  0  0  0  0  0  0  0  0
    1.2602    0.0183   -0.7686 C   0  0  0  0  0  0  0  0  0  0  0  0
   -1.7647   -0.0185   -1.2427 C   0  0  0  0  0  0  0  0  0  0  0  0
   -0.5695   -1.5309    1.1368 C   0  0  0  0  0  0  0  0  0  0  0  0
   -0.6058    1.5310    1.1310 C   0  0  0  0  0  0  0  0  0  0  0  0
    2.4626    0.0344    0.1797 C   0  0  0  0  0  0  0  0  0  0  0  0
   -3.1939   -0.0344   -0.7165 C   0  0  0  0  0  0  0  0  0  0  0  0
   -0.4388   -2.8614    0.4069 C   0  0  0  0  0  0  0  0  0  0  0  0
   -0.5067    2.8614    0.3960 C   0  0  0  0  0  0  0  0  0  0  0  0
    3.7764    0.0000   -0.5870 C   0  0  0  0  0  0  0  0  0  0  0  0
    1.3106    0.8935   -1.4274 H   0  0  0  0  0  0  0  0  0  0  0  0
    1.3276   -0.8616   -1.4197 H   0  0  0  0  0  0  0  0  0  0  0  0
   -1.6382    0.8593   -1.8868 H   0  0  0  0  0  0  0  0  0  0  0  0
   -1.6173   -0.8955   -1.8835 H   0  0  0  0  0  0  0  0  0  0  0  0
    0.1941   -1.4850    1.9217 H   0  0  0  0  0  0  0  0  0  0  0  0
   -1.5388   -1.5058    1.6479 H   0  0  0  0  0  0  0  0  0  0  0  0
   -1.5738    1.4849    1.6429 H   0  0  0  0  0  0  0  0  0  0  0  0
    0.1596    1.5060    1.9151 H   0  0  0  0  0  0  0  0  0  0  0  0
    2.4414    0.9335    0.8073 H   0  0  0  0  0  0  0  0  0  0  0  0
    2.4289   -0.8281    0.8564 H   0  0  0  0  0  0  0  0  0  0  0  0
   -3.9010   -0.0444   -1.5526 H   0  0  0  0  0  0  0  0  0  0  0  0
   -3.3878   -0.9220   -0.1048 H   0  0  0  0  0  0  0  0  0  0  0  0
   -3.4088    0.8506   -0.1080 H   0  0  0  0  0  0  0  0  0  0  0  0
   -0.5408   -3.6895    1.1161 H   0  0  0  0  0  0  0  0  0  0  0  0
   -1.2141   -2.9792   -0.3576 H   0  0  0  0  0  0  0  0  0  0  0  0
    0.5368   -2.9584   -0.0815 H   0  0  0  0  0  0  0  0  0  0  0  0
   -0.6274    3.6896    1.1022 H   0  0  0  0  0  0  0  0  0  0  0  0
    0.4659    2.9794   -0.0936 H   0  0  0  0  0  0  0  0  0  0  0  0
   -1.2853    2.9582   -0.3682 H   0  0  0  0  0  0  0  0  0  0  0  0
    4.6214    0.0145    0.1085 H   0  0  0  0  0  0  0  0  0  0  0  0
    3.8523   -0.9073   -1.1948 H   0  0  0  0  0  0  0  0  0  0  0  0
    3.8664    0.8670   -1.2493 H   0  0  0  0  0  0  0  0  0  0  0  0
  1  2  1  0  0  0  0
  1  3  1  0  0  0  0
  1  4  1  0  0  0  0
  1  5  1  0  0  0  0
  2  6  1  0  0  0  0
  2 11  1  0  0  0  0
  2 12  1  0  0  0  0
  3  7  1  0  0  0  0
  3 13  1  0  0  0  0
  3 14  1  0  0  0  0
  4  8  1  0  0  0  0
  4 15  1  0  0  0  0
  4 16  1  0  0  0  0
  5  9  1  0  0  0  0
  5 17  1  0  0  0  0
  5 18  1  0  0  0  0
  6 10  1  0  0  0  0
  6 19  1  0  0  0  0
  6 20  1  0  0  0  0
  7 21  1  0  0  0  0
  7 22  1  0  0  0  0
  7 23  1  0  0  0  0
  8 24  1  0  0  0  0
  8 25  1  0  0  0  0
  8 26  1  0  0  0  0
  9 27  1  0  0  0  0
  9 28  1  0  0  0  0
  9 29  1  0  0  0  0
 10 30  1  0  0  0  0
 10 31  1  0  0  0  0
 10 32  1  0  0  0  0
M  END
> <PUBCHEM_COMPOUND_CID>
523674

> <PUBCHEM_CONFORMER_RMSD>
0.6

> <PUBCHEM_CONFORMER_DIVERSEORDER>
1
21
22
20
19
18
10
17
9
6
14
4
8
7
15
16
11
12
23
3
13
2
5

> <PUBCHEM_MMFF94_PARTIAL_CHARGES>
5
1 0.32
2 -0.08
3 -0.08
4 -0.08
5 -0.08

> <PUBCHEM_EFFECTIVE_ROTOR_COUNT>
5

> <PUBCHEM_PHARMACOPHORE_FEATURES>
1
1 10 hydrophobe

> <PUBCHEM_HEAVY_ATOM_COUNT>
10

> <PUBCHEM_ATOM_DEF_STEREO_COUNT>
0

> <PUBCHEM_ATOM_UDEF_STEREO_COUNT>
0

> <PUBCHEM_BOND_DEF_STEREO_COUNT>
0

> <PUBCHEM_BOND_UDEF_STEREO_COUNT>
0

> <PUBCHEM_ISOTOPIC_ATOM_COUNT>
0

> <PUBCHEM_COMPONENT_COUNT>
1

> <PUBCHEM_CACTVS_TAUTO_COUNT>
1

> <PUBCHEM_CONFORMER_ID>
0007FD9A00000001

> <PUBCHEM_MMFF94_ENERGY>
-6.037

> <PUBCHEM_FEATURE_SELFOVERLAP>
5.074

> <PUBCHEM_SHAPE_FINGERPRINT>
13024252 1 13045949035531749756
13380536 167 17692520122915246849
13380536 261 18124578800396463081
13380536 55 17833831573235553356
14713566 1 18260545641064293642
15279308 128 18410293644194020611
16945 1 18339063947904155750
187816 3 18410852165951562566
20653085 51 16950568795891863916
21524375 3 17623310276931493112
228727 97 18341325587551368973
23402539 116 18342730806545813414
23552423 10 17905600008774253975
2748010 2 18053948638966233600
3250762 1 17689429808019951227
353137 74 18268986488646097685
4369600 1 18268690810291517483
54338 74 18410014333970770776
68250623 7 17839184004534899247
68419 9 17766262190078214401
81228 2 18201170874987825104

> <PUBCHEM_SHAPE_MULTIPOLES>
224.01
4.04
2.61
1.22
3.22
0
0.01
0.01
-1.73
-0.92
1.08
-0.36
-0.01
-0.02

> <PUBCHEM_SHAPE_SELFOVERLAP>
382.857

> <PUBCHEM_SHAPE_VOLUME>
150

> <PUBCHEM_COORDINATE_TYPE>
2
5
10

$$$$
