6933349
  -OEChem-11012400513D

 19 19  0     1  0  0  0  0  0999 V2000
   -1.2432    1.0626    0.4283 O   0  0  0  0  0  0  0  0  0  0  0  0
    2.0653   -1.3824   -0.1530 O   0  0  0  0  0  0  0  0  0  0  0  0
    1.6315    1.2356    0.6514 O   0  0  0  0  0  0  0  0  0  0  0  0
   -2.1965   -0.8546   -0.5918 O   0  0  0  0  0  0  0  0  0  0  0  0
    0.8063   -0.7703   -0.4040 C   0  0  2  0  0  0  0  0  0  0  0  0
    0.9825    0.7422   -0.5218 C   0  0  1  0  0  0  0  0  0  0  0  0
   -0.1814   -1.1135    0.7105 C   0  0  0  0  0  0  0  0  0  0  0  0
   -1.4878   -0.3420    0.5328 C   0  0  1  0  0  0  0  0  0  0  0  0
   -0.3766    1.4224   -0.6524 C   0  0  0  0  0  0  0  0  0  0  0  0
    0.4347   -1.1629   -1.3584 H   0  0  0  0  0  0  0  0  0  0  0  0
    1.6237    0.9941   -1.3733 H   0  0  0  0  0  0  0  0  0  0  0  0
   -0.3651   -2.1945    0.7154 H   0  0  0  0  0  0  0  0  0  0  0  0
    0.2694   -0.8649    1.6795 H   0  0  0  0  0  0  0  0  0  0  0  0
   -2.1127   -0.5025    1.4181 H   0  0  0  0  0  0  0  0  0  0  0  0
   -0.2579    2.5101   -0.6105 H   0  0  0  0  0  0  0  0  0  0  0  0
   -0.8591    1.1719   -1.6036 H   0  0  0  0  0  0  0  0  0  0  0  0
    1.9157   -2.3403   -0.0779 H   0  0  0  0  0  0  0  0  0  0  0  0
    2.4780    0.7640    0.7344 H   0  0  0  0  0  0  0  0  0  0  0  0
   -3.1411   -0.6847   -0.4366 H   0  0  0  0  0  0  0  0  0  0  0  0
  1  8  1  0  0  0  0
  1  9  1  0  0  0  0
  2  5  1  0  0  0  0
  2 17  1  0  0  0  0
  3  6  1  0  0  0  0
  3 18  1  0  0  0  0
  4  8  1  0  0  0  0
  4 19  1  0  0  0  0
  5  6  1  0  0  0  0
  5  7  1  0  0  0  0
  5 10  1  0  0  0  0
  6  9  1  0  0  0  0
  6 11  1  0  0  0  0
  7  8  1  0  0  0  0
  7 12  1  0  0  0  0
  7 13  1  0  0  0  0
  8 14  1  0  0  0  0
  9 15  1  0  0  0  0
  9 16  1  0  0  0  0
M  END
> <PUBCHEM_COMPOUND_CID>
6933349

> <PUBCHEM_CONFORMER_RMSD>
0.4

> <PUBCHEM_CONFORMER_DIVERSEORDER>
2
4
3
5
1

> <PUBCHEM_MMFF94_PARTIAL_CHARGES>
11
1 -0.56
17 0.4
18 0.4
19 0.4
2 -0.68
3 -0.68
4 -0.68
5 0.28
6 0.28
8 0.56
9 0.28

> <PUBCHEM_EFFECTIVE_ROTOR_COUNT>
1.2

> <PUBCHEM_PHARMACOPHORE_FEATURES>
8
1 1 acceptor
1 2 acceptor
1 2 donor
1 3 acceptor
1 3 donor
1 4 acceptor
1 4 donor
6 1 5 6 7 8 9 rings

> <PUBCHEM_HEAVY_ATOM_COUNT>
9

> <PUBCHEM_ATOM_DEF_STEREO_COUNT>
3

> <PUBCHEM_ATOM_UDEF_STEREO_COUNT>
0

> <PUBCHEM_BOND_DEF_STEREO_COUNT>
0

> <PUBCHEM_BOND_UDEF_STEREO_COUNT>
0

> <PUBCHEM_ISOTOPIC_ATOM_COUNT>
0

> <PUBCHEM_COMPONENT_COUNT>
1

> <PUBCHEM_CACTVS_TAUTO_COUNT>
1

> <PUBCHEM_CONFORMER_ID>
0069CB6500000002

> <PUBCHEM_MMFF94_ENERGY>
16.1897

> <PUBCHEM_FEATURE_SELFOVERLAP>
40.645

> <PUBCHEM_SHAPE_FINGERPRINT>
12423570 1 10705061176226140012
16945 1 18267868469777272928
18185500 45 18118409431931416475
21040471 1 18120384403880605901
21922407 69 16772975699084913779
23235685 24 18046077209121008453
23552423 10 18186812361072110790
241688 4 18261960643524953945
24536 1 17968672629902207049
29004967 10 18191030195139969851
5084963 1 18334580130911994324

> <PUBCHEM_SHAPE_MULTIPOLES>
161.74
2.29
1.64
0.86
0.17
0.16
-0.02
-0.49
0.09
-0.31
0.02
0.05
0.04
0.1

> <PUBCHEM_SHAPE_SELFOVERLAP>
318.793

> <PUBCHEM_SHAPE_VOLUME>
94.8

> <PUBCHEM_COORDINATE_TYPE>
2
5
10

$$$$
