12836300
  -OEChem-11012400593D

 44 44  0     0  0  0  0  0  0999 V2000
   -1.2639   -1.7450    1.2137 O   0  0  0  0  0  0  0  0  0  0  0  0
    1.4650   -2.0761    1.1737 O   0  0  0  0  0  0  0  0  0  0  0  0
   -2.0561    0.1264    0.0854 N   0  0  0  0  0  0  0  0  0  0  0  0
    0.2574   -0.3595    0.1580 N   0  0  0  0  0  0  0  0  0  0  0  0
   -1.8238    1.3512   -0.6764 C   0  0  0  0  0  0  0  0  0  0  0  0
   -3.4434   -0.1534    0.4320 C   0  0  0  0  0  0  0  0  0  0  0  0
   -1.6356    2.5739    0.2285 C   0  0  0  0  0  0  0  0  0  0  0  0
   -4.1381   -1.0367   -0.6104 C   0  0  0  0  0  0  0  0  0  0  0  0
   -0.4183    2.3748    1.1323 C   0  0  0  0  0  0  0  0  0  0  0  0
   -2.8787    2.8433    1.0794 C   0  0  0  0  0  0  0  0  0  0  0  0
   -3.4250   -2.3853   -0.7139 C   0  0  0  0  0  0  0  0  0  0  0  0
   -4.1809   -0.3622   -1.9835 C   0  0  0  0  0  0  0  0  0  0  0  0
   -1.0396   -0.7410    0.5316 C   0  0  0  0  0  0  0  0  0  0  0  0
    1.4206   -1.0491    0.5020 C   0  0  0  0  0  0  0  0  0  0  0  0
    2.6899   -0.4475    0.0194 C   0  0  0  0  0  0  0  0  0  0  0  0
    3.8506   -0.6842    0.7268 C   0  0  0  0  0  0  0  0  0  0  0  0
    2.6685    0.3283   -1.1211 C   0  0  0  0  0  0  0  0  0  0  0  0
    5.0428   -0.1195    0.2736 C   0  0  0  0  0  0  0  0  0  0  0  0
    3.8608    0.8929   -1.5744 C   0  0  0  0  0  0  0  0  0  0  0  0
    5.0480    0.6689   -0.8769 C   0  0  0  0  0  0  0  0  0  0  0  0
   -0.9819    1.2385   -1.3646 H   0  0  0  0  0  0  0  0  0  0  0  0
   -2.6820    1.5529   -1.3213 H   0  0  0  0  0  0  0  0  0  0  0  0
   -3.4712   -0.6536    1.4076 H   0  0  0  0  0  0  0  0  0  0  0  0
   -4.0271    0.7602    0.5319 H   0  0  0  0  0  0  0  0  0  0  0  0
   -1.4597    3.4489   -0.4093 H   0  0  0  0  0  0  0  0  0  0  0  0
   -5.1685   -1.2118   -0.2769 H   0  0  0  0  0  0  0  0  0  0  0  0
   -0.2774    3.2736    1.7461 H   0  0  0  0  0  0  0  0  0  0  0  0
    0.5025    2.2675    0.5536 H   0  0  0  0  0  0  0  0  0  0  0  0
   -0.5299    1.5472    1.8372 H   0  0  0  0  0  0  0  0  0  0  0  0
   -3.0163    2.1048    1.8748 H   0  0  0  0  0  0  0  0  0  0  0  0
   -3.7808    2.9102    0.4633 H   0  0  0  0  0  0  0  0  0  0  0  0
   -2.7712    3.8128    1.5812 H   0  0  0  0  0  0  0  0  0  0  0  0
   -4.0012   -3.0563   -1.3621 H   0  0  0  0  0  0  0  0  0  0  0  0
   -3.3537   -2.8749    0.2622 H   0  0  0  0  0  0  0  0  0  0  0  0
   -2.4281   -2.3067   -1.1574 H   0  0  0  0  0  0  0  0  0  0  0  0
   -3.1931   -0.2919   -2.4490 H   0  0  0  0  0  0  0  0  0  0  0  0
   -4.6309    0.6338   -1.9233 H   0  0  0  0  0  0  0  0  0  0  0  0
   -4.8047   -0.9532   -2.6643 H   0  0  0  0  0  0  0  0  0  0  0  0
    0.3634    0.4846   -0.3797 H   0  0  0  0  0  0  0  0  0  0  0  0
    3.8631   -1.2911    1.6272 H   0  0  0  0  0  0  0  0  0  0  0  0
    1.7801    0.4945   -1.7208 H   0  0  0  0  0  0  0  0  0  0  0  0
    5.9671   -0.2932    0.8168 H   0  0  0  0  0  0  0  0  0  0  0  0
    3.8674    1.4987   -2.4759 H   0  0  0  0  0  0  0  0  0  0  0  0
    5.9767    1.1067   -1.2311 H   0  0  0  0  0  0  0  0  0  0  0  0
  1 13  2  0  0  0  0
  2 14  2  0  0  0  0
  3  5  1  0  0  0  0
  3  6  1  0  0  0  0
  3 13  1  0  0  0  0
  4 13  1  0  0  0  0
  4 14  1  0  0  0  0
  4 39  1  0  0  0  0
  5  7  1  0  0  0  0
  5 21  1  0  0  0  0
  5 22  1  0  0  0  0
  6  8  1  0  0  0  0
  6 23  1  0  0  0  0
  6 24  1  0  0  0  0
  7  9  1  0  0  0  0
  7 10  1  0  0  0  0
  7 25  1  0  0  0  0
  8 11  1  0  0  0  0
  8 12  1  0  0  0  0
  8 26  1  0  0  0  0
  9 27  1  0  0  0  0
  9 28  1  0  0  0  0
  9 29  1  0  0  0  0
 10 30  1  0  0  0  0
 10 31  1  0  0  0  0
 10 32  1  0  0  0  0
 11 33  1  0  0  0  0
 11 34  1  0  0  0  0
 11 35  1  0  0  0  0
 12 36  1  0  0  0  0
 12 37  1  0  0  0  0
 12 38  1  0  0  0  0
 14 15  1  0  0  0  0
 15 16  2  0  0  0  0
 15 17  1  0  0  0  0
 16 18  1  0  0  0  0
 16 40  1  0  0  0  0
 17 19  2  0  0  0  0
 17 41  1  0  0  0  0
 18 20  2  0  0  0  0
 18 42  1  0  0  0  0
 19 20  1  0  0  0  0
 19 43  1  0  0  0  0
 20 44  1  0  0  0  0
M  END
> <PUBCHEM_COMPOUND_CID>
12836300

> <PUBCHEM_CONFORMER_RMSD>
0.8

> <PUBCHEM_CONFORMER_DIVERSEORDER>
1
10
9
2
6
11
3
5
12
4
8
7

> <PUBCHEM_MMFF94_PARTIAL_CHARGES>
20
1 -0.57
13 0.69
14 0.54
15 0.09
16 -0.15
17 -0.15
18 -0.15
19 -0.15
2 -0.57
20 -0.15
3 -0.66
39 0.37
4 -0.49
40 0.15
41 0.15
42 0.15
43 0.15
44 0.15
5 0.3
6 0.3

> <PUBCHEM_EFFECTIVE_ROTOR_COUNT>
8

> <PUBCHEM_PHARMACOPHORE_FEATURES>
6
1 1 acceptor
1 2 acceptor
1 4 donor
3 7 9 10 hydrophobe
3 8 11 12 hydrophobe
6 15 16 17 18 19 20 rings

> <PUBCHEM_HEAVY_ATOM_COUNT>
20

> <PUBCHEM_ATOM_DEF_STEREO_COUNT>
0

> <PUBCHEM_ATOM_UDEF_STEREO_COUNT>
0

> <PUBCHEM_BOND_DEF_STEREO_COUNT>
0

> <PUBCHEM_BOND_UDEF_STEREO_COUNT>
0

> <PUBCHEM_ISOTOPIC_ATOM_COUNT>
0

> <PUBCHEM_COMPONENT_COUNT>
1

> <PUBCHEM_CACTVS_TAUTO_COUNT>
3

> <PUBCHEM_CONFORMER_ID>
00C3DDCC00000001

> <PUBCHEM_MMFF94_ENERGY>
54.3196

> <PUBCHEM_FEATURE_SELFOVERLAP>
30.451

> <PUBCHEM_SHAPE_FINGERPRINT>
10366900 7 18341332275263770530
12166972 35 17604150431960073542
12173636 292 18055635006309500833
12403260 363 18409164437758400576
12507557 5 16805326625814718612
12553582 1 18343294895050930067
12788726 201 18200584797088876873
14466204 15 8645953069302071479
14790565 3 17911526389697768945
16752209 62 18411413990676299818
17349148 13 18186515497575757706
17959699 21 17604417514770530597
192875 21 18186236247339404412
200 152 18333724736820264775
20300324 65 18412827992657564780
21618674 57 13623519156761176884
22620623 9 17417801808756681877
23402539 116 18411978061574058806
235170 7 17275109414264766100
23557571 272 17846218830327066416
23558518 356 18191310373100471515
23559900 14 18262800804212177772
238078 22 18339641247913356511
25147074 1 18192421983618913243
312423 11 18263085422572225226
3268164 11 18201999915044233965
474 4 17676496025304321432
532947 4 17908983558050926249
5385378 56 7924542629867101439
603831 33 18409160000419107651
6786 2 15906900071169442305
6913067 236 17632284697064045550
7615 1 18189325775859857778

> <PUBCHEM_SHAPE_MULTIPOLES>
389.89
9.92
2.61
1.42
7.19
1.46
-0.41
-1.3
-3.37
-3.05
0.84
-0.12
-0.02
-1.57

> <PUBCHEM_SHAPE_SELFOVERLAP>
788.032

> <PUBCHEM_SHAPE_VOLUME>
227.4

> <PUBCHEM_COORDINATE_TYPE>
2
5
10

$$$$
