69321
  -OEChem-11012400513D

 17 17  0     0  0  0  0  0  0999 V2000
    2.5380    1.0968   -0.5586 O   0  5  0  0  0  0  0  0  0  0  0  0
    2.5097   -1.1062   -0.5670 O   0  0  0  0  0  0  0  0  0  0  0  0
    2.1681   -0.0018   -0.1088 N   0  3  0  0  0  0  0  0  0  0  0  0
   -0.1138    0.0017    0.5293 C   0  0  0  0  0  0  0  0  0  0  0  0
    1.2783    0.0023    1.0646 C   0  0  0  0  0  0  0  0  0  0  0  0
   -0.7637    1.2096    0.2751 C   0  0  0  0  0  0  0  0  0  0  0  0
   -0.7659   -1.2065    0.2824 C   0  0  0  0  0  0  0  0  0  0  0  0
   -2.0655    1.2094   -0.2258 C   0  0  0  0  0  0  0  0  0  0  0  0
   -2.0678   -1.2066   -0.2185 C   0  0  0  0  0  0  0  0  0  0  0  0
   -2.7175    0.0013   -0.4726 C   0  0  0  0  0  0  0  0  0  0  0  0
    1.4997    0.8914    1.6641 H   0  0  0  0  0  0  0  0  0  0  0  0
    1.4988   -0.8837    1.6691 H   0  0  0  0  0  0  0  0  0  0  0  0
   -0.2672    2.1580    0.4631 H   0  0  0  0  0  0  0  0  0  0  0  0
   -0.2714   -2.1547    0.4763 H   0  0  0  0  0  0  0  0  0  0  0  0
   -2.5716    2.1498   -0.4237 H   0  0  0  0  0  0  0  0  0  0  0  0
   -2.5757   -2.1472   -0.4108 H   0  0  0  0  0  0  0  0  0  0  0  0
   -3.7310    0.0011   -0.8627 H   0  0  0  0  0  0  0  0  0  0  0  0
  1  3  1  0  0  0  0
  2  3  2  0  0  0  0
  3  5  1  0  0  0  0
  4  5  1  0  0  0  0
  4  6  2  0  0  0  0
  4  7  1  0  0  0  0
  5 11  1  0  0  0  0
  5 12  1  0  0  0  0
  6  8  1  0  0  0  0
  6 13  1  0  0  0  0
  7  9  2  0  0  0  0
  7 14  1  0  0  0  0
  8 10  2  0  0  0  0
  8 15  1  0  0  0  0
  9 10  1  0  0  0  0
  9 16  1  0  0  0  0
 10 17  1  0  0  0  0
M  CHG  2   1  -1   3   1
M  END
> <PUBCHEM_COMPOUND_CID>
69321

> <PUBCHEM_CONFORMER_RMSD>
0.4

> <PUBCHEM_CONFORMER_DIVERSEORDER>
1
5
4
2
3

> <PUBCHEM_MMFF94_PARTIAL_CHARGES>
15
1 -0.52
10 -0.15
13 0.15
14 0.15
15 0.15
16 0.15
17 0.15
2 -0.52
3 0.8
4 -0.14
5 0.38
6 -0.15
7 -0.15
8 -0.15
9 -0.15

> <PUBCHEM_EFFECTIVE_ROTOR_COUNT>
2

> <PUBCHEM_PHARMACOPHORE_FEATURES>
4
1 1 acceptor
1 1 anion
1 2 acceptor
6 4 6 7 8 9 10 rings

> <PUBCHEM_HEAVY_ATOM_COUNT>
10

> <PUBCHEM_ATOM_DEF_STEREO_COUNT>
0

> <PUBCHEM_ATOM_UDEF_STEREO_COUNT>
0

> <PUBCHEM_BOND_DEF_STEREO_COUNT>
0

> <PUBCHEM_BOND_UDEF_STEREO_COUNT>
0

> <PUBCHEM_ISOTOPIC_ATOM_COUNT>
0

> <PUBCHEM_COMPONENT_COUNT>
1

> <PUBCHEM_CACTVS_TAUTO_COUNT>
2

> <PUBCHEM_CONFORMER_ID>
00010EC900000001

> <PUBCHEM_MMFF94_ENERGY>
21.332

> <PUBCHEM_FEATURE_SELFOVERLAP>
20.376

> <PUBCHEM_SHAPE_FINGERPRINT>
12716758 59 18341605980312287803
12897270 3 18340209699424225052
12932764 1 17274819190075448771
15310529 11 18273495697384517446
15775835 57 17530963549154393244
16945 1 18339630205425480705
20201158 50 17988644051824924302
20653085 51 18114753633125971309
21040471 1 18194947570512807633
21293036 1 18334565889333203943
23552423 10 18335415734006044443
2748010 2 17329698233721732995
29004967 10 16128650864321907922
369184 2 18410576188633197819
5084963 1 18341608157760460561

> <PUBCHEM_SHAPE_MULTIPOLES>
189.08
3.97
1.41
0.84
1.22
0
-0.1
-0.01
1.06
-0.32
0.1
0.23
0
0

> <PUBCHEM_SHAPE_SELFOVERLAP>
389.863

> <PUBCHEM_SHAPE_VOLUME>
109.1

> <PUBCHEM_COORDINATE_TYPE>
2
5
10

$$$$
