5463340
  -OEChem-10312420572D

 63 62  0     0  0  0  0  0  0999 V2000
    4.5981    0.4400    0.0000 O   0  0  0  0  0  0  0  0  0  0  0  0
    5.4641   -1.0600    0.0000 O   0  0  0  0  0  0  0  0  0  0  0  0
   16.7224    0.4400    0.0000 C   0  0  0  0  0  0  0  0  0  0  0  0
   15.8564   -0.0600    0.0000 C   0  0  0  0  0  0  0  0  0  0  0  0
    8.9282   -0.0600    0.0000 C   0  0  0  0  0  0  0  0  0  0  0  0
    9.7942    0.4400    0.0000 C   0  0  0  0  0  0  0  0  0  0  0  0
   17.5885   -0.0600    0.0000 C   0  0  0  0  0  0  0  0  0  0  0  0
   14.9904    0.4400    0.0000 C   0  0  0  0  0  0  0  0  0  0  0  0
    8.0622    0.4400    0.0000 C   0  0  0  0  0  0  0  0  0  0  0  0
   10.6603   -0.0600    0.0000 C   0  0  0  0  0  0  0  0  0  0  0  0
   18.4545    0.4400    0.0000 C   0  0  0  0  0  0  0  0  0  0  0  0
   14.1244   -0.0600    0.0000 C   0  0  0  0  0  0  0  0  0  0  0  0
   11.5263    0.4400    0.0000 C   0  0  0  0  0  0  0  0  0  0  0  0
    7.1962   -0.0600    0.0000 C   0  0  0  0  0  0  0  0  0  0  0  0
   19.3205   -0.0600    0.0000 C   0  0  0  0  0  0  0  0  0  0  0  0
   13.2583    0.4400    0.0000 C   0  0  0  0  0  0  0  0  0  0  0  0
   12.3923   -0.0600    0.0000 C   0  0  0  0  0  0  0  0  0  0  0  0
    6.3301    0.4400    0.0000 C   0  0  0  0  0  0  0  0  0  0  0  0
   20.1865    0.4400    0.0000 C   0  0  0  0  0  0  0  0  0  0  0  0
    5.4641   -0.0600    0.0000 C   0  0  0  0  0  0  0  0  0  0  0  0
    3.7320   -0.0600    0.0000 C   0  0  0  0  0  0  0  0  0  0  0  0
    2.8660    0.4400    0.0000 C   0  0  0  0  0  0  0  0  0  0  0  0
    2.0000   -0.0600    0.0000 C   0  0  0  0  0  0  0  0  0  0  0  0
   17.1210    0.9149    0.0000 H   0  0  0  0  0  0  0  0  0  0  0  0
   16.3239    0.9149    0.0000 H   0  0  0  0  0  0  0  0  0  0  0  0
   15.4579   -0.5349    0.0000 H   0  0  0  0  0  0  0  0  0  0  0  0
   16.2549   -0.5349    0.0000 H   0  0  0  0  0  0  0  0  0  0  0  0
    8.5297   -0.5349    0.0000 H   0  0  0  0  0  0  0  0  0  0  0  0
    9.3267   -0.5349    0.0000 H   0  0  0  0  0  0  0  0  0  0  0  0
   10.1928    0.9149    0.0000 H   0  0  0  0  0  0  0  0  0  0  0  0
    9.3957    0.9149    0.0000 H   0  0  0  0  0  0  0  0  0  0  0  0
   17.1899   -0.5349    0.0000 H   0  0  0  0  0  0  0  0  0  0  0  0
   17.9870   -0.5349    0.0000 H   0  0  0  0  0  0  0  0  0  0  0  0
   15.3889    0.9149    0.0000 H   0  0  0  0  0  0  0  0  0  0  0  0
   14.5919    0.9149    0.0000 H   0  0  0  0  0  0  0  0  0  0  0  0
    8.4607    0.9149    0.0000 H   0  0  0  0  0  0  0  0  0  0  0  0
    7.6636    0.9149    0.0000 H   0  0  0  0  0  0  0  0  0  0  0  0
   10.2617   -0.5349    0.0000 H   0  0  0  0  0  0  0  0  0  0  0  0
   11.0588   -0.5349    0.0000 H   0  0  0  0  0  0  0  0  0  0  0  0
   18.8530    0.9149    0.0000 H   0  0  0  0  0  0  0  0  0  0  0  0
   18.0560    0.9149    0.0000 H   0  0  0  0  0  0  0  0  0  0  0  0
   13.7258   -0.5349    0.0000 H   0  0  0  0  0  0  0  0  0  0  0  0
   14.5229   -0.5349    0.0000 H   0  0  0  0  0  0  0  0  0  0  0  0
   11.9248    0.9149    0.0000 H   0  0  0  0  0  0  0  0  0  0  0  0
   11.1278    0.9149    0.0000 H   0  0  0  0  0  0  0  0  0  0  0  0
    6.7976   -0.5349    0.0000 H   0  0  0  0  0  0  0  0  0  0  0  0
    7.5947   -0.5349    0.0000 H   0  0  0  0  0  0  0  0  0  0  0  0
   18.9220   -0.5349    0.0000 H   0  0  0  0  0  0  0  0  0  0  0  0
   19.7190   -0.5349    0.0000 H   0  0  0  0  0  0  0  0  0  0  0  0
   13.2583    1.0600    0.0000 H   0  0  0  0  0  0  0  0  0  0  0  0
   12.3923   -0.6800    0.0000 H   0  0  0  0  0  0  0  0  0  0  0  0
    6.7287    0.9149    0.0000 H   0  0  0  0  0  0  0  0  0  0  0  0
    5.9316    0.9149    0.0000 H   0  0  0  0  0  0  0  0  0  0  0  0
   20.4965   -0.0969    0.0000 H   0  0  0  0  0  0  0  0  0  0  0  0
   20.7235    0.7500    0.0000 H   0  0  0  0  0  0  0  0  0  0  0  0
   19.8765    0.9769    0.0000 H   0  0  0  0  0  0  0  0  0  0  0  0
    3.3335   -0.5349    0.0000 H   0  0  0  0  0  0  0  0  0  0  0  0
    4.1306   -0.5349    0.0000 H   0  0  0  0  0  0  0  0  0  0  0  0
    3.2646    0.9149    0.0000 H   0  0  0  0  0  0  0  0  0  0  0  0
    2.4675    0.9149    0.0000 H   0  0  0  0  0  0  0  0  0  0  0  0
    1.6900    0.4769    0.0000 H   0  0  0  0  0  0  0  0  0  0  0  0
    1.4631   -0.3700    0.0000 H   0  0  0  0  0  0  0  0  0  0  0  0
    2.3100   -0.5969    0.0000 H   0  0  0  0  0  0  0  0  0  0  0  0
  1 20  1  0  0  0  0
  1 21  1  0  0  0  0
  2 20  2  0  0  0  0
  3  4  1  0  0  0  0
  3  7  1  0  0  0  0
  3 24  1  0  0  0  0
  3 25  1  0  0  0  0
  4  8  1  0  0  0  0
  4 26  1  0  0  0  0
  4 27  1  0  0  0  0
  5  6  1  0  0  0  0
  5  9  1  0  0  0  0
  5 28  1  0  0  0  0
  5 29  1  0  0  0  0
  6 10  1  0  0  0  0
  6 30  1  0  0  0  0
  6 31  1  0  0  0  0
  7 11  1  0  0  0  0
  7 32  1  0  0  0  0
  7 33  1  0  0  0  0
  8 12  1  0  0  0  0
  8 34  1  0  0  0  0
  8 35  1  0  0  0  0
  9 14  1  0  0  0  0
  9 36  1  0  0  0  0
  9 37  1  0  0  0  0
 10 13  1  0  0  0  0
 10 38  1  0  0  0  0
 10 39  1  0  0  0  0
 11 15  1  0  0  0  0
 11 40  1  0  0  0  0
 11 41  1  0  0  0  0
 12 16  1  0  0  0  0
 12 42  1  0  0  0  0
 12 43  1  0  0  0  0
 13 17  1  0  0  0  0
 13 44  1  0  0  0  0
 13 45  1  0  0  0  0
 14 18  1  0  0  0  0
 14 46  1  0  0  0  0
 14 47  1  0  0  0  0
 15 19  1  0  0  0  0
 15 48  1  0  0  0  0
 15 49  1  0  0  0  0
 16 17  2  0  0  0  0
 16 50  1  0  0  0  0
 17 51  1  0  0  0  0
 18 20  1  0  0  0  0
 18 52  1  0  0  0  0
 18 53  1  0  0  0  0
 19 54  1  0  0  0  0
 19 55  1  0  0  0  0
 19 56  1  0  0  0  0
 21 22  1  0  0  0  0
 21 57  1  0  0  0  0
 21 58  1  0  0  0  0
 22 23  1  0  0  0  0
 22 59  1  0  0  0  0
 22 60  1  0  0  0  0
 23 61  1  0  0  0  0
 23 62  1  0  0  0  0
 23 63  1  0  0  0  0
M  END
> <PUBCHEM_COMPOUND_CID>
5463340

> <PUBCHEM_COMPOUND_CANONICALIZED>
1

> <PUBCHEM_CACTVS_COMPLEXITY>
271

> <PUBCHEM_CACTVS_HBOND_ACCEPTOR>
2

> <PUBCHEM_CACTVS_HBOND_DONOR>
0

> <PUBCHEM_CACTVS_ROTATABLE_BOND>
18

> <PUBCHEM_CACTVS_SUBSKEYS>
AAADcfB4MAAAAAAAAAAAAAAAAAAAAAAAAAAAAAAAAAAAAAAAAAAAGgAAAAAACACggAICCAAABACIACDSCAAAAAAgAAAICAEAAAgAABIAAQACAAAEgAAIAAOIyKCAAAAAAAAAAAAAAAAAAAAAAAAAAAAAAA==

> <PUBCHEM_IUPAC_OPENEYE_NAME>
propyl (E)-octadec-9-enoate

> <PUBCHEM_IUPAC_CAS_NAME>
(E)-9-octadecenoic acid propyl ester

> <PUBCHEM_IUPAC_NAME_MARKUP>
propyl (<I>E</I>)-octadec-9-enoate

> <PUBCHEM_IUPAC_NAME>
propyl (E)-octadec-9-enoate

> <PUBCHEM_IUPAC_SYSTEMATIC_NAME>
propyl (E)-octadec-9-enoate

> <PUBCHEM_IUPAC_TRADITIONAL_NAME>
(E)-octadec-9-enoic acid propyl ester

> <PUBCHEM_IUPAC_INCHI>
InChI=1S/C21H40O2/c1-3-5-6-7-8-9-10-11-12-13-14-15-16-17-18-19-21(22)23-20-4-2/h11-12H,3-10,13-20H2,1-2H3/b12-11+

> <PUBCHEM_IUPAC_INCHIKEY>
BVWMJLIIGRDFEI-VAWYXSNFSA-N

> <PUBCHEM_XLOGP3_AA>
8.5

> <PUBCHEM_EXACT_MASS>
324.302830514

> <PUBCHEM_MOLECULAR_FORMULA>
C21H40O2

> <PUBCHEM_MOLECULAR_WEIGHT>
324.5

> <PUBCHEM_OPENEYE_CAN_SMILES>
CCCCCCCCC=CCCCCCCCC(=O)OCCC

> <PUBCHEM_OPENEYE_ISO_SMILES>
CCCCCCCC/C=C/CCCCCCCC(=O)OCCC

> <PUBCHEM_CACTVS_TPSA>
26.3

> <PUBCHEM_MONOISOTOPIC_WEIGHT>
324.302830514

> <PUBCHEM_TOTAL_CHARGE>
0

> <PUBCHEM_HEAVY_ATOM_COUNT>
23

> <PUBCHEM_ATOM_DEF_STEREO_COUNT>
0

> <PUBCHEM_ATOM_UDEF_STEREO_COUNT>
0

> <PUBCHEM_BOND_DEF_STEREO_COUNT>
1

> <PUBCHEM_BOND_UDEF_STEREO_COUNT>
0

> <PUBCHEM_ISOTOPIC_ATOM_COUNT>
0

> <PUBCHEM_COMPONENT_COUNT>
1

> <PUBCHEM_CACTVS_TAUTO_COUNT>
-1

> <PUBCHEM_COORDINATE_TYPE>
1
5
255

$$$$
