5463460
  -OEChem-11012401083D

 30 29  0     0  0  0  0  0  0999 V2000
    2.0043   -0.0017    0.0089 C   0  0  0  0  0  0  0  0  0  0  0  0
   -2.0043    0.0021   -0.0089 C   0  0  0  0  0  0  0  0  0  0  0  0
    0.5338   -0.2664    0.3085 C   0  0  0  0  0  0  0  0  0  0  0  0
   -0.5341    0.2667   -0.3092 C   0  0  0  0  0  0  0  0  0  0  0  0
    2.6619   -1.3373   -0.3820 C   0  0  0  0  0  0  0  0  0  0  0  0
    2.0838    0.9662   -1.1853 C   0  0  0  0  0  0  0  0  0  0  0  0
    2.7957    0.6059    1.1819 C   0  0  0  0  0  0  0  0  0  0  0  0
   -2.8019   -0.5818   -1.1896 C   0  0  0  0  0  0  0  0  0  0  0  0
   -2.0830   -0.9866    1.1682 C   0  0  0  0  0  0  0  0  0  0  0  0
   -2.6561    1.3329    0.4076 C   0  0  0  0  0  0  0  0  0  0  0  0
    0.3951   -0.9665    1.1280 H   0  0  0  0  0  0  0  0  0  0  0  0
   -0.3954    0.9682   -1.1274 H   0  0  0  0  0  0  0  0  0  0  0  0
    2.1532   -1.8001   -1.2362 H   0  0  0  0  0  0  0  0  0  0  0  0
    2.6345   -2.0535    0.4478 H   0  0  0  0  0  0  0  0  0  0  0  0
    3.7121   -1.1948   -0.6622 H   0  0  0  0  0  0  0  0  0  0  0  0
    1.6455    1.9450   -0.9563 H   0  0  0  0  0  0  0  0  0  0  0  0
    3.1319    1.1525   -1.4529 H   0  0  0  0  0  0  0  0  0  0  0  0
    1.6076    0.5614   -2.0864 H   0  0  0  0  0  0  0  0  0  0  0  0
    2.7751   -0.0567    2.0546 H   0  0  0  0  0  0  0  0  0  0  0  0
    3.8443    0.7764    0.9138 H   0  0  0  0  0  0  0  0  0  0  0  0
    2.3658    1.5664    1.4886 H   0  0  0  0  0  0  0  0  0  0  0  0
   -2.3767   -1.5382   -1.5147 H   0  0  0  0  0  0  0  0  0  0  0  0
   -3.8503   -0.7531   -0.9209 H   0  0  0  0  0  0  0  0  0  0  0  0
   -2.7820    0.0960   -2.0507 H   0  0  0  0  0  0  0  0  0  0  0  0
   -3.1310   -1.1795    1.4315 H   0  0  0  0  0  0  0  0  0  0  0  0
   -1.6090   -0.5965    2.0770 H   0  0  0  0  0  0  0  0  0  0  0  0
   -1.6423   -1.9603    0.9228 H   0  0  0  0  0  0  0  0  0  0  0  0
   -3.7058    1.1889    0.6887 H   0  0  0  0  0  0  0  0  0  0  0  0
   -2.6290    2.0633   -0.4098 H   0  0  0  0  0  0  0  0  0  0  0  0
   -2.1430    1.7789    1.2679 H   0  0  0  0  0  0  0  0  0  0  0  0
  1  3  1  0  0  0  0
  1  5  1  0  0  0  0
  1  6  1  0  0  0  0
  1  7  1  0  0  0  0
  2  4  1  0  0  0  0
  2  8  1  0  0  0  0
  2  9  1  0  0  0  0
  2 10  1  0  0  0  0
  3  4  2  0  0  0  0
  3 11  1  0  0  0  0
  4 12  1  0  0  0  0
  5 13  1  0  0  0  0
  5 14  1  0  0  0  0
  5 15  1  0  0  0  0
  6 16  1  0  0  0  0
  6 17  1  0  0  0  0
  6 18  1  0  0  0  0
  7 19  1  0  0  0  0
  7 20  1  0  0  0  0
  7 21  1  0  0  0  0
  8 22  1  0  0  0  0
  8 23  1  0  0  0  0
  8 24  1  0  0  0  0
  9 25  1  0  0  0  0
  9 26  1  0  0  0  0
  9 27  1  0  0  0  0
 10 28  1  0  0  0  0
 10 29  1  0  0  0  0
 10 30  1  0  0  0  0
M  END
> <PUBCHEM_COMPOUND_CID>
5463460

> <PUBCHEM_CONFORMER_RMSD>
0.4

> <PUBCHEM_CONFORMER_DIVERSEORDER>
1
2

> <PUBCHEM_MMFF94_PARTIAL_CHARGES>
6
1 0.14
11 0.15
12 0.15
2 0.14
3 -0.29
4 -0.29

> <PUBCHEM_EFFECTIVE_ROTOR_COUNT>
2

> <PUBCHEM_PHARMACOPHORE_FEATURES>
2
4 1 5 6 7 hydrophobe
4 2 8 9 10 hydrophobe

> <PUBCHEM_HEAVY_ATOM_COUNT>
10

> <PUBCHEM_ATOM_DEF_STEREO_COUNT>
0

> <PUBCHEM_ATOM_UDEF_STEREO_COUNT>
0

> <PUBCHEM_BOND_DEF_STEREO_COUNT>
1

> <PUBCHEM_BOND_UDEF_STEREO_COUNT>
0

> <PUBCHEM_ISOTOPIC_ATOM_COUNT>
0

> <PUBCHEM_COMPONENT_COUNT>
1

> <PUBCHEM_CACTVS_TAUTO_COUNT>
1

> <PUBCHEM_CONFORMER_ID>
00535DA400000001

> <PUBCHEM_MMFF94_ENERGY>
25.8084

> <PUBCHEM_FEATURE_SELFOVERLAP>
10.149

> <PUBCHEM_SHAPE_FINGERPRINT>
12897270 3 17458346350858145398
12932741 1 17530969102462678271
12932764 1 17846508040312848391
14325111 11 17917987274075828486
14390081 3 18202560674653992105
15310529 11 17561072627166897933
15775835 57 17846780710617203751
170605 34 16701731782860003912
19973954 147 18187093870239845740
20653085 51 17059505023864851865
21524375 3 17766852632608473297
23235687 12 17603588547005599276
23552423 10 18333736784008363950
3248919 1 18260547839749815430
369184 2 17775565334217977563
5084963 1 18408604734182920654
74978 22 17530684303181163458
8030462 33 18413674616537021469

> <PUBCHEM_SHAPE_MULTIPOLES>
205.8
5.33
1.25
1.22
0
0.01
-0.01
0
0
0
0.01
0
-0.01
0

> <PUBCHEM_SHAPE_SELFOVERLAP>
382.29

> <PUBCHEM_SHAPE_VOLUME>
133.6

> <PUBCHEM_COORDINATE_TYPE>
2
5
10

$$$$
