84444
  -OEChem-11012400553D

 18 17  0     0  0  0  0  0  0999 V2000
   -0.6690   -0.5223   -0.0029 O   0  0  0  0  0  0  0  0  0  0  0  0
    0.6931    1.3392   -0.0087 O   0  0  0  0  0  0  0  0  0  0  0  0
    4.0278    0.2216    0.0161 N   0  0  0  0  0  0  0  0  0  0  0  0
   -3.0622   -0.5664    0.0095 C   0  0  0  0  0  0  0  0  0  0  0  0
   -1.8198    0.3110    0.0037 C   0  0  0  0  0  0  0  0  0  0  0  0
   -4.3365    0.2588    0.0016 C   0  0  0  0  0  0  0  0  0  0  0  0
    0.5400    0.1252   -0.0086 C   0  0  0  0  0  0  0  0  0  0  0  0
    1.6499   -0.8969   -0.0138 C   0  0  0  0  0  0  0  0  0  0  0  0
    2.9768   -0.2701    0.0032 C   0  0  0  0  0  0  0  0  0  0  0  0
   -3.0458   -1.2334   -0.8608 H   0  0  0  0  0  0  0  0  0  0  0  0
   -3.0470   -1.2199    0.8899 H   0  0  0  0  0  0  0  0  0  0  0  0
   -1.8141    0.9471   -0.8893 H   0  0  0  0  0  0  0  0  0  0  0  0
   -1.8055    0.9468    0.8967 H   0  0  0  0  0  0  0  0  0  0  0  0
   -4.3897    0.8900   -0.8912 H   0  0  0  0  0  0  0  0  0  0  0  0
   -5.2129   -0.3967    0.0066 H   0  0  0  0  0  0  0  0  0  0  0  0
   -4.3908    0.9051    0.8835 H   0  0  0  0  0  0  0  0  0  0  0  0
    1.5461   -1.5131   -0.9131 H   0  0  0  0  0  0  0  0  0  0  0  0
    1.5352   -1.5346    0.8691 H   0  0  0  0  0  0  0  0  0  0  0  0
  1  5  1  0  0  0  0
  1  7  1  0  0  0  0
  2  7  2  0  0  0  0
  3  9  3  0  0  0  0
  4  5  1  0  0  0  0
  4  6  1  0  0  0  0
  4 10  1  0  0  0  0
  4 11  1  0  0  0  0
  5 12  1  0  0  0  0
  5 13  1  0  0  0  0
  6 14  1  0  0  0  0
  6 15  1  0  0  0  0
  6 16  1  0  0  0  0
  7  8  1  0  0  0  0
  8  9  1  0  0  0  0
  8 17  1  0  0  0  0
  8 18  1  0  0  0  0
M  END
> <PUBCHEM_COMPOUND_CID>
84444

> <PUBCHEM_CONFORMER_RMSD>
0.6

> <PUBCHEM_CONFORMER_DIVERSEORDER>
1
50
18
17
38
52
24
36
39
44
20
8
23
37
16
35
2
5
34
41
40
6
51
31
29
21
25
9
43
42
22
33
48
26
47
32
3
7
45
19
4
46
12
28
49
27
30
14
10
11
13
15

> <PUBCHEM_MMFF94_PARTIAL_CHARGES>
7
1 -0.43
2 -0.57
3 -0.56
5 0.28
7 0.66
8 0.26
9 0.36

> <PUBCHEM_EFFECTIVE_ROTOR_COUNT>
4

> <PUBCHEM_PHARMACOPHORE_FEATURES>
3
1 2 acceptor
1 3 acceptor
1 6 hydrophobe

> <PUBCHEM_HEAVY_ATOM_COUNT>
9

> <PUBCHEM_ATOM_DEF_STEREO_COUNT>
0

> <PUBCHEM_ATOM_UDEF_STEREO_COUNT>
0

> <PUBCHEM_BOND_DEF_STEREO_COUNT>
0

> <PUBCHEM_BOND_UDEF_STEREO_COUNT>
0

> <PUBCHEM_ISOTOPIC_ATOM_COUNT>
0

> <PUBCHEM_COMPONENT_COUNT>
1

> <PUBCHEM_CACTVS_TAUTO_COUNT>
1

> <PUBCHEM_CONFORMER_ID>
000149DC00000001

> <PUBCHEM_MMFF94_ENERGY>
3.0552

> <PUBCHEM_FEATURE_SELFOVERLAP>
15.223

> <PUBCHEM_SHAPE_FINGERPRINT>
10219947 1 17989490714332563182
11062470 55 18411982455315039899
12932764 1 15697704913950903471
14325111 11 18410856533938713479
18342897 14 18411140216903186769
20645477 70 18270679745185492895
20719005 15 18410855455970474474
21293036 1 18335139790999633662
22485316 2 18187079551040446435
23402539 116 14273731880517260075

> <PUBCHEM_SHAPE_MULTIPOLES>
168.5
7.45
0.94
0.59
2.02
0.1
0
0.04
-0.04
-0.12
0
0.04
-0.01
0

> <PUBCHEM_SHAPE_SELFOVERLAP>
310.721

> <PUBCHEM_SHAPE_VOLUME>
104.2

> <PUBCHEM_COORDINATE_TYPE>
2
5
10

$$$$
