25022195
  -OEChem-11012400313D

 32 31  0     0  0  0  0  0  0999 V2000
   -2.6211   -0.2274    0.0536 C   0  0  0  0  0  0  0  0  0  0  0  0
    2.6322   -0.2278   -0.0954 C   0  0  0  0  0  0  0  0  0  0  0  0
   -4.1543   -0.1967   -0.0314 C   0  0  0  0  0  0  0  0  0  0  0  0
    4.1579   -0.1997    0.0134 C   0  0  0  0  0  0  0  0  0  0  0  0
   -2.0490   -1.6392   -0.0938 C   0  0  0  0  0  0  0  0  0  0  0  0
    2.0850   -1.6408    0.1074 C   0  0  0  0  0  0  0  0  0  0  0  0
   -4.7264    1.2152    0.1123 C   0  0  0  0  0  0  0  0  0  0  0  0
    4.7015    1.2196   -0.1495 C   0  0  0  0  0  0  0  0  0  0  0  0
   -0.5816   -1.6516   -0.0204 C   0  0  0  0  0  0  0  0  0  0  0  0
    0.6179   -1.6519    0.0378 C   0  0  0  0  0  0  0  0  0  0  0  0
   -6.1931    1.2331    0.0206 C   0  0  0  0  0  0  0  0  0  0  0  0
    6.1639    1.2460   -0.0083 C   0  0  0  0  0  0  0  0  0  0  0  0
   -7.3913    1.2507   -0.0524 C   0  0  0  0  0  0  0  0  0  0  0  0
    7.3587    1.2705    0.1060 C   0  0  0  0  0  0  0  0  0  0  0  0
   -2.3037    0.1985    1.0143 H   0  0  0  0  0  0  0  0  0  0  0  0
   -2.2034    0.4206   -0.7278 H   0  0  0  0  0  0  0  0  0  0  0  0
    2.3251    0.1531   -1.0778 H   0  0  0  0  0  0  0  0  0  0  0  0
    2.1986    0.4472    0.6540 H   0  0  0  0  0  0  0  0  0  0  0  0
   -4.5726   -0.8431    0.7509 H   0  0  0  0  0  0  0  0  0  0  0  0
   -4.4711   -0.6244   -0.9914 H   0  0  0  0  0  0  0  0  0  0  0  0
    4.5945   -0.8559   -0.7504 H   0  0  0  0  0  0  0  0  0  0  0  0
    4.4636   -0.6029    0.9876 H   0  0  0  0  0  0  0  0  0  0  0  0
   -2.3677   -2.0654   -1.0524 H   0  0  0  0  0  0  0  0  0  0  0  0
   -2.4579   -2.2841    0.6929 H   0  0  0  0  0  0  0  0  0  0  0  0
    2.4946   -2.3113   -0.6569 H   0  0  0  0  0  0  0  0  0  0  0  0
    2.4061   -2.0284    1.0813 H   0  0  0  0  0  0  0  0  0  0  0  0
   -4.3070    1.8612   -0.6680 H   0  0  0  0  0  0  0  0  0  0  0  0
   -4.4177    1.6389    1.0752 H   0  0  0  0  0  0  0  0  0  0  0  0
    4.2519    1.8789    0.6022 H   0  0  0  0  0  0  0  0  0  0  0  0
    4.4203    1.6144   -1.1328 H   0  0  0  0  0  0  0  0  0  0  0  0
   -8.4542    1.2661   -0.1172 H   0  0  0  0  0  0  0  0  0  0  0  0
    8.4186    1.2920    0.2074 H   0  0  0  0  0  0  0  0  0  0  0  0
  1  3  1  0  0  0  0
  1  5  1  0  0  0  0
  1 15  1  0  0  0  0
  1 16  1  0  0  0  0
  2  4  1  0  0  0  0
  2  6  1  0  0  0  0
  2 17  1  0  0  0  0
  2 18  1  0  0  0  0
  3  7  1  0  0  0  0
  3 19  1  0  0  0  0
  3 20  1  0  0  0  0
  4  8  1  0  0  0  0
  4 21  1  0  0  0  0
  4 22  1  0  0  0  0
  5  9  1  0  0  0  0
  5 23  1  0  0  0  0
  5 24  1  0  0  0  0
  6 10  1  0  0  0  0
  6 25  1  0  0  0  0
  6 26  1  0  0  0  0
  7 11  1  0  0  0  0
  7 27  1  0  0  0  0
  7 28  1  0  0  0  0
  8 12  1  0  0  0  0
  8 29  1  0  0  0  0
  8 30  1  0  0  0  0
  9 10  3  0  0  0  0
 11 13  3  0  0  0  0
 12 14  3  0  0  0  0
 13 31  1  0  0  0  0
 14 32  1  0  0  0  0
M  END
> <PUBCHEM_COMPOUND_CID>
25022195

> <PUBCHEM_CONFORMER_RMSD>
0.6

> <PUBCHEM_CONFORMER_DIVERSEORDER>
1
137
9
94
183
102
193
34
202
30
146
111
120
15
18
45
152
130
127
118
12
155
186
82
162
46
105
180
20
35
129
48
10
192
27
189
95
126
164
77
165
40
128
116
99
150
49
53
158
203
59
23
151
157
56
62
198
125
17
187
114
26
156
13
61
210
122
108
195
66
39
141
209
145
28
207
68
97
190
54
163
8
153
64
4
107
103
168
136
81
201
205
14
182
6
29
134
169
176
131
121
171
38
43
196
113
5
11
172
175
173
167
91
104
22
206
160
25
194
199
179
161
16
76
37
170
110
55
7
106
178
73
138
200
142
41
124
57
148
74
117
71
166
89
19
181
50
154
93
83
58
133
31
208
47
204
188
191
63
70
115
86
147
184
69
144
21
139
197
132
32
135
36
174
159
85
79
185
33
60
42
112
123
101
87
24
177
149
3
140
98
65
96
44
2
72
90
75
143
78
67
84
52
100
119
80
51
92
109
88

> <PUBCHEM_MMFF94_PARTIAL_CHARGES>
12
10 -0.2
11 -0.2
12 -0.2
13 -0.18
14 -0.18
31 0.18
32 0.18
5 0.2
6 0.2
7 0.2
8 0.2
9 -0.2

> <PUBCHEM_EFFECTIVE_ROTOR_COUNT>
6

> <PUBCHEM_PHARMACOPHORE_FEATURES>
6
1 13 hydrophobe
1 14 hydrophobe
3 1 5 9 hydrophobe
3 2 6 10 hydrophobe
3 3 7 11 hydrophobe
3 4 8 12 hydrophobe

> <PUBCHEM_HEAVY_ATOM_COUNT>
14

> <PUBCHEM_ATOM_DEF_STEREO_COUNT>
0

> <PUBCHEM_ATOM_UDEF_STEREO_COUNT>
0

> <PUBCHEM_BOND_DEF_STEREO_COUNT>
0

> <PUBCHEM_BOND_UDEF_STEREO_COUNT>
0

> <PUBCHEM_ISOTOPIC_ATOM_COUNT>
0

> <PUBCHEM_COMPONENT_COUNT>
1

> <PUBCHEM_CACTVS_TAUTO_COUNT>
1

> <PUBCHEM_CONFORMER_ID>
017DCEF300000001

> <PUBCHEM_MMFF94_ENERGY>
1.501

> <PUBCHEM_FEATURE_SELFOVERLAP>
30.511

> <PUBCHEM_SHAPE_FINGERPRINT>
100836 57 18408606976382793374
12760667 363 9007055769190940141
12838862 33 18338499902734853381
14123256 34 9511461130141941573
14428016 86 18413392016452920034
14729087 3 18343580772474575416
15048467 5 18410855464423161573
15501527 16 18410577292593007667
15690457 1 11602827917175236137
15778101 99 18410013268671175254
1768 124 12612753514546533169
1768 4 18341622525207158305
19427546 20 18271521013900224879
20281389 69 18187081724103805780
20526848 3 18410858762963605485
20605781 2 18410575067889521591
20621476 66 18335140942742186412
22288116 15 17632284735992883143
23272321 79 18410573968921284207
23402655 69 18202560683259919830
23590187 49 18410573985220178863
270888 7 18410854364911501316
293599 30 18411981373210180070
3472631 163 18343023315056130836
351380 3 9295289430301855040
465052 167 8285904801157021779
5283384 27 18041269990435761013
59682541 35 18261122889860434857
59682541 52 17417544527499211054

> <PUBCHEM_SHAPE_MULTIPOLES>
288.11
21.13
2.06
0.62
0.67
0.46
0
-18.62
0.15
-0.05
0.01
-0.01
0
-0.07

> <PUBCHEM_SHAPE_SELFOVERLAP>
532.15

> <PUBCHEM_SHAPE_VOLUME>
177.2

> <PUBCHEM_COORDINATE_TYPE>
2
5
10

$$$$
