140881
  -OEChem-11012400583D

 46 45  0     0  0  0  0  0  0999 V2000
   -5.8939   -0.7920    1.1860 O   0  0  0  0  0  0  0  0  0  0  0  0
    5.9212    0.7421    1.2004 O   0  0  0  0  0  0  0  0  0  0  0  0
   -0.6786   -0.3558    0.0155 C   0  0  0  0  0  0  0  0  0  0  0  0
    0.6575    0.3937    0.0343 C   0  0  0  0  0  0  0  0  0  0  0  0
   -1.8949    0.5727   -0.0082 C   0  0  0  0  0  0  0  0  0  0  0  0
    1.8730   -0.5372    0.0319 C   0  0  0  0  0  0  0  0  0  0  0  0
   -3.2024   -0.2258   -0.0027 C   0  0  0  0  0  0  0  0  0  0  0  0
    3.2108    0.2128    0.0384 C   0  0  0  0  0  0  0  0  0  0  0  0
   -4.4204    0.7075    0.0069 C   0  0  0  0  0  0  0  0  0  0  0  0
    4.4280   -0.7222    0.0001 C   0  0  0  0  0  0  0  0  0  0  0  0
   -5.7817   -0.0169   -0.0096 C   0  0  0  0  0  0  0  0  0  0  0  0
    5.7888    0.0049   -0.0169 C   0  0  0  0  0  0  0  0  0  0  0  0
   -5.9312   -0.9537   -1.2103 C   0  0  0  0  0  0  0  0  0  0  0  0
   -6.9133    1.0164   -0.0087 C   0  0  0  0  0  0  0  0  0  0  0  0
    5.9153    0.9790   -1.1903 C   0  0  0  0  0  0  0  0  0  0  0  0
    6.9216   -1.0257   -0.0668 C   0  0  0  0  0  0  0  0  0  0  0  0
   -0.7089   -1.0121   -0.8632 H   0  0  0  0  0  0  0  0  0  0  0  0
   -0.7350   -1.0054    0.8979 H   0  0  0  0  0  0  0  0  0  0  0  0
    0.7097    1.0552   -0.8392 H   0  0  0  0  0  0  0  0  0  0  0  0
    0.6973    1.0369    0.9219 H   0  0  0  0  0  0  0  0  0  0  0  0
   -1.8534    1.2095   -0.8999 H   0  0  0  0  0  0  0  0  0  0  0  0
   -1.8641    1.2352    0.8653 H   0  0  0  0  0  0  0  0  0  0  0  0
    1.8256   -1.1954    0.9081 H   0  0  0  0  0  0  0  0  0  0  0  0
    1.8281   -1.1836   -0.8532 H   0  0  0  0  0  0  0  0  0  0  0  0
   -3.2305   -0.8816    0.8752 H   0  0  0  0  0  0  0  0  0  0  0  0
   -3.2210   -0.8661   -0.8911 H   0  0  0  0  0  0  0  0  0  0  0  0
    3.2264    0.8786   -0.8314 H   0  0  0  0  0  0  0  0  0  0  0  0
    3.2617    0.8481    0.9306 H   0  0  0  0  0  0  0  0  0  0  0  0
   -4.3577    1.3360    0.9053 H   0  0  0  0  0  0  0  0  0  0  0  0
   -4.3580    1.3806   -0.8581 H   0  0  0  0  0  0  0  0  0  0  0  0
    4.3797   -1.3723    0.8837 H   0  0  0  0  0  0  0  0  0  0  0  0
    4.3489   -1.3710   -0.8815 H   0  0  0  0  0  0  0  0  0  0  0  0
   -5.2456   -1.8048   -1.1456 H   0  0  0  0  0  0  0  0  0  0  0  0
   -6.9379   -1.3875   -1.2364 H   0  0  0  0  0  0  0  0  0  0  0  0
   -5.7598   -0.4288   -2.1555 H   0  0  0  0  0  0  0  0  0  0  0  0
   -6.8951    1.6350   -0.9119 H   0  0  0  0  0  0  0  0  0  0  0  0
   -7.8903    0.5238    0.0560 H   0  0  0  0  0  0  0  0  0  0  0  0
   -6.8427    1.6753    0.8643 H   0  0  0  0  0  0  0  0  0  0  0  0
    5.2382    1.8324   -1.0812 H   0  0  0  0  0  0  0  0  0  0  0  0
    6.9242    1.4068   -1.2308 H   0  0  0  0  0  0  0  0  0  0  0  0
    5.7161    0.4855   -2.1469 H   0  0  0  0  0  0  0  0  0  0  0  0
    6.8756   -1.6968    0.7985 H   0  0  0  0  0  0  0  0  0  0  0  0
    7.9010   -0.5353   -0.0241 H   0  0  0  0  0  0  0  0  0  0  0  0
    6.8769   -1.6299   -0.9787 H   0  0  0  0  0  0  0  0  0  0  0  0
   -5.8122   -0.1894    1.9450 H   0  0  0  0  0  0  0  0  0  0  0  0
    6.7818    1.1950    1.1857 H   0  0  0  0  0  0  0  0  0  0  0  0
  1 11  1  0  0  0  0
  1 45  1  0  0  0  0
  2 12  1  0  0  0  0
  2 46  1  0  0  0  0
  3  4  1  0  0  0  0
  3  5  1  0  0  0  0
  3 17  1  0  0  0  0
  3 18  1  0  0  0  0
  4  6  1  0  0  0  0
  4 19  1  0  0  0  0
  4 20  1  0  0  0  0
  5  7  1  0  0  0  0
  5 21  1  0  0  0  0
  5 22  1  0  0  0  0
  6  8  1  0  0  0  0
  6 23  1  0  0  0  0
  6 24  1  0  0  0  0
  7  9  1  0  0  0  0
  7 25  1  0  0  0  0
  7 26  1  0  0  0  0
  8 10  1  0  0  0  0
  8 27  1  0  0  0  0
  8 28  1  0  0  0  0
  9 11  1  0  0  0  0
  9 29  1  0  0  0  0
  9 30  1  0  0  0  0
 10 12  1  0  0  0  0
 10 31  1  0  0  0  0
 10 32  1  0  0  0  0
 11 13  1  0  0  0  0
 11 14  1  0  0  0  0
 12 15  1  0  0  0  0
 12 16  1  0  0  0  0
 13 33  1  0  0  0  0
 13 34  1  0  0  0  0
 13 35  1  0  0  0  0
 14 36  1  0  0  0  0
 14 37  1  0  0  0  0
 14 38  1  0  0  0  0
 15 39  1  0  0  0  0
 15 40  1  0  0  0  0
 15 41  1  0  0  0  0
 16 42  1  0  0  0  0
 16 43  1  0  0  0  0
 16 44  1  0  0  0  0
M  END
> <PUBCHEM_COMPOUND_CID>
140881

> <PUBCHEM_CONFORMER_RMSD>
0.8

> <PUBCHEM_CONFORMER_DIVERSEORDER>
1
223
155
109
14
241
43
70
186
21
238
8
156
78
102
54
23
239
107
130
15
75
99
68
20
233
142
36
124
39
211
163
97
71
83
24
91
2
73
228
3
135
234
19
224
59
215
46
53
114
158
82
229
225
136
166
79
175
222
92
172
98
167
40
217
210
35
138
159
41
32
10
202
26
67
48
214
231
50
111
226
237
81
55
90
115
105
80
120
44
94
171
28
181
147
31
106
66
72
184
25
93
133
49
108
5
137
205
209
65
17
95
63
236
18
96
85
87
113
100
9
104
112
7
84
146
141
42
76
206
22
131
126
190
47
203
58
101
150
60
6
197
169
57
88
170
116
11
216
177
183
145
152
153
62
51
188
218
230
235
221
196
38
125
199
140
64
45
27
149
185
154
123
189
227
151
29
191
178
194
176
213
180
173
160
118
144
12
157
162
34
77
103
117
30
161
122
219
121
193
127
74
242
220
134
61
148
129
240
33
174
207
13
164
198
201
165
4
52
56
86
187
179
69
128
143
212
192
208
16
182
168
232
119
132
195
89
200
110
204
139
37

> <PUBCHEM_MMFF94_PARTIAL_CHARGES>
6
1 -0.68
11 0.28
12 0.28
2 -0.68
45 0.4
46 0.4

> <PUBCHEM_EFFECTIVE_ROTOR_COUNT>
9

> <PUBCHEM_PHARMACOPHORE_FEATURES>
6
1 1 acceptor
1 1 donor
1 2 acceptor
1 2 donor
3 11 13 14 hydrophobe
3 12 15 16 hydrophobe

> <PUBCHEM_HEAVY_ATOM_COUNT>
16

> <PUBCHEM_ATOM_DEF_STEREO_COUNT>
0

> <PUBCHEM_ATOM_UDEF_STEREO_COUNT>
0

> <PUBCHEM_BOND_DEF_STEREO_COUNT>
0

> <PUBCHEM_BOND_UDEF_STEREO_COUNT>
0

> <PUBCHEM_ISOTOPIC_ATOM_COUNT>
0

> <PUBCHEM_COMPONENT_COUNT>
1

> <PUBCHEM_CACTVS_TAUTO_COUNT>
1

> <PUBCHEM_CONFORMER_ID>
0002265100000001

> <PUBCHEM_MMFF94_ENERGY>
22.1252

> <PUBCHEM_FEATURE_SELFOVERLAP>
30.446

> <PUBCHEM_SHAPE_FINGERPRINT>
10968037 39 17676207974832952687
11315181 36 16558747936968338539
12091667 2 18413108355997212587
125118 31 18334295361965244116
13533116 47 18261668169817889962
1420 363 18410859862480300218
14251732 16 17676775360891504889
14251764 46 17846497019917416246
15716309 27 18411982455684311543
17093844 174 18131066035729304289
17834076 25 18342738511743554846
20281389 69 18411697673477593352
20621476 8 18113616746940497725
220451 1 17988926664989132311
22224240 67 14261343648831713420
23035841 295 17846779602521117638
23402539 116 18272083899396825309
23521765 1 18341894082244116485
23559900 14 17895758516623201033
42788 4 18333732407742404108
4463277 17 18201718448857937369
57583515 80 18260831488576076977
59755656 520 18333444357176837207
8209 1 18410292501969914821

> <PUBCHEM_SHAPE_MULTIPOLES>
317.53
23.32
1.05
0.92
0.21
0
0.07
0.13
0.86
0
0.08
0
0
-0.37

> <PUBCHEM_SHAPE_SELFOVERLAP>
584.203

> <PUBCHEM_SHAPE_VOLUME>
202.9

> <PUBCHEM_COORDINATE_TYPE>
2
5
10

$$$$
