562729
  -OEChem-11012400313D

 26 26  0     1  0  0  0  0  0999 V2000
    1.9535   -0.4751   -0.3830 O   0  0  0  0  0  0  0  0  0  0  0  0
    2.1464    1.4681    0.8434 O   0  0  0  0  0  0  0  0  0  0  0  0
   -1.3120    2.8389    0.2228 O   0  0  0  0  0  0  0  0  0  0  0  0
    0.2064    1.1043   -0.5785 C   0  0  2  0  0  0  0  0  0  0  0  0
   -0.8664    0.0885   -0.2387 C   0  0  0  0  0  0  0  0  0  0  0  0
    1.5394    0.7499    0.0592 C   0  0  0  0  0  0  0  0  0  0  0  0
   -0.8902   -0.4673    1.0274 C   0  0  0  0  0  0  0  0  0  0  0  0
   -1.7948   -0.2582   -1.2031 C   0  0  0  0  0  0  0  0  0  0  0  0
   -0.2317    2.5258   -0.2678 C   0  0  0  0  0  0  0  0  0  0  0  0
   -1.8770   -1.4024    1.3400 C   0  0  0  0  0  0  0  0  0  0  0  0
   -2.7816   -1.1931   -0.8905 C   0  0  0  0  0  0  0  0  0  0  0  0
    3.2087   -0.9264    0.1352 C   0  0  0  0  0  0  0  0  0  0  0  0
   -2.8227   -1.7652    0.3810 C   0  0  0  0  0  0  0  0  0  0  0  0
    3.5220   -2.2881   -0.4473 C   0  0  0  0  0  0  0  0  0  0  0  0
    0.3875    1.0937   -1.6630 H   0  0  0  0  0  0  0  0  0  0  0  0
   -0.1760   -0.1887    1.7961 H   0  0  0  0  0  0  0  0  0  0  0  0
   -1.7720    0.1832   -2.1950 H   0  0  0  0  0  0  0  0  0  0  0  0
    0.4967    3.3088   -0.5441 H   0  0  0  0  0  0  0  0  0  0  0  0
   -1.9115   -1.8450    2.3311 H   0  0  0  0  0  0  0  0  0  0  0  0
   -3.5185   -1.4751   -1.6369 H   0  0  0  0  0  0  0  0  0  0  0  0
    3.9950   -0.2154   -0.1417 H   0  0  0  0  0  0  0  0  0  0  0  0
    3.1487   -0.9958    1.2270 H   0  0  0  0  0  0  0  0  0  0  0  0
   -3.5917   -2.4923    0.6247 H   0  0  0  0  0  0  0  0  0  0  0  0
    4.4773   -2.6644   -0.0707 H   0  0  0  0  0  0  0  0  0  0  0  0
    2.7344   -3.0056   -0.1941 H   0  0  0  0  0  0  0  0  0  0  0  0
    3.5672   -2.2385   -1.5402 H   0  0  0  0  0  0  0  0  0  0  0  0
  1  6  1  0  0  0  0
  1 12  1  0  0  0  0
  2  6  2  0  0  0  0
  3  9  2  0  0  0  0
  4  5  1  0  0  0  0
  4  6  1  0  0  0  0
  4  9  1  0  0  0  0
  4 15  1  0  0  0  0
  5  7  2  0  0  0  0
  5  8  1  0  0  0  0
  7 10  1  0  0  0  0
  7 16  1  0  0  0  0
  8 11  2  0  0  0  0
  8 17  1  0  0  0  0
  9 18  1  0  0  0  0
 10 13  2  0  0  0  0
 10 19  1  0  0  0  0
 11 13  1  0  0  0  0
 11 20  1  0  0  0  0
 12 14  1  0  0  0  0
 12 21  1  0  0  0  0
 12 22  1  0  0  0  0
 13 23  1  0  0  0  0
 14 24  1  0  0  0  0
 14 25  1  0  0  0  0
 14 26  1  0  0  0  0
M  END
> <PUBCHEM_COMPOUND_CID>
562729

> <PUBCHEM_CONFORMER_RMSD>
0.6

> <PUBCHEM_CONFORMER_DIVERSEORDER>
1
39
58
90
92
73
117
108
57
88
74
87
116
71
94
113
62
4
97
75
101
105
91
48
64
96
109
115
79
52
30
28
46
67
15
53
23
111
98
112
80
85
43
102
104
81
77
31
26
24
103
45
40
93
55
99
65
61
69
18
9
84
83
82
86
110
63
35
70
3
27
60
21
42
2
107
49
12
8
6
5
16
56
19
38
51
41
32
22
114
59
17
78
25
47
95
106
68
76
66
14
7
29
20
54
10
34
37
13
33
36
100
11
50
89
44
72

> <PUBCHEM_MMFF94_PARTIAL_CHARGES>
19
1 -0.43
10 -0.15
11 -0.15
12 0.28
13 -0.15
16 0.15
17 0.15
18 0.06
19 0.15
2 -0.57
20 0.15
23 0.15
3 -0.57
4 0.27
5 -0.14
6 0.66
7 -0.15
8 -0.15
9 0.45

> <PUBCHEM_EFFECTIVE_ROTOR_COUNT>
5

> <PUBCHEM_PHARMACOPHORE_FEATURES>
4
1 2 acceptor
1 3 acceptor
1 4 anion
6 5 7 8 10 11 13 rings

> <PUBCHEM_HEAVY_ATOM_COUNT>
14

> <PUBCHEM_ATOM_DEF_STEREO_COUNT>
0

> <PUBCHEM_ATOM_UDEF_STEREO_COUNT>
1

> <PUBCHEM_BOND_DEF_STEREO_COUNT>
0

> <PUBCHEM_BOND_UDEF_STEREO_COUNT>
0

> <PUBCHEM_ISOTOPIC_ATOM_COUNT>
0

> <PUBCHEM_COMPONENT_COUNT>
1

> <PUBCHEM_CACTVS_TAUTO_COUNT>
3

> <PUBCHEM_CONFORMER_ID>
0008962900000001

> <PUBCHEM_MMFF94_ENERGY>
27.3471

> <PUBCHEM_FEATURE_SELFOVERLAP>
20.297

> <PUBCHEM_SHAPE_FINGERPRINT>
10610426 29 16772358869183385591
11127187 94 17967536739870357230
11322862 65 17833278514607489990
11578080 2 16986841684666443249
12326174 3 17694526014207926245
12423570 1 10904582258406127509
15207287 21 17610875152249461946
16945 1 18124297329651617701
20201158 50 18043521931155022523
20361792 2 18342463680833519998
20524608 308 18053380994365586076
20645476 183 17322704893182260422
20645477 70 18338785836140643471
20711983 138 18333732411789581491
20711985 344 18262509278362940160
21061003 4 18122908886868010089
21296965 67 18410572911615511399
21501502 16 18411139096038262564
22802520 49 18411694361751619144
23419403 2 13282546294409441707
23526113 38 18117814781093233541
23559900 14 17968919952106056368
23728640 28 17760926243090620058
2748010 2 18336816571959630460
3250762 1 18342163437288010872
81228 2 18335132055695527033

> <PUBCHEM_SHAPE_MULTIPOLES>
270.51
4.88
2.76
1.09
3.1
1.48
0.07
-4.14
-0.36
0.22
0.11
-0.54
-0.25
0.55

> <PUBCHEM_SHAPE_SELFOVERLAP>
554.467

> <PUBCHEM_SHAPE_VOLUME>
155.6

> <PUBCHEM_COORDINATE_TYPE>
2
5
10

$$$$
