136126
  -OEChem-11012400593D

 19 21  0     0  0  0  0  0  0999 V2000
    2.9041    0.0000    0.7722 C   0  0  0  0  0  0  0  0  0  0  0  0
    2.1392   -0.7042   -0.2497 C   0  0  0  0  0  0  0  0  0  0  0  0
    2.1392    0.7042   -0.2497 C   0  0  0  0  0  0  0  0  0  0  0  0
    0.9289   -1.3878   -0.2202 C   0  0  0  0  0  0  0  0  0  0  0  0
    0.9289    1.3878   -0.2201 C   0  0  0  0  0  0  0  0  0  0  0  0
   -0.2921   -0.7064   -0.0763 C   0  0  0  0  0  0  0  0  0  0  0  0
   -0.2921    0.7064   -0.0763 C   0  0  0  0  0  0  0  0  0  0  0  0
   -1.5127   -1.3940    0.0247 C   0  0  0  0  0  0  0  0  0  0  0  0
   -1.5127    1.3940    0.0247 C   0  0  0  0  0  0  0  0  0  0  0  0
   -2.7154   -0.6958    0.1354 C   0  0  0  0  0  0  0  0  0  0  0  0
   -2.7154    0.6959    0.1353 C   0  0  0  0  0  0  0  0  0  0  0  0
    2.5602    0.0000    1.8025 H   0  0  0  0  0  0  0  0  0  0  0  0
    3.9877    0.0000    0.7125 H   0  0  0  0  0  0  0  0  0  0  0  0
    0.9428   -2.4700   -0.3347 H   0  0  0  0  0  0  0  0  0  0  0  0
    0.9427    2.4700   -0.3347 H   0  0  0  0  0  0  0  0  0  0  0  0
   -1.5362   -2.4818    0.0179 H   0  0  0  0  0  0  0  0  0  0  0  0
   -1.5363    2.4818    0.0178 H   0  0  0  0  0  0  0  0  0  0  0  0
   -3.6523   -1.2391    0.2164 H   0  0  0  0  0  0  0  0  0  0  0  0
   -3.6523    1.2392    0.2164 H   0  0  0  0  0  0  0  0  0  0  0  0
  1  2  1  0  0  0  0
  1  3  1  0  0  0  0
  1 12  1  0  0  0  0
  1 13  1  0  0  0  0
  2  3  1  0  0  0  0
  2  4  2  0  0  0  0
  3  5  2  0  0  0  0
  4  6  1  0  0  0  0
  4 14  1  0  0  0  0
  5  7  1  0  0  0  0
  5 15  1  0  0  0  0
  6  7  1  0  0  0  0
  6  8  2  0  0  0  0
  7  9  2  0  0  0  0
  8 10  1  0  0  0  0
  8 16  1  0  0  0  0
  9 11  1  0  0  0  0
  9 17  1  0  0  0  0
 10 11  2  0  0  0  0
 10 18  1  0  0  0  0
 11 19  1  0  0  0  0
M  END
> <PUBCHEM_COMPOUND_CID>
136126

> <PUBCHEM_CONFORMER_RMSD>
0.4

> <PUBCHEM_CONFORMER_DIVERSEORDER>
1

> <PUBCHEM_MMFF94_PARTIAL_CHARGES>
17
1 -0.14
10 -0.15
11 -0.15
12 0.1
13 0.1
14 0.15
15 0.15
16 0.15
17 0.15
18 0.15
19 0.15
2 -0.03
3 -0.03
4 -0.15
5 -0.15
8 -0.15
9 -0.15

> <PUBCHEM_EFFECTIVE_ROTOR_COUNT>
0.2

> <PUBCHEM_PHARMACOPHORE_FEATURES>
2
6 6 7 8 9 10 11 rings
7 1 2 3 4 5 6 7 rings

> <PUBCHEM_HEAVY_ATOM_COUNT>
11

> <PUBCHEM_ATOM_DEF_STEREO_COUNT>
0

> <PUBCHEM_ATOM_UDEF_STEREO_COUNT>
0

> <PUBCHEM_BOND_DEF_STEREO_COUNT>
0

> <PUBCHEM_BOND_UDEF_STEREO_COUNT>
0

> <PUBCHEM_ISOTOPIC_ATOM_COUNT>
0

> <PUBCHEM_COMPONENT_COUNT>
1

> <PUBCHEM_CACTVS_TAUTO_COUNT>
1

> <PUBCHEM_CONFORMER_ID>
000213BE00000001

> <PUBCHEM_MMFF94_ENERGY>
77.6925

> <PUBCHEM_FEATURE_SELFOVERLAP>
10.155

> <PUBCHEM_SHAPE_FINGERPRINT>
10857977 72 18411411834528864185
12382932 28 18341330015599373952
12423570 1 11814528946516802558
12524768 44 18197502826724466727
12696612 119 18335988644051720796
14325111 11 18411138030348121069
16945 1 18410577283760181095
193761 8 17185032765481962580
19973954 147 18411425002898651989
20201158 50 18410853248399508343
20871998 184 18129947909017454983
21040471 1 18339083679142247076
23402655 69 18269541759868212581
23463225 33 18334573508483984490
23552423 10 18188494686734471415
23559900 14 18271253699767954998
2748010 2 18050008796466489973
369184 2 18408601461460039099
5084963 1 18272658943223842978
528886 8 18411415107315075107

> <PUBCHEM_SHAPE_MULTIPOLES>
226.37
4.14
1.59
0.7
0.12
0
0.04
0
0.54
0.28
-0.09
-0.18
0
0

> <PUBCHEM_SHAPE_SELFOVERLAP>
510.898

> <PUBCHEM_SHAPE_VOLUME>
113

> <PUBCHEM_COORDINATE_TYPE>
2
5
10

$$$$
