517957
  -OEChem-11012401283D

  6  5  0     0  0  0  0  0  0999 V2000
    0.0000    1.6971   -0.0002 O   0  0  0  0  0  0  0  0  0  0  0  0
    2.2479   -0.8344   -0.0002 N   0  0  0  0  0  0  0  0  0  0  0  0
   -2.2479   -0.8344   -0.0002 N   0  0  0  0  0  0  0  0  0  0  0  0
   -0.0001    0.4744    0.0002 C   0  0  0  0  0  0  0  0  0  0  0  0
    1.2447   -0.2513    0.0001 C   0  0  0  0  0  0  0  0  0  0  0  0
   -1.2446   -0.2514    0.0002 C   0  0  0  0  0  0  0  0  0  0  0  0
  1  4  2  0  0  0  0
  2  5  3  0  0  0  0
  3  6  3  0  0  0  0
  4  5  1  0  0  0  0
  4  6  1  0  0  0  0
M  END
> <PUBCHEM_COMPOUND_CID>
517957

> <PUBCHEM_CONFORMER_RMSD>
0.4

> <PUBCHEM_CONFORMER_DIVERSEORDER>
1

> <PUBCHEM_MMFF94_PARTIAL_CHARGES>
6
1 -0.57
2 -0.56
3 -0.56
4 0.78
5 0.45
6 0.45

> <PUBCHEM_EFFECTIVE_ROTOR_COUNT>
0

> <PUBCHEM_PHARMACOPHORE_FEATURES>
3
1 1 acceptor
1 2 acceptor
1 3 acceptor

> <PUBCHEM_HEAVY_ATOM_COUNT>
6

> <PUBCHEM_ATOM_DEF_STEREO_COUNT>
0

> <PUBCHEM_ATOM_UDEF_STEREO_COUNT>
0

> <PUBCHEM_BOND_DEF_STEREO_COUNT>
0

> <PUBCHEM_BOND_UDEF_STEREO_COUNT>
0

> <PUBCHEM_ISOTOPIC_ATOM_COUNT>
0

> <PUBCHEM_COMPONENT_COUNT>
1

> <PUBCHEM_CACTVS_TAUTO_COUNT>
1

> <PUBCHEM_CONFORMER_ID>
0007E74500000001

> <PUBCHEM_MMFF94_ENERGY>
-0.0397

> <PUBCHEM_FEATURE_SELFOVERLAP>
15.223

> <PUBCHEM_SHAPE_FINGERPRINT>
139733 1 9223231844827312547
16714656 1 18267308637964801263
23552449 11 18192413367735084803
29004967 10 18409729603218556050
5460574 1 9223235147678450562
5943 1 15670347200625721289

> <PUBCHEM_SHAPE_MULTIPOLES>
107.65
2.63
1.23
0.57
0
0.53
0
-1.34
0
0
0
0
0
0

> <PUBCHEM_SHAPE_SELFOVERLAP>
203.787

> <PUBCHEM_SHAPE_VOLUME>
62.2

> <PUBCHEM_COORDINATE_TYPE>
2
5
10

$$$$
