760835
  -OEChem-11012401033D

 30 32  0     0  0  0  0  0  0999 V2000
   -6.8776    0.3786    0.6565 Cl  0  0  0  0  0  0  0  0  0  0  0  0
    4.3942    1.7360    0.0042 O   0  0  0  0  0  0  0  0  0  0  0  0
    5.4222   -0.4387    0.1508 O   0  0  0  0  0  0  0  0  0  0  0  0
   -0.2166   -0.4870   -2.7717 N   0  0  0  0  0  0  0  0  0  0  0  0
    3.4831    0.7463    0.2108 C   0  0  0  0  0  0  0  0  0  0  0  0
    1.3410   -0.2277    0.5376 C   0  0  0  0  0  0  0  0  0  0  0  0
    4.0702   -0.4954    0.2945 C   0  0  0  0  0  0  0  0  0  0  0  0
    2.1185    0.9137    0.3286 C   0  0  0  0  0  0  0  0  0  0  0  0
    1.9409   -1.4965    0.6230 C   0  0  0  0  0  0  0  0  0  0  0  0
    3.3251   -1.6383    0.5004 C   0  0  0  0  0  0  0  0  0  0  0  0
   -0.1028   -0.1040    0.6682 C   0  0  0  0  0  0  0  0  0  0  0  0
    5.6206    0.9780   -0.0321 C   0  0  0  0  0  0  0  0  0  0  0  0
   -1.0186   -0.1488   -0.3324 C   0  0  0  0  0  0  0  0  0  0  0  0
   -2.4683   -0.0187   -0.0886 C   0  0  0  0  0  0  0  0  0  0  0  0
   -3.2172   -1.1559    0.1614 C   0  0  0  0  0  0  0  0  0  0  0  0
   -3.0479    1.2383   -0.1141 C   0  0  0  0  0  0  0  0  0  0  0  0
   -4.5871   -1.0324    0.3929 C   0  0  0  0  0  0  0  0  0  0  0  0
   -4.4179    1.3618    0.1174 C   0  0  0  0  0  0  0  0  0  0  0  0
   -5.1875    0.2265    0.3708 C   0  0  0  0  0  0  0  0  0  0  0  0
   -0.5744   -0.3354   -1.6782 C   0  0  0  0  0  0  0  0  0  0  0  0
    1.6741    1.9015    0.2600 H   0  0  0  0  0  0  0  0  0  0  0  0
    1.3336   -2.3843    0.7862 H   0  0  0  0  0  0  0  0  0  0  0  0
    3.7916   -2.6148    0.5654 H   0  0  0  0  0  0  0  0  0  0  0  0
   -0.4444    0.0353    1.6929 H   0  0  0  0  0  0  0  0  0  0  0  0
    6.2834    1.3447    0.7602 H   0  0  0  0  0  0  0  0  0  0  0  0
    6.1060    1.1421   -1.0010 H   0  0  0  0  0  0  0  0  0  0  0  0
   -2.7611   -2.1422    0.1816 H   0  0  0  0  0  0  0  0  0  0  0  0
   -2.4591    2.1304   -0.3100 H   0  0  0  0  0  0  0  0  0  0  0  0
   -5.1744   -1.9258    0.5892 H   0  0  0  0  0  0  0  0  0  0  0  0
   -4.8722    2.3491    0.0973 H   0  0  0  0  0  0  0  0  0  0  0  0
  1 19  1  0  0  0  0
  2  5  1  0  0  0  0
  2 12  1  0  0  0  0
  3  7  1  0  0  0  0
  3 12  1  0  0  0  0
  4 20  3  0  0  0  0
  5  7  2  0  0  0  0
  5  8  1  0  0  0  0
  6  8  2  0  0  0  0
  6  9  1  0  0  0  0
  6 11  1  0  0  0  0
  7 10  1  0  0  0  0
  8 21  1  0  0  0  0
  9 10  2  0  0  0  0
  9 22  1  0  0  0  0
 10 23  1  0  0  0  0
 11 13  2  0  0  0  0
 11 24  1  0  0  0  0
 12 25  1  0  0  0  0
 12 26  1  0  0  0  0
 13 14  1  0  0  0  0
 13 20  1  0  0  0  0
 14 15  2  0  0  0  0
 14 16  1  0  0  0  0
 15 17  1  0  0  0  0
 15 27  1  0  0  0  0
 16 18  2  0  0  0  0
 16 28  1  0  0  0  0
 17 19  2  0  0  0  0
 17 29  1  0  0  0  0
 18 19  1  0  0  0  0
 18 30  1  0  0  0  0
M  END
> <PUBCHEM_COMPOUND_CID>
760835

> <PUBCHEM_CONFORMER_RMSD>
0.6

> <PUBCHEM_CONFORMER_DIVERSEORDER>
1
4
7
6
9
12
11
8
5
3
10
2

> <PUBCHEM_MMFF94_PARTIAL_CHARGES>
28
1 -0.18
10 -0.15
11 -0.18
12 0.56
13 0.04
14 0.03
15 -0.15
16 -0.15
17 -0.15
18 -0.15
19 0.18
2 -0.36
20 0.49
21 0.15
22 0.15
23 0.15
24 0.15
27 0.15
28 0.15
29 0.15
3 -0.36
30 0.15
4 -0.56
5 0.08
6 0.03
7 0.08
8 -0.15
9 -0.15

> <PUBCHEM_EFFECTIVE_ROTOR_COUNT>
2.6

> <PUBCHEM_PHARMACOPHORE_FEATURES>
6
1 2 acceptor
1 3 acceptor
1 4 acceptor
5 2 3 5 7 12 rings
6 14 15 16 17 18 19 rings
6 5 6 7 8 9 10 rings

> <PUBCHEM_HEAVY_ATOM_COUNT>
20

> <PUBCHEM_ATOM_DEF_STEREO_COUNT>
0

> <PUBCHEM_ATOM_UDEF_STEREO_COUNT>
0

> <PUBCHEM_BOND_DEF_STEREO_COUNT>
1

> <PUBCHEM_BOND_UDEF_STEREO_COUNT>
0

> <PUBCHEM_ISOTOPIC_ATOM_COUNT>
0

> <PUBCHEM_COMPONENT_COUNT>
1

> <PUBCHEM_CACTVS_TAUTO_COUNT>
1

> <PUBCHEM_CONFORMER_ID>
000B9C0300000001

> <PUBCHEM_MMFF94_ENERGY>
57.543

> <PUBCHEM_FEATURE_SELFOVERLAP>
30.603

> <PUBCHEM_SHAPE_FINGERPRINT>
10354089 29 18410575084985020880
106641 1 16443354212285501921
12107183 9 17688869731325909193
12236239 1 18060136548578438770
12507560 40 18187362087216749789
12516196 113 15285359522541890493
12730499 353 18187089442650920378
13760787 19 18343861134400797343
14251764 18 18273217509028368795
14251764 75 16809568670819987516
14341114 176 18408046195398393209
14341114 328 18411699881011389603
15048467 5 18334295374712294345
15183329 4 11167949051864910773
15342168 16 17896887745388161364
1601671 61 17417813924205140288
16752209 62 16343705383160082298
17349148 13 12396295924634522202
17834072 33 18410008844833391227
17834072 8 13039189203964045497
17844677 252 18336271145531091353
1813 80 16226052158646814351
18222031 100 15791736286762043351
19489759 90 10953734508771683215
20645477 70 18339924810233850898
20681677 155 17203038686353996742
21033648 29 17895176806606227733
21267235 1 18410579444561377690
21285901 2 12966864428764430184
22079108 93 18261388983546486138
22224240 67 17603302691241348896
23402539 116 18272645758512877965
23557571 272 16443339832703242654
23559900 14 18334852874716318105
300161 21 18260822700920073547
314173 85 16081089251532590727
34797466 226 18343029890709167525
3545911 37 18408041805836334697
4073 2 17894919563175410818
4214541 1 18408884014711067465
4325135 7 17530969090142136078
4340502 62 18260832600471882218
5104073 3 18261107435344465497
5385378 56 16343437106939976447
542803 24 17918275346459935665
621550 34 17676198049058335550
77779 3 18408602543791875835
8272917 22 18271811172546290654
960060 61 12463575127570537240

> <PUBCHEM_SHAPE_MULTIPOLES>
396.74
14.19
1.44
1.18
5.45
0.02
-1.08
-2.78
3.48
-0.68
0.18
0.22
0.17
-0.19

> <PUBCHEM_SHAPE_SELFOVERLAP>
866.873

> <PUBCHEM_SHAPE_VOLUME>
216.3

> <PUBCHEM_COORDINATE_TYPE>
2
5
10

$$$$
