139018
  -OEChem-11012400353D

 22 21  0     0  0  0  0  0  0999 V2000
   -0.2075    0.1581    0.1148 N   0  0  0  0  0  0  0  0  0  0  0  0
    0.8749   -0.6429    0.0495 N   0  0  0  0  0  0  0  0  0  0  0  0
   -2.6254    0.5012   -0.0265 C   0  0  0  0  0  0  0  0  0  0  0  0
   -1.4920   -0.5189    0.0462 C   0  0  0  0  0  0  0  0  0  0  0  0
   -3.9831   -0.1823   -0.0775 C   0  0  0  0  0  0  0  0  0  0  0  0
    2.0276   -0.0454   -0.0056 C   0  0  0  0  0  0  0  0  0  0  0  0
    3.3721   -0.7335   -0.0838 C   0  0  0  0  0  0  0  0  0  0  0  0
    2.0334    1.4638   -0.0171 C   0  0  0  0  0  0  0  0  0  0  0  0
   -2.5940    1.1634    0.8473 H   0  0  0  0  0  0  0  0  0  0  0  0
   -2.5074    1.1325   -0.9156 H   0  0  0  0  0  0  0  0  0  0  0  0
   -1.5258   -1.1609   -0.8423 H   0  0  0  0  0  0  0  0  0  0  0  0
   -1.6206   -1.1624    0.9246 H   0  0  0  0  0  0  0  0  0  0  0  0
   -4.0644   -0.8283   -0.9576 H   0  0  0  0  0  0  0  0  0  0  0  0
   -4.1482   -0.7943    0.8150 H   0  0  0  0  0  0  0  0  0  0  0  0
   -4.7816    0.5646   -0.1295 H   0  0  0  0  0  0  0  0  0  0  0  0
   -0.1724    0.7384    0.9527 H   0  0  0  0  0  0  0  0  0  0  0  0
    3.8597   -0.4703   -1.0259 H   0  0  0  0  0  0  0  0  0  0  0  0
    3.9955   -0.4092    0.7534 H   0  0  0  0  0  0  0  0  0  0  0  0
    3.2383   -1.8172   -0.0364 H   0  0  0  0  0  0  0  0  0  0  0  0
    3.0549    1.8239   -0.1770 H   0  0  0  0  0  0  0  0  0  0  0  0
    1.6956    1.8575    0.9460 H   0  0  0  0  0  0  0  0  0  0  0  0
    1.4198    1.8583   -0.8323 H   0  0  0  0  0  0  0  0  0  0  0  0
  1  2  1  0  0  0  0
  1  4  1  0  0  0  0
  1 16  1  0  0  0  0
  2  6  2  0  0  0  0
  3  4  1  0  0  0  0
  3  5  1  0  0  0  0
  3  9  1  0  0  0  0
  3 10  1  0  0  0  0
  4 11  1  0  0  0  0
  4 12  1  0  0  0  0
  5 13  1  0  0  0  0
  5 14  1  0  0  0  0
  5 15  1  0  0  0  0
  6  7  1  0  0  0  0
  6  8  1  0  0  0  0
  7 17  1  0  0  0  0
  7 18  1  0  0  0  0
  7 19  1  0  0  0  0
  8 20  1  0  0  0  0
  8 21  1  0  0  0  0
  8 22  1  0  0  0  0
M  END
> <PUBCHEM_COMPOUND_CID>
139018

> <PUBCHEM_CONFORMER_RMSD>
0.6

> <PUBCHEM_CONFORMER_DIVERSEORDER>
1
17
8
9
14
16
11
7
5
12
13
10
6
4
15
3
2

> <PUBCHEM_MMFF94_PARTIAL_CHARGES>
7
1 -0.58
16 0.36
2 -0.5
4 0.27
6 0.33
7 0.06
8 0.06

> <PUBCHEM_EFFECTIVE_ROTOR_COUNT>
3

> <PUBCHEM_PHARMACOPHORE_FEATURES>
3
1 1 donor
1 2 acceptor
1 5 hydrophobe

> <PUBCHEM_HEAVY_ATOM_COUNT>
8

> <PUBCHEM_ATOM_DEF_STEREO_COUNT>
0

> <PUBCHEM_ATOM_UDEF_STEREO_COUNT>
0

> <PUBCHEM_BOND_DEF_STEREO_COUNT>
0

> <PUBCHEM_BOND_UDEF_STEREO_COUNT>
0

> <PUBCHEM_ISOTOPIC_ATOM_COUNT>
0

> <PUBCHEM_COMPONENT_COUNT>
1

> <PUBCHEM_CACTVS_TAUTO_COUNT>
1

> <PUBCHEM_CONFORMER_ID>
00021F0A00000001

> <PUBCHEM_MMFF94_ENERGY>
13.7537

> <PUBCHEM_FEATURE_SELFOVERLAP>
15.223

> <PUBCHEM_SHAPE_FINGERPRINT>
11062470 55 10807932665458337067
12932764 1 17313372444380344419
14325111 11 18410574015559120075
14390081 3 18335699464141090345
3248919 1 17203621397003404479
5460574 1 9367345938050472347

> <PUBCHEM_SHAPE_MULTIPOLES>
154.67
6.61
1.07
0.6
3.5
0.32
0.01
-0.53
0.28
-0.71
0.01
0.01
0
0.02

> <PUBCHEM_SHAPE_SELFOVERLAP>
272.616

> <PUBCHEM_SHAPE_VOLUME>
101.5

> <PUBCHEM_COORDINATE_TYPE>
2
5
10

$$$$
