71353459
  -OEChem-11012400503D

 41 40  0     0  0  0  0  0  0999 V2000
   -0.0977    1.9038   -0.4468 Si  0  0  0  0  0  0  0  0  0  0  0  0
   -1.2457    0.5522   -1.0001 C   0  0  0  0  0  0  0  0  0  0  0  0
    1.3947    1.1795    0.4147 C   0  0  0  0  0  0  0  0  0  0  0  0
   -0.9733    3.1018    0.6706 C   0  0  0  0  0  0  0  0  0  0  0  0
   -1.8611   -0.3410    0.0847 C   0  0  0  0  0  0  0  0  0  0  0  0
    2.2594    0.1921   -0.3794 C   0  0  0  0  0  0  0  0  0  0  0  0
   -2.7854   -1.4291   -0.4739 C   0  0  0  0  0  0  0  0  0  0  0  0
    3.4520   -0.3506    0.4168 C   0  0  0  0  0  0  0  0  0  0  0  0
   -2.1867    3.7977    0.0679 C   0  0  0  0  0  0  0  0  0  0  0  0
   -3.4489   -2.2226    0.6527 C   0  0  0  0  0  0  0  0  0  0  0  0
    4.3343   -1.2481   -0.4521 C   0  0  0  0  0  0  0  0  0  0  0  0
   -4.3452   -3.3224    0.1064 C   0  0  0  0  0  0  0  0  0  0  0  0
    5.5036   -1.8132    0.3384 C   0  0  0  0  0  0  0  0  0  0  0  0
    0.3733    2.6393   -1.6479 H   0  0  0  0  0  0  0  0  0  0  0  0
   -2.0598    1.0107   -1.5746 H   0  0  0  0  0  0  0  0  0  0  0  0
   -0.7040   -0.0867   -1.7083 H   0  0  0  0  0  0  0  0  0  0  0  0
    2.0291    2.0129    0.7405 H   0  0  0  0  0  0  0  0  0  0  0  0
    1.0498    0.6835    1.3301 H   0  0  0  0  0  0  0  0  0  0  0  0
   -1.2886    2.5780    1.5804 H   0  0  0  0  0  0  0  0  0  0  0  0
   -0.2588    3.8696    0.9896 H   0  0  0  0  0  0  0  0  0  0  0  0
   -2.4291    0.2824    0.7876 H   0  0  0  0  0  0  0  0  0  0  0  0
   -1.0630   -0.8183    0.6680 H   0  0  0  0  0  0  0  0  0  0  0  0
    2.6289    0.6863   -1.2875 H   0  0  0  0  0  0  0  0  0  0  0  0
    1.6436   -0.6526   -0.7143 H   0  0  0  0  0  0  0  0  0  0  0  0
   -3.5582   -0.9675   -1.1004 H   0  0  0  0  0  0  0  0  0  0  0  0
   -2.2072   -2.1040   -1.1162 H   0  0  0  0  0  0  0  0  0  0  0  0
    4.0476    0.4862    0.8011 H   0  0  0  0  0  0  0  0  0  0  0  0
    3.0856   -0.9132    1.2839 H   0  0  0  0  0  0  0  0  0  0  0  0
   -1.9181    4.3689   -0.8275 H   0  0  0  0  0  0  0  0  0  0  0  0
   -2.9656    3.0791   -0.2095 H   0  0  0  0  0  0  0  0  0  0  0  0
   -2.6192    4.4947    0.7934 H   0  0  0  0  0  0  0  0  0  0  0  0
   -2.6813   -2.6709    1.2942 H   0  0  0  0  0  0  0  0  0  0  0  0
   -4.0452   -1.5508    1.2809 H   0  0  0  0  0  0  0  0  0  0  0  0
    3.7399   -2.0764   -0.8551 H   0  0  0  0  0  0  0  0  0  0  0  0
    4.7187   -0.6786   -1.3063 H   0  0  0  0  0  0  0  0  0  0  0  0
   -3.7717   -4.0310   -0.4997 H   0  0  0  0  0  0  0  0  0  0  0  0
   -5.1434   -2.9050   -0.5157 H   0  0  0  0  0  0  0  0  0  0  0  0
   -4.8094   -3.8764    0.9283 H   0  0  0  0  0  0  0  0  0  0  0  0
    5.1521   -2.4167    1.1814 H   0  0  0  0  0  0  0  0  0  0  0  0
    6.1364   -1.0105    0.7303 H   0  0  0  0  0  0  0  0  0  0  0  0
    6.1211   -2.4510   -0.3017 H   0  0  0  0  0  0  0  0  0  0  0  0
  1  2  1  0  0  0  0
  1  3  1  0  0  0  0
  1  4  1  0  0  0  0
  1 14  1  0  0  0  0
  2  5  1  0  0  0  0
  2 15  1  0  0  0  0
  2 16  1  0  0  0  0
  3  6  1  0  0  0  0
  3 17  1  0  0  0  0
  3 18  1  0  0  0  0
  4  9  1  0  0  0  0
  4 19  1  0  0  0  0
  4 20  1  0  0  0  0
  5  7  1  0  0  0  0
  5 21  1  0  0  0  0
  5 22  1  0  0  0  0
  6  8  1  0  0  0  0
  6 23  1  0  0  0  0
  6 24  1  0  0  0  0
  7 10  1  0  0  0  0
  7 25  1  0  0  0  0
  7 26  1  0  0  0  0
  8 11  1  0  0  0  0
  8 27  1  0  0  0  0
  8 28  1  0  0  0  0
  9 29  1  0  0  0  0
  9 30  1  0  0  0  0
  9 31  1  0  0  0  0
 10 12  1  0  0  0  0
 10 32  1  0  0  0  0
 10 33  1  0  0  0  0
 11 13  1  0  0  0  0
 11 34  1  0  0  0  0
 11 35  1  0  0  0  0
 12 36  1  0  0  0  0
 12 37  1  0  0  0  0
 12 38  1  0  0  0  0
 13 39  1  0  0  0  0
 13 40  1  0  0  0  0
 13 41  1  0  0  0  0
M  END
> <PUBCHEM_COMPOUND_CID>
71353459

> <PUBCHEM_CONFORMER_RMSD>
1

> <PUBCHEM_CONFORMER_DIVERSEORDER>
1
175
90
171
124
166
2
133
99
105
6
161
32
91
116
101
68
147
5
33
139
128
38
18
25
51
84
111
13
168
154
8
22
76
26
162
34
3
157
165
39
146
140
31
97
129
96
138
115
152
93
14
104
59
156
87
35
50
36
176
28
52
173
114
149
151
113
148
108
132
180
81
137
48
12
123
63
164
45
121
53
78
20
56
118
24
79
135
134
94
70
136
4
167
16
174
10
177
77
23
85
100
9
82
58
119
95
102
92
163
74
66
83
27
131
117
37
19
106
125
158
11
150
80
126
64
30
61
17
7
172
109
42
160
15
40
122
71
170
107
46
75
130
21
86
112
145
67
54
169
88
153
179
103
143
72
44
141
142
29
178
47
41
98
65
49
144
57
60
62
120
159
69
155
43
89
55
73
127
110

> <PUBCHEM_MMFF94_PARTIAL_CHARGES>
5
1 0.44
14 -0.2
2 -0.08
3 -0.08
4 -0.08

> <PUBCHEM_EFFECTIVE_ROTOR_COUNT>
9

> <PUBCHEM_PHARMACOPHORE_FEATURES>
2
1 12 hydrophobe
1 13 hydrophobe

> <PUBCHEM_HEAVY_ATOM_COUNT>
13

> <PUBCHEM_ATOM_DEF_STEREO_COUNT>
0

> <PUBCHEM_ATOM_UDEF_STEREO_COUNT>
0

> <PUBCHEM_BOND_DEF_STEREO_COUNT>
0

> <PUBCHEM_BOND_UDEF_STEREO_COUNT>
0

> <PUBCHEM_ISOTOPIC_ATOM_COUNT>
0

> <PUBCHEM_COMPONENT_COUNT>
1

> <PUBCHEM_CACTVS_TAUTO_COUNT>
1

> <PUBCHEM_CONFORMER_ID>
0440C47300000001

> <PUBCHEM_MMFF94_ENERGY>
-4.9048

> <PUBCHEM_FEATURE_SELFOVERLAP>
10.149

> <PUBCHEM_SHAPE_FINGERPRINT>
11357001 24 18340489967425688509
13052359 8 18266178323275209765
13533116 47 17832712644994854731
13911852 28 18339641256350791079
13955234 65 17475803521007009459
14251731 5 18337390542815340622
14252887 29 18194396925340015664
14866123 147 18266741286229272427
15042514 8 18410862019102768873
15422964 175 18195235844169871409
17859628 70 17616258421731030235
19784866 135 18411981342876254136
20388580 30 18115311222933671534
20645477 70 17756415320902673223
20671657 53 18267872876962468259
20871998 22 18266737072460283241
22224240 67 17912086045558999785
2255824 54 17403179691191864973
23526113 38 18049410881527703733
23558518 356 18334021575248687264
23598288 3 18342459210020777276
3421961 26 18124032587899004435
54173680 148 18411138009111018757
57003041 14 18188764076211496053
77188 2 18267022932846802317

> <PUBCHEM_SHAPE_MULTIPOLES>
285.75
9.11
4.66
0.9
10.26
1.65
-0.08
-12.33
0.87
-6.21
0.74
-0.09
0.15
0.07

> <PUBCHEM_SHAPE_SELFOVERLAP>
493.486

> <PUBCHEM_SHAPE_VOLUME>
190

> <PUBCHEM_COORDINATE_TYPE>
2
5
10

$$$$
