5355375
  -OEChem-11012400423D

 16 16  0     0  0  0  0  0  0999 V2000
    2.4124   -0.6233    0.2617 O   0  0  0  0  0  0  0  0  0  0  0  0
    1.0716   -0.8784   -0.0362 N   0  0  0  0  0  0  0  0  0  0  0  0
   -1.0530    0.2573   -0.5056 C   0  0  0  0  0  0  0  0  0  0  0  0
   -1.8944   -0.9124   -0.1219 C   0  0  0  0  0  0  0  0  0  0  0  0
   -2.0270    0.3875    0.6160 C   0  0  0  0  0  0  0  0  0  0  0  0
    0.4023    0.2214   -0.1828 C   0  0  0  0  0  0  0  0  0  0  0  0
    1.0880    1.5478   -0.0311 C   0  0  0  0  0  0  0  0  0  0  0  0
   -1.3021    0.7503   -1.4397 H   0  0  0  0  0  0  0  0  0  0  0  0
   -1.4541   -1.7441    0.4139 H   0  0  0  0  0  0  0  0  0  0  0  0
   -2.6996   -1.1956   -0.7895 H   0  0  0  0  0  0  0  0  0  0  0  0
   -2.9202    0.9758    0.4447 H   0  0  0  0  0  0  0  0  0  0  0  0
   -1.6520    0.4303    1.6313 H   0  0  0  0  0  0  0  0  0  0  0  0
    1.5013    1.6443    0.9772 H   0  0  0  0  0  0  0  0  0  0  0  0
    1.8899    1.6437   -0.7690 H   0  0  0  0  0  0  0  0  0  0  0  0
    0.3788    2.3655   -0.1892 H   0  0  0  0  0  0  0  0  0  0  0  0
    2.7698   -1.5239    0.3398 H   0  0  0  0  0  0  0  0  0  0  0  0
  1  2  1  0  0  0  0
  1 16  1  0  0  0  0
  2  6  2  0  0  0  0
  3  4  1  0  0  0  0
  3  5  1  0  0  0  0
  3  6  1  0  0  0  0
  3  8  1  0  0  0  0
  4  5  1  0  0  0  0
  4  9  1  0  0  0  0
  4 10  1  0  0  0  0
  5 11  1  0  0  0  0
  5 12  1  0  0  0  0
  6  7  1  0  0  0  0
  7 13  1  0  0  0  0
  7 14  1  0  0  0  0
  7 15  1  0  0  0  0
M  END
> <PUBCHEM_COMPOUND_CID>
5355375

> <PUBCHEM_CONFORMER_RMSD>
0.4

> <PUBCHEM_CONFORMER_DIVERSEORDER>
1
4
6
3
5
2

> <PUBCHEM_MMFF94_PARTIAL_CHARGES>
13
1 -0.34
10 0.1
11 0.1
12 0.1
16 0.4
2 -0.51
3 -0.1
4 -0.2
5 -0.2
6 0.39
7 0.06
8 0.1
9 0.1

> <PUBCHEM_EFFECTIVE_ROTOR_COUNT>
1.6

> <PUBCHEM_PHARMACOPHORE_FEATURES>
2
1 1 anion
1 2 acceptor

> <PUBCHEM_HEAVY_ATOM_COUNT>
7

> <PUBCHEM_ATOM_DEF_STEREO_COUNT>
0

> <PUBCHEM_ATOM_UDEF_STEREO_COUNT>
0

> <PUBCHEM_BOND_DEF_STEREO_COUNT>
1

> <PUBCHEM_BOND_UDEF_STEREO_COUNT>
0

> <PUBCHEM_ISOTOPIC_ATOM_COUNT>
0

> <PUBCHEM_COMPONENT_COUNT>
1

> <PUBCHEM_CACTVS_TAUTO_COUNT>
2

> <PUBCHEM_CONFORMER_ID>
0051B76F00000001

> <PUBCHEM_MMFF94_ENERGY>
16.4397

> <PUBCHEM_FEATURE_SELFOVERLAP>
10.148

> <PUBCHEM_SHAPE_FINGERPRINT>
18185500 45 18413107251452230211
20096714 4 18200038472305122357
21040471 1 18050289468231815428
23552449 11 18187911924065310760
24536 1 18271235105899371105
29004967 10 18334580105289916218

> <PUBCHEM_SHAPE_MULTIPOLES>
133.21
2.92
1.25
0.7
0.14
0.23
0
-0.49
0.4
0.42
0.01
-0.16
0.05
-0.17

> <PUBCHEM_SHAPE_SELFOVERLAP>
253.472

> <PUBCHEM_SHAPE_VOLUME>
84.1

> <PUBCHEM_COORDINATE_TYPE>
2
5
10

$$$$
