11805539
  -OEChem-11012401243D

 22 21  0     1  0  0  0  0  0999 V2000
   -0.6705   -2.2492    0.4256 O   0  0  0  0  0  0  0  0  0  0  0  0
   -0.5306   -1.2856   -1.6232 O   0  0  0  0  0  0  0  0  0  0  0  0
   -3.8117    1.1385   -0.6342 O   0  0  0  0  0  0  0  0  0  0  0  0
   -3.2448   -0.1749    1.1353 O   0  0  0  0  0  0  0  0  0  0  0  0
    4.3033   -0.4286    0.3853 O   0  0  0  0  0  0  0  0  0  0  0  0
    3.3790    1.4748   -0.4425 O   0  0  0  0  0  0  0  0  0  0  0  0
    0.8700    0.6854    0.0438 N   0  0  0  0  0  0  0  0  0  0  0  0
   -0.4456    0.1308    0.3626 C   0  0  1  0  0  0  0  0  0  0  0  0
   -1.5395    1.1331   -0.0264 C   0  0  0  0  0  0  0  0  0  0  0  0
    1.9253   -0.2350    0.4368 C   0  0  0  0  0  0  0  0  0  0  0  0
   -0.5581   -1.1773   -0.4043 C   0  0  0  0  0  0  0  0  0  0  0  0
   -2.9300    0.6096    0.2533 C   0  0  0  0  0  0  0  0  0  0  0  0
    3.2532    0.3784    0.0880 C   0  0  0  0  0  0  0  0  0  0  0  0
   -0.5186   -0.0732    1.4388 H   0  0  0  0  0  0  0  0  0  0  0  0
   -1.4662    1.3545   -1.0993 H   0  0  0  0  0  0  0  0  0  0  0  0
   -1.4215    2.0734    0.5245 H   0  0  0  0  0  0  0  0  0  0  0  0
    0.9884    1.5725    0.5333 H   0  0  0  0  0  0  0  0  0  0  0  0
    1.8797   -1.1846   -0.1053 H   0  0  0  0  0  0  0  0  0  0  0  0
    1.9067   -0.4161    1.5170 H   0  0  0  0  0  0  0  0  0  0  0  0
   -0.7305   -3.0917   -0.0732 H   0  0  0  0  0  0  0  0  0  0  0  0
   -4.7248    0.8152   -0.4791 H   0  0  0  0  0  0  0  0  0  0  0  0
    5.1600   -0.0216    0.1347 H   0  0  0  0  0  0  0  0  0  0  0  0
  1 11  1  0  0  0  0
  1 20  1  0  0  0  0
  2 11  2  0  0  0  0
  3 12  1  0  0  0  0
  3 21  1  0  0  0  0
  4 12  2  0  0  0  0
  5 13  1  0  0  0  0
  5 22  1  0  0  0  0
  6 13  2  0  0  0  0
  7  8  1  0  0  0  0
  7 10  1  0  0  0  0
  7 17  1  0  0  0  0
  8  9  1  0  0  0  0
  8 11  1  0  0  0  0
  8 14  1  0  0  0  0
  9 12  1  0  0  0  0
  9 15  1  0  0  0  0
  9 16  1  0  0  0  0
 10 13  1  0  0  0  0
 10 18  1  0  0  0  0
 10 19  1  0  0  0  0
M  END
> <PUBCHEM_COMPOUND_CID>
11805539

> <PUBCHEM_CONFORMER_RMSD>
0.6

> <PUBCHEM_CONFORMER_DIVERSEORDER>
1
35
61
30
8
55
24
60
12
18
53
3
23
39
2
52
38
51
19
20
5
34
47
9
41
13
43
4
31
56
42
40
49
44
26
57
58
17
48
46
25
22
36
59
6
54
33
21
27
14
10
28
29
50
45
7
32
15
16
37
11

> <PUBCHEM_MMFF94_PARTIAL_CHARGES>
17
1 -0.65
10 0.33
11 0.66
12 0.66
13 0.66
17 0.36
2 -0.57
20 0.5
21 0.5
22 0.5
3 -0.65
4 -0.57
5 -0.65
6 -0.57
7 -0.9
8 0.33
9 0.06

> <PUBCHEM_EFFECTIVE_ROTOR_COUNT>
6

> <PUBCHEM_PHARMACOPHORE_FEATURES>
11
1 1 acceptor
1 2 acceptor
1 3 acceptor
1 4 acceptor
1 5 acceptor
1 6 acceptor
1 7 cation
1 7 donor
3 1 2 11 anion
3 3 4 12 anion
3 5 6 13 anion

> <PUBCHEM_HEAVY_ATOM_COUNT>
13

> <PUBCHEM_ATOM_DEF_STEREO_COUNT>
1

> <PUBCHEM_ATOM_UDEF_STEREO_COUNT>
0

> <PUBCHEM_BOND_DEF_STEREO_COUNT>
0

> <PUBCHEM_BOND_UDEF_STEREO_COUNT>
0

> <PUBCHEM_ISOTOPIC_ATOM_COUNT>
0

> <PUBCHEM_COMPONENT_COUNT>
1

> <PUBCHEM_CACTVS_TAUTO_COUNT>
1

> <PUBCHEM_CONFORMER_ID>
00B4236300000001

> <PUBCHEM_MMFF94_ENERGY>
15.4625

> <PUBCHEM_FEATURE_SELFOVERLAP>
55.998

> <PUBCHEM_SHAPE_FINGERPRINT>
11062470 55 11671779368909571960
12932764 1 17702105983461827232
13380535 76 18343864403060833326
14325111 11 18409168796485600297
14943859 89 18342453746784972370
14993402 34 18411696590934760221
15775835 57 18272084976853380621
18175812 5 17749111067126241693
18186145 218 16773794788002979905
187816 3 17060336314283806609
20281407 28 7853571288222830900
20645477 56 18340762728409718816
20653085 51 15051737512053594723
20711985 327 13768219289149145559
21524375 3 18271522009509002613
23402539 116 17418085482297783424
3248919 1 14764075626906402280
366044 4 18060415798551223423
528862 383 18116142273372937234
6333449 129 17774999137005614375
69090 78 17846208956165481150
81539 233 18338232648689713519

> <PUBCHEM_SHAPE_MULTIPOLES>
227.34
6.55
1.56
0.93
3.01
0.62
0.17
-2.36
-0.55
-0.29
0.19
-0.38
0.23
-0.07

> <PUBCHEM_SHAPE_SELFOVERLAP>
443.339

> <PUBCHEM_SHAPE_VOLUME>
135.7

> <PUBCHEM_COORDINATE_TYPE>
2
5
10

$$$$
