61193
  -OEChem-11012401213D

 11 10  0     1  0  0  0  0  0999 V2000
   -0.0490   -1.8361   -1.1897 Cl  0  0  0  0  0  0  0  0  0  0  0  0
    1.5878    1.1070   -1.4290 Cl  0  0  0  0  0  0  0  0  0  0  0  0
   -0.0887   -1.2221    1.2901 F   0  0  0  0  0  0  0  0  0  0  0  0
    1.3121    1.0594    1.1164 F   0  0  0  0  0  0  0  0  0  0  0  0
    2.3155   -0.6687    0.2641 F   0  0  0  0  0  0  0  0  0  0  0  0
   -1.2811    0.9900   -1.1690 F   0  0  0  0  0  0  0  0  0  0  0  0
   -1.3851    1.1568    1.0020 F   0  0  0  0  0  0  0  0  0  0  0  0
   -2.3918   -0.4850   -0.0148 F   0  0  0  0  0  0  0  0  0  0  0  0
   -0.0292   -0.5792    0.0837 C   0  0  1  0  0  0  0  0  0  0  0  0
    1.2860    0.1974    0.0644 C   0  0  0  0  0  0  0  0  0  0  0  0
   -1.2764    0.2804   -0.0183 C   0  0  0  0  0  0  0  0  0  0  0  0
  1  9  1  0  0  0  0
  2 10  1  0  0  0  0
  3  9  1  0  0  0  0
  4 10  1  0  0  0  0
  5 10  1  0  0  0  0
  6 11  1  0  0  0  0
  7 11  1  0  0  0  0
  8 11  1  0  0  0  0
  9 10  1  0  0  0  0
  9 11  1  0  0  0  0
M  END
> <PUBCHEM_COMPOUND_CID>
61193

> <PUBCHEM_CONFORMER_RMSD>
0.4

> <PUBCHEM_CONFORMER_DIVERSEORDER>
1
6
4
2
5
3

> <PUBCHEM_MMFF94_PARTIAL_CHARGES>
11
1 -0.29
10 0.97
11 1.02
2 -0.29
3 -0.34
4 -0.34
5 -0.34
6 -0.34
7 -0.34
8 -0.34
9 0.63

> <PUBCHEM_EFFECTIVE_ROTOR_COUNT>
2

> <PUBCHEM_PHARMACOPHORE_FEATURES>
0

> <PUBCHEM_HEAVY_ATOM_COUNT>
11

> <PUBCHEM_ATOM_DEF_STEREO_COUNT>
0

> <PUBCHEM_ATOM_UDEF_STEREO_COUNT>
1

> <PUBCHEM_BOND_DEF_STEREO_COUNT>
0

> <PUBCHEM_BOND_UDEF_STEREO_COUNT>
0

> <PUBCHEM_ISOTOPIC_ATOM_COUNT>
0

> <PUBCHEM_COMPONENT_COUNT>
1

> <PUBCHEM_CACTVS_TAUTO_COUNT>
1

> <PUBCHEM_CONFORMER_ID>
0000EF0900000001

> <PUBCHEM_MMFF94_ENERGY>
6.4665

> <PUBCHEM_FEATURE_SELFOVERLAP>
0

> <PUBCHEM_SHAPE_FINGERPRINT>
12423570 1 10080657658186548010
137420 1 14505305298304059903
16945 1 17895204289536938962
21040471 1 18272372013633352606
21922407 69 16806443802389833816
29004967 10 13470685974947509630
5084963 1 18333447633924822510

> <PUBCHEM_SHAPE_MULTIPOLES>
186.47
2.41
1.56
1.33
0.04
0.54
0.16
-0.45
0.15
-0.09
0.22
0.29
-0.1
-0.18

> <PUBCHEM_SHAPE_SELFOVERLAP>
358.086

> <PUBCHEM_SHAPE_VOLUME>
117.1

> <PUBCHEM_COORDINATE_TYPE>
2
5
10

$$$$
