21908700
  -OEChem-11012400383D

 39 40  0     0  0  0  0  0  0999 V2000
   -0.0003   -2.6822   -0.0032 Si  0  0  0  0  0  0  0  0  0  0  0  0
    1.0988   -1.7152   -0.8075 O   0  0  0  0  0  0  0  0  0  0  0  0
   -1.1183   -1.7305    0.7930 O   0  0  0  0  0  0  0  0  0  0  0  0
    0.8902   -3.7887    1.2333 C   0  0  0  0  0  0  0  0  0  0  0  0
   -0.8684   -3.8162   -1.2305 C   0  0  0  0  0  0  0  0  0  0  0  0
    1.7517   -0.5527   -0.4926 C   0  0  0  0  0  0  0  0  0  0  0  0
   -1.7630   -0.5615    0.4853 C   0  0  0  0  0  0  0  0  0  0  0  0
    2.0631   -0.2660    0.8366 C   0  0  0  0  0  0  0  0  0  0  0  0
   -2.0416   -0.2483   -0.8452 C   0  0  0  0  0  0  0  0  0  0  0  0
    2.1046    0.3443   -1.5009 C   0  0  0  0  0  0  0  0  0  0  0  0
   -2.1402    0.3158    1.5021 C   0  0  0  0  0  0  0  0  0  0  0  0
    3.0804    1.8148    0.1491 C   0  0  0  0  0  0  0  0  0  0  0  0
   -3.0748    1.8194   -0.1419 C   0  0  0  0  0  0  0  0  0  0  0  0
    2.7275    0.9178    1.1573 C   0  0  0  0  0  0  0  0  0  0  0  0
   -2.6974    0.9422   -1.1587 C   0  0  0  0  0  0  0  0  0  0  0  0
    2.7689    1.5280   -1.1800 C   0  0  0  0  0  0  0  0  0  0  0  0
   -2.7960    1.5061    1.1885 C   0  0  0  0  0  0  0  0  0  0  0  0
    3.7905    3.0806    0.4914 C   0  0  0  0  0  0  0  0  0  0  0  0
   -3.7758    3.0922   -0.4763 C   0  0  0  0  0  0  0  0  0  0  0  0
    1.3601   -3.2013    2.0262 H   0  0  0  0  0  0  0  0  0  0  0  0
    0.1839   -4.4826    1.6987 H   0  0  0  0  0  0  0  0  0  0  0  0
    1.6665   -4.3741    0.7318 H   0  0  0  0  0  0  0  0  0  0  0  0
   -1.3699   -3.2404   -2.0127 H   0  0  0  0  0  0  0  0  0  0  0  0
   -0.1455   -4.4834   -1.7090 H   0  0  0  0  0  0  0  0  0  0  0  0
   -1.6172   -4.4294   -0.7204 H   0  0  0  0  0  0  0  0  0  0  0  0
    1.8119   -0.9413    1.6472 H   0  0  0  0  0  0  0  0  0  0  0  0
   -1.7716   -0.9094   -1.6619 H   0  0  0  0  0  0  0  0  0  0  0  0
    1.8640    0.1262   -2.5378 H   0  0  0  0  0  0  0  0  0  0  0  0
   -1.9251    0.0771    2.5402 H   0  0  0  0  0  0  0  0  0  0  0  0
    2.9675    1.1290    2.1961 H   0  0  0  0  0  0  0  0  0  0  0  0
   -2.9120    1.1739   -2.1986 H   0  0  0  0  0  0  0  0  0  0  0  0
    3.0398    2.2182   -1.9746 H   0  0  0  0  0  0  0  0  0  0  0  0
   -3.0860    2.1807    1.9897 H   0  0  0  0  0  0  0  0  0  0  0  0
    4.8733    2.9239    0.4608 H   0  0  0  0  0  0  0  0  0  0  0  0
    3.5315    3.8809   -0.2101 H   0  0  0  0  0  0  0  0  0  0  0  0
    3.5149    3.4305    1.4921 H   0  0  0  0  0  0  0  0  0  0  0  0
   -4.8591    2.9358   -0.4757 H   0  0  0  0  0  0  0  0  0  0  0  0
   -3.5340    3.8783    0.2472 H   0  0  0  0  0  0  0  0  0  0  0  0
   -3.4753    3.4619   -1.4626 H   0  0  0  0  0  0  0  0  0  0  0  0
  1  2  1  0  0  0  0
  1  3  1  0  0  0  0
  1  4  1  0  0  0  0
  1  5  1  0  0  0  0
  2  6  1  0  0  0  0
  3  7  1  0  0  0  0
  4 20  1  0  0  0  0
  4 21  1  0  0  0  0
  4 22  1  0  0  0  0
  5 23  1  0  0  0  0
  5 24  1  0  0  0  0
  5 25  1  0  0  0  0
  6  8  2  0  0  0  0
  6 10  1  0  0  0  0
  7  9  2  0  0  0  0
  7 11  1  0  0  0  0
  8 14  1  0  0  0  0
  8 26  1  0  0  0  0
  9 15  1  0  0  0  0
  9 27  1  0  0  0  0
 10 16  2  0  0  0  0
 10 28  1  0  0  0  0
 11 17  2  0  0  0  0
 11 29  1  0  0  0  0
 12 14  2  0  0  0  0
 12 16  1  0  0  0  0
 12 18  1  0  0  0  0
 13 15  2  0  0  0  0
 13 17  1  0  0  0  0
 13 19  1  0  0  0  0
 14 30  1  0  0  0  0
 15 31  1  0  0  0  0
 16 32  1  0  0  0  0
 17 33  1  0  0  0  0
 18 34  1  0  0  0  0
 18 35  1  0  0  0  0
 18 36  1  0  0  0  0
 19 37  1  0  0  0  0
 19 38  1  0  0  0  0
 19 39  1  0  0  0  0
M  END
> <PUBCHEM_COMPOUND_CID>
21908700

> <PUBCHEM_CONFORMER_RMSD>
0.6

> <PUBCHEM_CONFORMER_DIVERSEORDER>
1
26
4
13
5
16
34
10
12
6
15
19
3
2
7
37
39
35
29
40
36
27
31
18
8
30
23
14
38
22
25
24
17
33
41
28
32
9
21
11
20

> <PUBCHEM_MMFF94_PARTIAL_CHARGES>
27
1 0.76
10 -0.15
11 -0.15
12 -0.14
13 -0.14
14 -0.15
15 -0.15
16 -0.15
17 -0.15
18 0.14
19 0.14
2 -0.38
26 0.15
27 0.15
28 0.15
29 0.15
3 -0.38
30 0.15
31 0.15
32 0.15
33 0.15
4 -0.08
5 -0.08
6 0.08
7 0.08
8 -0.15
9 -0.15

> <PUBCHEM_EFFECTIVE_ROTOR_COUNT>
4

> <PUBCHEM_PHARMACOPHORE_FEATURES>
2
6 6 8 10 12 14 16 rings
6 7 9 11 13 15 17 rings

> <PUBCHEM_HEAVY_ATOM_COUNT>
19

> <PUBCHEM_ATOM_DEF_STEREO_COUNT>
0

> <PUBCHEM_ATOM_UDEF_STEREO_COUNT>
0

> <PUBCHEM_BOND_DEF_STEREO_COUNT>
0

> <PUBCHEM_BOND_UDEF_STEREO_COUNT>
0

> <PUBCHEM_ISOTOPIC_ATOM_COUNT>
0

> <PUBCHEM_COMPONENT_COUNT>
1

> <PUBCHEM_CACTVS_TAUTO_COUNT>
1

> <PUBCHEM_CONFORMER_ID>
014E4CDC00000001

> <PUBCHEM_MMFF94_ENERGY>
47.0445

> <PUBCHEM_FEATURE_SELFOVERLAP>
10.149

> <PUBCHEM_SHAPE_FINGERPRINT>
10165383 225 17834163810404088845
10670039 82 17257944113953816748
11640471 11 18129367237938890109
12156800 1 15662169995390489261
12173636 292 18336830883102085397
12363563 72 9439404583997146417
12788726 201 17976802509004263522
128993 33 18266764465603311648
13134695 92 17686892826367382495
13294875 104 18338516309984333518
13681431 1 17690008829483103071
13965767 371 17968929799712360996
14713325 29 17468802848926720590
14955137 171 17981342096231601226
15420108 30 17909518724029545794
15664445 248 14188131567663723017
17357779 13 17124509546667734358
17980427 23 17836894873119054939
18981168 100 18338814363059663268
20291156 8 9223230775407141429
20510252 161 18122905601260272082
20567600 299 17763734404246083893
20600515 1 17187300495620207062
20671657 1 18265615381552741127
21041028 32 17111850366885831719
21304303 282 17910633796175707287
21524375 3 18338811064525306122
21731228 192 18408044026276300474
23557571 272 17693946593344659094
23558518 356 18337943580106010366
238 59 18270122288557831781
350125 39 18337967743401925242
474 4 18339071576098759561
5845 1 16979021072874439034
5939293 188 17977942380429046983
6442390 28 18126312889411533027
81228 2 17834974330884037442
84936 182 18269549451416037505
9981440 41 18336814364462634849

> <PUBCHEM_SHAPE_MULTIPOLES>
397.49
6.06
4.76
1.49
0.01
3.17
0
-8.01
-0.06
0.01
0.01
0
0.21
-0.01

> <PUBCHEM_SHAPE_SELFOVERLAP>
814.856

> <PUBCHEM_SHAPE_VOLUME>
231.2

> <PUBCHEM_COORDINATE_TYPE>
2
5
10

$$$$
