16131935
  -OEChem-10312420592D

 70105  0     0  0  0  0  0  0999 V2000
    7.7718   -2.5454    0.0000 C   0  0  0  0  0  0  0  0  0  0  0  0
    6.0208    1.6171    0.0000 C   0  0  0  0  0  0  0  0  0  0  0  0
    5.0830    0.9388    0.0000 C   0  0  0  0  0  0  0  0  0  0  0  0
    3.9694    1.3947    0.0000 C   0  0  0  0  0  0  0  0  0  0  0  0
    5.2375   -0.3069    0.0000 C   0  0  0  0  0  0  0  0  0  0  0  0
    2.5521   -1.2294    0.0000 C   0  0  0  0  0  0  0  0  0  0  0  0
    2.0184   -0.3391    0.0000 C   0  0  0  0  0  0  0  0  0  0  0  0
    5.2703    2.3728    0.0000 C   0  0  0  0  0  0  0  0  0  0  0  0
    3.4854    2.2925    0.0000 C   0  0  0  0  0  0  0  0  0  0  0  0
    4.0899    1.9246    0.0000 C   0  0  0  0  0  0  0  0  0  0  0  0
    4.1337   -2.9350    0.0000 C   0  0  0  0  0  0  0  0  0  0  0  0
    2.2642    0.4859    0.0000 C   0  0  0  0  0  0  0  0  0  0  0  0
    9.0057   -0.8837    0.0000 C   0  0  0  0  0  0  0  0  0  0  0  0
    7.1504    1.1094    0.0000 C   0  0  0  0  0  0  0  0  0  0  0  0
    3.0083    0.6080    0.0000 C   0  0  0  0  0  0  0  0  0  0  0  0
    8.3804   -1.9637    0.0000 C   0  0  0  0  0  0  0  0  0  0  0  0
    3.0436   -2.4051    0.0000 C   0  0  0  0  0  0  0  0  0  0  0  0
    7.8059    1.6974    0.0000 C   0  0  0  0  0  0  0  0  0  0  0  0
    3.1637   -0.6445    0.0000 C   0  0  0  0  0  0  0  0  0  0  0  0
    4.6612   -2.6830    0.0000 C   0  0  0  0  0  0  0  0  0  0  0  0
    7.7883   -2.0477    0.0000 C   0  0  0  0  0  0  0  0  0  0  0  0
    4.1774   -2.7069    0.0000 C   0  0  0  0  0  0  0  0  0  0  0  0
    5.4862    2.5090    0.0000 C   0  0  0  0  0  0  0  0  0  0  0  0
    3.8051    0.7804    0.0000 C   0  0  0  0  0  0  0  0  0  0  0  0
    4.7858   -2.1252    0.0000 C   0  0  0  0  0  0  0  0  0  0  0  0
    4.2785   -1.0963    0.0000 C   0  0  0  0  0  0  0  0  0  0  0  0
    6.0571    2.9338    0.0000 C   0  0  0  0  0  0  0  0  0  0  0  0
    7.1195    2.7138    0.0000 C   0  0  0  0  0  0  0  0  0  0  0  0
    8.6784    1.1005    0.0000 C   0  0  0  0  0  0  0  0  0  0  0  0
    6.6274   -3.0435    0.0000 C   0  0  0  0  0  0  0  0  0  0  0  0
    7.2712    2.5893    0.0000 C   0  0  0  0  0  0  0  0  0  0  0  0
    7.8767   -0.0753    0.0000 C   0  0  0  0  0  0  0  0  0  0  0  0
    2.0000   -0.4890    0.0000 C   0  0  0  0  0  0  0  0  0  0  0  0
    5.9184   -2.8548    0.0000 C   0  0  0  0  0  0  0  0  0  0  0  0
    4.8722   -1.1087    0.0000 C   0  0  0  0  0  0  0  0  0  0  0  0
    4.7166    0.1462    0.0000 C   0  0  0  0  0  0  0  0  0  0  0  0
    2.9313    0.0656    0.0000 C   0  0  0  0  0  0  0  0  0  0  0  0
    9.0220   -0.3808    0.0000 C   0  0  0  0  0  0  0  0  0  0  0  0
    8.6967    1.6074    0.0000 C   0  0  0  0  0  0  0  0  0  0  0  0
    8.1590    1.0601    0.0000 C   0  0  0  0  0  0  0  0  0  0  0  0
    4.0982    2.8784    0.0000 C   0  0  0  0  0  0  0  0  0  0  0  0
    4.8427   -3.1236    0.0000 C   0  0  0  0  0  0  0  0  0  0  0  0
    7.2883    1.9827    0.0000 C   0  0  0  0  0  0  0  0  0  0  0  0
    4.2288    2.3647    0.0000 C   0  0  0  0  0  0  0  0  0  0  0  0
    4.1233   -1.7858    0.0000 C   0  0  0  0  0  0  0  0  0  0  0  0
    8.8330   -0.1451    0.0000 C   0  0  0  0  0  0  0  0  0  0  0  0
    3.0869   -1.1890    0.0000 C   0  0  0  0  0  0  0  0  0  0  0  0
    2.5450    1.6152    0.0000 C   0  0  0  0  0  0  0  0  0  0  0  0
    5.8594    0.6479    0.0000 C   0  0  0  0  0  0  0  0  0  0  0  0
    8.8666    0.8715    0.0000 C   0  0  0  0  0  0  0  0  0  0  0  0
    7.8236    2.5264    0.0000 C   0  0  0  0  0  0  0  0  0  0  0  0
    2.5127   -1.5198    0.0000 C   0  0  0  0  0  0  0  0  0  0  0  0
    6.1400    1.7768    0.0000 C   0  0  0  0  0  0  0  0  0  0  0  0
    3.0617   -2.2603    0.0000 C   0  0  0  0  0  0  0  0  0  0  0  0
    7.8276   -1.8963    0.0000 C   0  0  0  0  0  0  0  0  0  0  0  0
    6.1118   -3.0691    0.0000 C   0  0  0  0  0  0  0  0  0  0  0  0
    6.6386   -2.2435    0.0000 C   0  0  0  0  0  0  0  0  0  0  0  0
    8.4103   -0.9658    0.0000 C   0  0  0  0  0  0  0  0  0  0  0  0
    5.3437    3.1236    0.0000 C   0  0  0  0  0  0  0  0  0  0  0  0
    6.3254   -0.8390    0.0000 C   0  0  0  0  0  0  0  0  0  0  0  0
    6.7284   -2.4798    0.0000 C   0  0  0  0  0  0  0  0  0  0  0  0
    6.1081   -1.3581    0.0000 C   0  0  0  0  0  0  0  0  0  0  0  0
    6.0426   -1.9763    0.0000 C   0  0  0  0  0  0  0  0  0  0  0  0
    8.1105   -0.7589    0.0000 C   0  0  0  0  0  0  0  0  0  0  0  0
    2.3005    0.7964    0.0000 C   0  0  0  0  0  0  0  0  0  0  0  0
    2.5616    1.7702    0.0000 C   0  0  0  0  0  0  0  0  0  0  0  0
    6.7274   -0.2762    0.0000 C   0  0  0  0  0  0  0  0  0  0  0  0
    5.8830    2.9588    0.0000 C   0  0  0  0  0  0  0  0  0  0  0  0
    7.3069   -0.1530    0.0000 C   0  0  0  0  0  0  0  0  0  0  0  0
    3.5250    2.5521    0.0000 C   0  0  0  0  0  0  0  0  0  0  0  0
  1 16  2  0  0  0  0
  1 21  1  0  0  0  0
  1 30  1  0  0  0  0
  2  3  1  0  0  0  0
  2 14  1  0  0  0  0
  2 23  2  0  0  0  0
  3  4  2  0  0  0  0
  3  5  1  0  0  0  0
  4 15  1  0  0  0  0
  4 44  1  0  0  0  0
  5 26  1  0  0  0  0
  5 60  2  0  0  0  0
  6  7  2  0  0  0  0
  6 19  1  0  0  0  0
  6 54  1  0  0  0  0
  7 33  1  0  0  0  0
  7 65  1  0  0  0  0
  8 10  2  0  0  0  0
  8 53  1  0  0  0  0
  8 68  1  0  0  0  0
  9 10  1  0  0  0  0
  9 41  2  0  0  0  0
  9 48  1  0  0  0  0
 10 24  1  0  0  0  0
 11 17  1  0  0  0  0
 11 20  1  0  0  0  0
 11 42  2  0  0  0  0
 12 33  2  0  0  0  0
 12 37  1  0  0  0  0
 12 48  1  0  0  0  0
 13 16  1  0  0  0  0
 13 38  2  0  0  0  0
 13 46  1  0  0  0  0
 14 18  1  0  0  0  0
 14 69  2  0  0  0  0
 15 19  1  0  0  0  0
 15 65  2  0  0  0  0
 16 55  1  0  0  0  0
 17 52  2  0  0  0  0
 17 54  1  0  0  0  0
 18 29  1  0  0  0  0
 18 31  2  0  0  0  0
 19 26  2  0  0  0  0
 20 34  1  0  0  0  0
 20 45  2  0  0  0  0
 21 57  2  0  0  0  0
 21 58  1  0  0  0  0
 22 25  1  0  0  0  0
 22 42  1  0  0  0  0
 22 54  2  0  0  0  0
 23 27  1  0  0  0  0
 23 44  1  0  0  0  0
 24 36  2  0  0  0  0
 24 37  1  0  0  0  0
 25 26  1  0  0  0  0
 25 63  2  0  0  0  0
 27 31  1  0  0  0  0
 27 59  2  0  0  0  0
 28 43  1  0  0  0  0
 28 51  1  0  0  0  0
 28 68  2  0  0  0  0
 29 39  1  0  0  0  0
 29 46  2  0  0  0  0
 30 34  2  0  0  0  0
 30 56  1  0  0  0  0
 31 51  1  0  0  0  0
 32 40  1  0  0  0  0
 32 58  2  0  0  0  0
 32 67  1  0  0  0  0
 33 52  1  0  0  0  0
 34 57  1  0  0  0  0
 35 36  1  0  0  0  0
 35 45  1  0  0  0  0
 35 62  2  0  0  0  0
 36 49  1  0  0  0  0
 37 47  2  0  0  0  0
 38 50  1  0  0  0  0
 38 58  1  0  0  0  0
 39 50  1  0  0  0  0
 39 51  2  0  0  0  0
 40 43  1  0  0  0  0
 40 50  2  0  0  0  0
 41 59  1  0  0  0  0
 41 70  1  0  0  0  0
 42 56  1  0  0  0  0
 43 53  2  0  0  0  0
 44 70  2  0  0  0  0
 45 47  1  0  0  0  0
 46 64  1  0  0  0  0
 47 52  1  0  0  0  0
 48 66  2  0  0  0  0
 49 53  1  0  0  0  0
 49 67  2  0  0  0  0
 55 61  1  0  0  0  0
 55 64  2  0  0  0  0
 56 61  2  0  0  0  0
 57 62  1  0  0  0  0
 59 68  1  0  0  0  0
 60 63  1  0  0  0  0
 60 69  1  0  0  0  0
 61 63  1  0  0  0  0
 62 67  1  0  0  0  0
 64 69  1  0  0  0  0
 65 66  1  0  0  0  0
 66 70  1  0  0  0  0
M  END
> <PUBCHEM_COMPOUND_CID>
16131935

> <PUBCHEM_COMPOUND_CANONICALIZED>
1

> <PUBCHEM_CACTVS_COMPLEXITY>
4760

> <PUBCHEM_CACTVS_HBOND_ACCEPTOR>
0

> <PUBCHEM_CACTVS_HBOND_DONOR>
0

> <PUBCHEM_CACTVS_ROTATABLE_BOND>
0

> <PUBCHEM_CACTVS_SUBSKEYS>
AAADcQB8AAAAAAAAAAAAAAAAAAAAAQIECBAwQIECAAAAAAAAAAAACAAAAAAADAAAAAAAAAAAAACAAgBAAAAAAAAgAAAACAAAAAgIAAIAAAAAAAAAgAAIgAMAgIAAAAAAAAAAAAAAAAAAAAAAAAAAAAAAAA==

> <PUBCHEM_IUPAC_OPENEYE_NAME>
[70-D5h]fullerene

> <PUBCHEM_IUPAC_CAS_NAME>
(C70-D5h(6))[5,6]fullerene

> <PUBCHEM_IUPAC_NAME_MARKUP>
(C<SUB>70</SUB>-D<SUB>5h(6)</SUB>)[5,6]fullerene

> <PUBCHEM_IUPAC_NAME>
(C70-D5h(6))[5,6]fullerene

> <PUBCHEM_IUPAC_SYSTEMATIC_NAME>
(C70-D5h(6))[5,6]fullerene

> <PUBCHEM_IUPAC_TRADITIONAL_NAME>
[70]fullerene

> <PUBCHEM_IUPAC_INCHI>
InChI=1S/C70/c1-2-22-5-6-24-13-14-26-11-9-23-4-3(21(1)51-52(22)54(24)55(26)53(23)51)33-31(1)61-35-7-8-27-15-16-29-19-20-30-18-17-28-12-10(25(7)56-57(27)59(29)60(30)58(28)56)37(35)63(33)65-36(4)40(9)67(44(17)42(12)65)69-46(11)47(14)70(50(20)49(18)69)68-43(13)39(6)66(45(16)48(19)68)64-34(5)32(2)62(61)38(8)41(15)64

> <PUBCHEM_IUPAC_INCHIKEY>
ATLMFJTZZPOKLC-UHFFFAOYSA-N

> <PUBCHEM_XLOGP3_AA>
10.1

> <PUBCHEM_EXACT_MASS>
840

> <PUBCHEM_MOLECULAR_FORMULA>
C70

> <PUBCHEM_MOLECULAR_WEIGHT>
840.7

> <PUBCHEM_OPENEYE_CAN_SMILES>
C12=C3C4=C5C6=C7C8=C9C%10=C%11C%12=C%13C%10=C%10C8=C5C1=C%10C1=C%13C5=C8C1=C2C1=C3C2=C3C%10=C%13C%14=C3C1=C8C1=C3C5=C%12C5=C8C%11=C%11C9=C7C7=C9C6=C4C2=C2C%10=C4C(=C29)C2=C6C(=C8C8=C9C6=C4C%13=C9C(=C%141)C3=C85)C%11=C27

> <PUBCHEM_OPENEYE_ISO_SMILES>
C12=C3C4=C5C6=C7C8=C9C%10=C%11C%12=C%13C%10=C%10C8=C5C1=C%10C1=C%13C5=C8C1=C2C1=C3C2=C3C%10=C%13C%14=C3C1=C8C1=C3C5=C%12C5=C8C%11=C%11C9=C7C7=C9C6=C4C2=C2C%10=C4C(=C29)C2=C6C(=C8C8=C9C6=C4C%13=C9C(=C%141)C3=C85)C%11=C27

> <PUBCHEM_CACTVS_TPSA>
0

> <PUBCHEM_MONOISOTOPIC_WEIGHT>
840

> <PUBCHEM_TOTAL_CHARGE>
0

> <PUBCHEM_HEAVY_ATOM_COUNT>
70

> <PUBCHEM_ATOM_DEF_STEREO_COUNT>
0

> <PUBCHEM_ATOM_UDEF_STEREO_COUNT>
0

> <PUBCHEM_BOND_DEF_STEREO_COUNT>
0

> <PUBCHEM_BOND_UDEF_STEREO_COUNT>
0

> <PUBCHEM_ISOTOPIC_ATOM_COUNT>
0

> <PUBCHEM_COMPONENT_COUNT>
1

> <PUBCHEM_CACTVS_TAUTO_COUNT>
-1

> <PUBCHEM_COORDINATE_TYPE>
1
5
255

> <PUBCHEM_BONDANNOTATIONS>
1  16  8
1  21  8
1  30  8
10  24  8
11  17  8
11  20  8
11  42  8
12  33  8
12  37  8
12  48  8
13  16  8
13  38  8
13  46  8
14  18  8
14  69  8
15  19  8
15  65  8
16  55  8
17  52  8
17  54  8
18  29  8
18  31  8
19  26  8
2  14  8
2  23  8
2  3  8
20  34  8
20  45  8
21  57  8
21  58  8
22  25  8
22  42  8
22  54  8
23  27  8
23  44  8
24  36  8
24  37  8
25  26  8
25  63  8
27  31  8
27  59  8
28  43  8
28  51  8
28  68  8
29  39  8
29  46  8
3  4  8
3  5  8
30  34  8
30  56  8
31  51  8
32  40  8
32  58  8
32  67  8
33  52  8
34  57  8
35  36  8
35  45  8
35  62  8
36  49  8
37  47  8
38  50  8
38  58  8
39  50  8
39  51  8
4  15  8
4  44  8
40  43  8
40  50  8
41  59  8
41  70  8
42  56  8
43  53  8
44  70  8
45  47  8
46  64  8
47  52  8
48  66  8
49  53  8
49  67  8
5  26  8
5  60  8
55  61  8
55  64  8
56  61  8
57  62  8
59  68  8
6  19  8
6  54  8
6  7  8
60  63  8
60  69  8
61  63  8
62  67  8
64  69  8
65  66  8
66  70  8
7  33  8
7  65  8
8  10  8
8  53  8
8  68  8
9  10  8
9  41  8
9  48  8

$$$$
