102311
  -OEChem-11012400373D

 86 90  0     0  0  0  0  0  0999 V2000
    1.7988    0.9892   -0.0546 N   0  0  0  0  0  0  0  0  0  0  0  0
    1.0755   -1.9527   -0.3833 N   0  0  0  0  0  0  0  0  0  0  0  0
   -0.9911    1.7455   -0.0051 N   0  0  0  0  0  0  0  0  0  0  0  0
   -1.7201   -1.0392   -0.0383 N   0  0  0  0  0  0  0  0  0  0  0  0
    3.9817    1.4250   -0.4288 C   0  0  0  0  0  0  0  0  0  0  0  0
    2.5596   -3.2828    0.5845 C   0  0  0  0  0  0  0  0  0  0  0  0
    3.3319    2.6127   -0.3961 C   0  0  0  0  0  0  0  0  0  0  0  0
    1.3253   -3.9687    0.5038 C   0  0  0  0  0  0  0  0  0  0  0  0
    3.0003    0.3448   -0.2118 C   0  0  0  0  0  0  0  0  0  0  0  0
    2.3835   -2.0234    0.0425 C   0  0  0  0  0  0  0  0  0  0  0  0
    1.9051    2.3545   -0.1589 C   0  0  0  0  0  0  0  0  0  0  0  0
    0.4078   -3.1191   -0.0825 C   0  0  0  0  0  0  0  0  0  0  0  0
    3.3033   -0.9636   -0.1710 C   0  0  0  0  0  0  0  0  0  0  0  0
   -1.4354    3.9847    0.5176 C   0  0  0  0  0  0  0  0  0  0  0  0
   -3.3012   -2.5404   -0.7484 C   0  0  0  0  0  0  0  0  0  0  0  0
    5.4348    1.1688   -0.6431 C   0  0  0  0  0  0  0  0  0  0  0  0
    3.8168   -3.8252    1.1454 C   0  0  0  0  0  0  0  0  0  0  0  0
   -0.4727    2.9300    0.1404 C   0  0  0  0  0  0  0  0  0  0  0  0
   -1.8961   -2.3514   -0.4172 C   0  0  0  0  0  0  0  0  0  0  0  0
   -2.5787    3.2869    0.5844 C   0  0  0  0  0  0  0  0  0  0  0  0
   -3.9740   -1.3944   -0.5734 C   0  0  0  0  0  0  0  0  0  0  0  0
    3.8859    3.9864   -0.5628 C   0  0  0  0  0  0  0  0  0  0  0  0
    1.0671   -5.3500    0.9659 C   0  0  0  0  0  0  0  0  0  0  0  0
    0.9493    3.2915   -0.0682 C   0  0  0  0  0  0  0  0  0  0  0  0
   -0.9516   -3.3069   -0.4411 C   0  0  0  0  0  0  0  0  0  0  0  0
   -2.3304    1.8904    0.2630 C   0  0  0  0  0  0  0  0  0  0  0  0
   -2.8966   -0.4888   -0.1238 C   0  0  0  0  0  0  0  0  0  0  0  0
   -3.2460    0.9120    0.2170 C   0  0  0  0  0  0  0  0  0  0  0  0
   -1.1289    5.4125    0.7563 C   0  0  0  0  0  0  0  0  0  0  0  0
   -3.8519   -3.8480   -1.2108 C   0  0  0  0  0  0  0  0  0  0  0  0
   -3.9355    3.8023    0.9298 C   0  0  0  0  0  0  0  0  0  0  0  0
   -5.3968   -1.0390   -0.7750 C   0  0  0  0  0  0  0  0  0  0  0  0
    6.2085    1.1529    0.6644 C   0  0  0  0  0  0  0  0  0  0  0  0
    4.6824   -4.5353    0.1033 C   0  0  0  0  0  0  0  0  0  0  0  0
    3.8799    4.4302   -2.0160 C   0  0  0  0  0  0  0  0  0  0  0  0
    0.6064   -5.4201    2.4229 C   0  0  0  0  0  0  0  0  0  0  0  0
   -1.2593    6.2530   -0.5079 C   0  0  0  0  0  0  0  0  0  0  0  0
   -3.7953   -3.9850   -2.7224 C   0  0  0  0  0  0  0  0  0  0  0  0
   -4.2080    3.7288    2.4224 C   0  0  0  0  0  0  0  0  0  0  0  0
   -6.2345   -1.2679    0.4766 C   0  0  0  0  0  0  0  0  0  0  0  0
    4.3409   -1.2702   -0.2677 H   0  0  0  0  0  0  0  0  0  0  0  0
    0.9299    0.5277    0.1630 H   0  0  0  0  0  0  0  0  0  0  0  0
    0.6666   -1.1699   -0.8748 H   0  0  0  0  0  0  0  0  0  0  0  0
    5.8528    1.9622   -1.2755 H   0  0  0  0  0  0  0  0  0  0  0  0
    5.6080    0.2449   -1.2046 H   0  0  0  0  0  0  0  0  0  0  0  0
    4.4048   -3.0185    1.6007 H   0  0  0  0  0  0  0  0  0  0  0  0
    3.6010   -4.5243    1.9617 H   0  0  0  0  0  0  0  0  0  0  0  0
    3.3599    4.7152    0.0628 H   0  0  0  0  0  0  0  0  0  0  0  0
    4.9229    4.0052   -0.2047 H   0  0  0  0  0  0  0  0  0  0  0  0
    1.9678   -5.9645    0.8514 H   0  0  0  0  0  0  0  0  0  0  0  0
    0.3087   -5.8279    0.3345 H   0  0  0  0  0  0  0  0  0  0  0  0
    1.1855    4.3425   -0.1771 H   0  0  0  0  0  0  0  0  0  0  0  0
   -1.2234   -4.3216   -0.7160 H   0  0  0  0  0  0  0  0  0  0  0  0
   -4.2855    1.1161    0.4437 H   0  0  0  0  0  0  0  0  0  0  0  0
   -0.1326    5.5376    1.1931 H   0  0  0  0  0  0  0  0  0  0  0  0
   -1.8225    5.8121    1.5067 H   0  0  0  0  0  0  0  0  0  0  0  0
   -3.3574   -4.6970   -0.7279 H   0  0  0  0  0  0  0  0  0  0  0  0
   -4.9026   -3.9264   -0.9030 H   0  0  0  0  0  0  0  0  0  0  0  0
   -4.0137    4.8526    0.6208 H   0  0  0  0  0  0  0  0  0  0  0  0
   -4.7225    3.2858    0.3699 H   0  0  0  0  0  0  0  0  0  0  0  0
   -5.8136   -1.6515   -1.5840 H   0  0  0  0  0  0  0  0  0  0  0  0
   -5.5025   -0.0038   -1.1165 H   0  0  0  0  0  0  0  0  0  0  0  0
    6.1028    2.0998    1.2045 H   0  0  0  0  0  0  0  0  0  0  0  0
    5.8657    0.3465    1.3213 H   0  0  0  0  0  0  0  0  0  0  0  0
    7.2744    0.9959    0.4692 H   0  0  0  0  0  0  0  0  0  0  0  0
    4.1491   -5.3794   -0.3461 H   0  0  0  0  0  0  0  0  0  0  0  0
    5.5963   -4.9176    0.5687 H   0  0  0  0  0  0  0  0  0  0  0  0
    4.9703   -3.8523   -0.7029 H   0  0  0  0  0  0  0  0  0  0  0  0
    2.8610    4.4774   -2.4143 H   0  0  0  0  0  0  0  0  0  0  0  0
    4.4604    3.7477   -2.6459 H   0  0  0  0  0  0  0  0  0  0  0  0
    4.3218    5.4278   -2.1068 H   0  0  0  0  0  0  0  0  0  0  0  0
    0.4343   -6.4608    2.7153 H   0  0  0  0  0  0  0  0  0  0  0  0
   -0.3272   -4.8661    2.5671 H   0  0  0  0  0  0  0  0  0  0  0  0
    1.3572   -4.9953    3.0973 H   0  0  0  0  0  0  0  0  0  0  0  0
   -0.5593    5.9202   -1.2814 H   0  0  0  0  0  0  0  0  0  0  0  0
   -2.2728    6.1980   -0.9194 H   0  0  0  0  0  0  0  0  0  0  0  0
   -1.0427    7.3028   -0.2858 H   0  0  0  0  0  0  0  0  0  0  0  0
   -4.3500   -3.1819   -3.2193 H   0  0  0  0  0  0  0  0  0  0  0  0
   -2.7627   -3.9611   -3.0864 H   0  0  0  0  0  0  0  0  0  0  0  0
   -4.2375   -4.9378   -3.0311 H   0  0  0  0  0  0  0  0  0  0  0  0
   -5.1965    4.1431    2.6455 H   0  0  0  0  0  0  0  0  0  0  0  0
   -3.4685    4.3001    2.9936 H   0  0  0  0  0  0  0  0  0  0  0  0
   -4.1896    2.6941    2.7807 H   0  0  0  0  0  0  0  0  0  0  0  0
   -6.2011   -2.3165    0.7911 H   0  0  0  0  0  0  0  0  0  0  0  0
   -5.8834   -0.6516    1.3107 H   0  0  0  0  0  0  0  0  0  0  0  0
   -7.2800   -1.0082    0.2823 H   0  0  0  0  0  0  0  0  0  0  0  0
  1  9  1  0  0  0  0
  1 11  1  0  0  0  0
  1 42  1  0  0  0  0
  2 10  1  0  0  0  0
  2 12  1  0  0  0  0
  2 43  1  0  0  0  0
  3 18  2  0  0  0  0
  3 26  1  0  0  0  0
  4 19  1  0  0  0  0
  4 27  2  0  0  0  0
  5  7  2  0  0  0  0
  5  9  1  0  0  0  0
  5 16  1  0  0  0  0
  6  8  1  0  0  0  0
  6 10  2  0  0  0  0
  6 17  1  0  0  0  0
  7 11  1  0  0  0  0
  7 22  1  0  0  0  0
  8 12  2  0  0  0  0
  8 23  1  0  0  0  0
  9 13  2  0  0  0  0
 10 13  1  0  0  0  0
 11 24  2  0  0  0  0
 12 25  1  0  0  0  0
 13 41  1  0  0  0  0
 14 18  1  0  0  0  0
 14 20  2  0  0  0  0
 14 29  1  0  0  0  0
 15 19  1  0  0  0  0
 15 21  2  0  0  0  0
 15 30  1  0  0  0  0
 16 33  1  0  0  0  0
 16 44  1  0  0  0  0
 16 45  1  0  0  0  0
 17 34  1  0  0  0  0
 17 46  1  0  0  0  0
 17 47  1  0  0  0  0
 18 24  1  0  0  0  0
 19 25  2  0  0  0  0
 20 26  1  0  0  0  0
 20 31  1  0  0  0  0
 21 27  1  0  0  0  0
 21 32  1  0  0  0  0
 22 35  1  0  0  0  0
 22 48  1  0  0  0  0
 22 49  1  0  0  0  0
 23 36  1  0  0  0  0
 23 50  1  0  0  0  0
 23 51  1  0  0  0  0
 24 52  1  0  0  0  0
 25 53  1  0  0  0  0
 26 28  2  0  0  0  0
 27 28  1  0  0  0  0
 28 54  1  0  0  0  0
 29 37  1  0  0  0  0
 29 55  1  0  0  0  0
 29 56  1  0  0  0  0
 30 38  1  0  0  0  0
 30 57  1  0  0  0  0
 30 58  1  0  0  0  0
 31 39  1  0  0  0  0
 31 59  1  0  0  0  0
 31 60  1  0  0  0  0
 32 40  1  0  0  0  0
 32 61  1  0  0  0  0
 32 62  1  0  0  0  0
 33 63  1  0  0  0  0
 33 64  1  0  0  0  0
 33 65  1  0  0  0  0
 34 66  1  0  0  0  0
 34 67  1  0  0  0  0
 34 68  1  0  0  0  0
 35 69  1  0  0  0  0
 35 70  1  0  0  0  0
 35 71  1  0  0  0  0
 36 72  1  0  0  0  0
 36 73  1  0  0  0  0
 36 74  1  0  0  0  0
 37 75  1  0  0  0  0
 37 76  1  0  0  0  0
 37 77  1  0  0  0  0
 38 78  1  0  0  0  0
 38 79  1  0  0  0  0
 38 80  1  0  0  0  0
 39 81  1  0  0  0  0
 39 82  1  0  0  0  0
 39 83  1  0  0  0  0
 40 84  1  0  0  0  0
 40 85  1  0  0  0  0
 40 86  1  0  0  0  0
M  END
> <PUBCHEM_COMPOUND_CID>
102311

> <PUBCHEM_CONFORMER_RMSD>
1

> <PUBCHEM_CONFORMER_DIVERSEORDER>
1
2

> <PUBCHEM_MMFF94_PARTIAL_CHARGES>
38
1 -0.6
10 -0.2
11 0.1
12 -0.2
13 -0.11
14 -0.12
15 -0.14
16 0.14
17 0.18
18 0.42
19 0.17
2 0.03
20 -0.14
21 -0.12
22 0.14
23 0.18
24 -0.14
25 -0.11
26 0.17
27 0.42
28 -0.14
29 0.14
3 -0.62
30 0.14
31 0.14
32 0.14
4 -0.62
41 0.15
42 0.4
43 0.27
5 -0.14
52 0.15
53 0.15
54 0.15
6 -0.18
7 -0.14
8 -0.18
9 0.1

> <PUBCHEM_EFFECTIVE_ROTOR_COUNT>
8

> <PUBCHEM_PHARMACOPHORE_FEATURES>
18
1 1 cation
1 1 donor
1 2 cation
1 2 donor
1 3 acceptor
1 33 hydrophobe
1 34 hydrophobe
1 35 hydrophobe
1 36 hydrophobe
1 37 hydrophobe
1 38 hydrophobe
1 39 hydrophobe
1 4 acceptor
1 40 hydrophobe
5 1 5 7 9 11 rings
5 2 6 8 10 12 rings
5 3 14 18 20 26 rings
5 4 15 19 21 27 rings

> <PUBCHEM_HEAVY_ATOM_COUNT>
40

> <PUBCHEM_ATOM_DEF_STEREO_COUNT>
0

> <PUBCHEM_ATOM_UDEF_STEREO_COUNT>
0

> <PUBCHEM_BOND_DEF_STEREO_COUNT>
0

> <PUBCHEM_BOND_UDEF_STEREO_COUNT>
0

> <PUBCHEM_ISOTOPIC_ATOM_COUNT>
0

> <PUBCHEM_COMPONENT_COUNT>
1

> <PUBCHEM_CACTVS_TAUTO_COUNT>
2

> <PUBCHEM_CONFORMER_ID>
00018FA700000001

> <PUBCHEM_MMFF94_ENERGY>
79.9256

> <PUBCHEM_FEATURE_SELFOVERLAP>
91.357

> <PUBCHEM_SHAPE_FINGERPRINT>
10439779 11 18341039732309306168
10675989 125 18409158922725272973
10940486 97 18122627150473171076
1100329 8 18050851018405719302
11445158 3 17830187813614148189
11513181 2 18059577919167387623
12788726 201 18126295374292364916
14068700 675 17985265424513123773
14394314 77 18268144434401075073
15320467 1 18339080492134023604
15351339 4 18263905791575466691
15890870 6 18191022502595112671
15927050 60 18268150860447161630
15968369 26 16539876223472851365
16067689 391 17840344247807038740
16993438 75 17394453940959460498
17627616 140 18335978765716909654
19311894 1 18051980508995320886
20028762 73 18341610486497814142
20764821 26 18050006885053127181
21133410 171 17692478560238104062
23559900 14 16973076074117639693
3388396 114 18268973401748670742
3882209 13 17979312530799579374
437795 70 18127719148035866286
437795 96 16318937487975683825
4461854 278 17695916527355960283
463206 1 18050570943208409237
50080093 196 18116421553843146666
6371009 1 18337379565437711456
653340 110 18342166774598750368
9961470 85 18124860283889931328

> <PUBCHEM_SHAPE_MULTIPOLES>
803.26
11.01
10.85
1.47
0.87
1.77
0.02
-0.26
-1.12
0.68
1.84
-0.99
-0.75
-5.7

> <PUBCHEM_SHAPE_SELFOVERLAP>
1732.224

> <PUBCHEM_SHAPE_VOLUME>
451.8

> <PUBCHEM_COORDINATE_TYPE>
2
5
10

$$$$
