142347
  -OEChem-11012401103D

 52 51  0     0  0  0  0  0  0999 V2000
    0.5919    0.1883    0.6276 N   0  0  0  0  0  0  0  0  0  0  0  0
   -0.5968   -0.1793    0.6282 N   0  0  0  0  0  0  0  0  0  0  0  0
    3.6259    0.3213   -0.4873 C   0  0  0  0  0  0  0  0  0  0  0  0
   -3.6251   -0.3240   -0.4864 C   0  0  0  0  0  0  0  0  0  0  0  0
    1.5062   -0.9642    0.6292 C   0  0  0  0  0  0  0  0  0  0  0  0
   -1.5058    0.9658    0.6259 C   0  0  0  0  0  0  0  0  0  0  0  0
    2.9731   -0.4657    0.6919 C   0  0  0  0  0  0  0  0  0  0  0  0
   -2.9725    0.4671    0.6902 C   0  0  0  0  0  0  0  0  0  0  0  0
    4.7514    1.2614   -0.0345 C   0  0  0  0  0  0  0  0  0  0  0  0
    4.2415   -0.7239   -1.4492 C   0  0  0  0  0  0  0  0  0  0  0  0
    2.5850    1.1165   -1.2962 C   0  0  0  0  0  0  0  0  0  0  0  0
   -2.5839   -1.1216   -1.2927 C   0  0  0  0  0  0  0  0  0  0  0  0
   -4.7503   -1.2629   -0.0306 C   0  0  0  0  0  0  0  0  0  0  0  0
   -4.2409    0.7178   -1.4519 C   0  0  0  0  0  0  0  0  0  0  0  0
    1.2026   -1.7661    1.9075 C   0  0  0  0  0  0  0  0  0  0  0  0
    1.1725   -1.8288   -0.5836 C   0  0  0  0  0  0  0  0  0  0  0  0
   -1.2026    1.7720    1.9016 C   0  0  0  0  0  0  0  0  0  0  0  0
   -1.1723    1.8265   -0.5898 C   0  0  0  0  0  0  0  0  0  0  0  0
    3.0320    0.1941    1.5712 H   0  0  0  0  0  0  0  0  0  0  0  0
    3.6233   -1.3161    0.9421 H   0  0  0  0  0  0  0  0  0  0  0  0
   -3.0317   -0.1895    1.5719 H   0  0  0  0  0  0  0  0  0  0  0  0
   -3.6228    1.3183    0.9373 H   0  0  0  0  0  0  0  0  0  0  0  0
    5.2349    1.7535   -0.8857 H   0  0  0  0  0  0  0  0  0  0  0  0
    5.5221    0.7124    0.5178 H   0  0  0  0  0  0  0  0  0  0  0  0
    4.3623    2.0440    0.6263 H   0  0  0  0  0  0  0  0  0  0  0  0
    3.4900   -1.3845   -1.8880 H   0  0  0  0  0  0  0  0  0  0  0  0
    4.9825   -1.3481   -0.9369 H   0  0  0  0  0  0  0  0  0  0  0  0
    4.7552   -0.2302   -2.2829 H   0  0  0  0  0  0  0  0  0  0  0  0
    3.0847    1.6833   -2.0927 H   0  0  0  0  0  0  0  0  0  0  0  0
    2.0894    1.8588   -0.6628 H   0  0  0  0  0  0  0  0  0  0  0  0
    1.8318    0.5145   -1.7982 H   0  0  0  0  0  0  0  0  0  0  0  0
   -3.0834   -1.6916   -2.0871 H   0  0  0  0  0  0  0  0  0  0  0  0
   -2.0877   -1.8612   -0.6568 H   0  0  0  0  0  0  0  0  0  0  0  0
   -1.8311   -0.5209   -1.7971 H   0  0  0  0  0  0  0  0  0  0  0  0
   -4.3610   -2.0432    0.6327 H   0  0  0  0  0  0  0  0  0  0  0  0
   -5.5212   -0.7124    0.5198 H   0  0  0  0  0  0  0  0  0  0  0  0
   -5.2336   -1.7580   -0.8802 H   0  0  0  0  0  0  0  0  0  0  0  0
   -4.7546    0.2211   -2.2840 H   0  0  0  0  0  0  0  0  0  0  0  0
   -4.9820    1.3436   -0.9419 H   0  0  0  0  0  0  0  0  0  0  0  0
   -3.4895    1.3770   -1.8930 H   0  0  0  0  0  0  0  0  0  0  0  0
    0.1863   -2.1766    1.9234 H   0  0  0  0  0  0  0  0  0  0  0  0
    1.8902   -2.6141    2.0066 H   0  0  0  0  0  0  0  0  0  0  0  0
    1.3133   -1.1405    2.8013 H   0  0  0  0  0  0  0  0  0  0  0  0
    0.2213   -2.3591   -0.4559 H   0  0  0  0  0  0  0  0  0  0  0  0
    1.9304   -2.6096   -0.7142 H   0  0  0  0  0  0  0  0  0  0  0  0
    1.0838   -1.2818   -1.5219 H   0  0  0  0  0  0  0  0  0  0  0  0
   -0.1871    2.1848    1.9161 H   0  0  0  0  0  0  0  0  0  0  0  0
   -1.8915    2.6192    1.9983 H   0  0  0  0  0  0  0  0  0  0  0  0
   -1.3120    1.1492    2.7975 H   0  0  0  0  0  0  0  0  0  0  0  0
   -0.2221    2.3590   -0.4639 H   0  0  0  0  0  0  0  0  0  0  0  0
   -1.9311    2.6058   -0.7234 H   0  0  0  0  0  0  0  0  0  0  0  0
   -1.0827    1.2765   -1.5264 H   0  0  0  0  0  0  0  0  0  0  0  0
  1  2  2  0  0  0  0
  1  5  1  0  0  0  0
  2  6  1  0  0  0  0
  3  7  1  0  0  0  0
  3  9  1  0  0  0  0
  3 10  1  0  0  0  0
  3 11  1  0  0  0  0
  4  8  1  0  0  0  0
  4 12  1  0  0  0  0
  4 13  1  0  0  0  0
  4 14  1  0  0  0  0
  5  7  1  0  0  0  0
  5 15  1  0  0  0  0
  5 16  1  0  0  0  0
  6  8  1  0  0  0  0
  6 17  1  0  0  0  0
  6 18  1  0  0  0  0
  7 19  1  0  0  0  0
  7 20  1  0  0  0  0
  8 21  1  0  0  0  0
  8 22  1  0  0  0  0
  9 23  1  0  0  0  0
  9 24  1  0  0  0  0
  9 25  1  0  0  0  0
 10 26  1  0  0  0  0
 10 27  1  0  0  0  0
 10 28  1  0  0  0  0
 11 29  1  0  0  0  0
 11 30  1  0  0  0  0
 11 31  1  0  0  0  0
 12 32  1  0  0  0  0
 12 33  1  0  0  0  0
 12 34  1  0  0  0  0
 13 35  1  0  0  0  0
 13 36  1  0  0  0  0
 13 37  1  0  0  0  0
 14 38  1  0  0  0  0
 14 39  1  0  0  0  0
 14 40  1  0  0  0  0
 15 41  1  0  0  0  0
 15 42  1  0  0  0  0
 15 43  1  0  0  0  0
 16 44  1  0  0  0  0
 16 45  1  0  0  0  0
 16 46  1  0  0  0  0
 17 47  1  0  0  0  0
 17 48  1  0  0  0  0
 17 49  1  0  0  0  0
 18 50  1  0  0  0  0
 18 51  1  0  0  0  0
 18 52  1  0  0  0  0
M  END
> <PUBCHEM_COMPOUND_CID>
142347

> <PUBCHEM_CONFORMER_RMSD>
0.8

> <PUBCHEM_CONFORMER_DIVERSEORDER>
1
16
15
13
3
18
17
14
5
10
11
12
9
4
2
7
6
8

> <PUBCHEM_MMFF94_PARTIAL_CHARGES>
4
1 -0.25
2 -0.25
5 0.25
6 0.25

> <PUBCHEM_EFFECTIVE_ROTOR_COUNT>
6

> <PUBCHEM_PHARMACOPHORE_FEATURES>
4
3 5 15 16 hydrophobe
3 6 17 18 hydrophobe
4 3 9 10 11 hydrophobe
4 4 12 13 14 hydrophobe

> <PUBCHEM_HEAVY_ATOM_COUNT>
18

> <PUBCHEM_ATOM_DEF_STEREO_COUNT>
0

> <PUBCHEM_ATOM_UDEF_STEREO_COUNT>
0

> <PUBCHEM_BOND_DEF_STEREO_COUNT>
0

> <PUBCHEM_BOND_UDEF_STEREO_COUNT>
0

> <PUBCHEM_ISOTOPIC_ATOM_COUNT>
0

> <PUBCHEM_COMPONENT_COUNT>
1

> <PUBCHEM_CACTVS_TAUTO_COUNT>
1

> <PUBCHEM_CONFORMER_ID>
00022C0B00000001

> <PUBCHEM_MMFF94_ENERGY>
70.5222

> <PUBCHEM_FEATURE_SELFOVERLAP>
20.3

> <PUBCHEM_SHAPE_FINGERPRINT>
10366900 7 15936413346738718374
10498660 4 18410008814773895085
10646746 165 14129054803186370206
11725454 13 15647322095699918040
12119455 92 16443058426593610626
121448 382 18187085104264504970
124424 183 15502375634369340516
12500047 106 13767935653909581776
12553582 1 17917700319359275075
12714826 92 15051457063616473672
12788726 201 18057032516022590209
128620 24 18410856563934763423
12892183 10 9295289443175999909
13224815 77 18410575080368111763
13583140 156 15502664857372263912
14004511 7 12035446129757198353
14251732 17 13840806830448223254
14251764 30 17489596700777344791
15239191 94 15554441881735698199
15415430 112 18201994473769095375
15527383 91 14045743733408186203
15852999 172 15357702963384837568
16752209 62 17845358969701119525
17349148 13 17458336429847727632
17834072 14 15647055953761735612
17959699 21 17168978994237908269
1813 80 16702306788602327033
18186145 218 18113912554254762482
18915474 69 18060137656426910702
192875 21 17821720612017757800
19862831 5 18410292510174740549
200 152 18187079555166459221
20339313 130 12679457590990152674
20645476 183 18334006212177069463
20871999 31 18059852849035710341
212916 134 13335009555831860773
21524375 3 18334862727619045914
22094290 60 17275108301388071328
23402539 116 18186514415053991212
23402655 69 18187080611670528421
23419403 2 17905625641102024345
23557571 272 17703498909854033072
23559900 14 17751622282838323834
23598291 2 17976541615568493946
238078 22 18200875188127660731
2871803 45 18060698368686585407
296302 2 16950280689517212007
312423 11 18264211296598397098
328317 168 17458627843162320788
3286 77 17989210313751921196
3323516 105 16773800294478094246
351380 180 14851596708820966814
474 4 17603589633801273300
548570 60 15647050477667877238
603831 33 18409440363083353571
6049 1 15697704913940289793
633830 44 18189636989533068872
7615 1 18043805377532330536
83771 10 15626224615051871244

> <PUBCHEM_SHAPE_MULTIPOLES>
360.47
9.12
1.88
1.65
0.01
0
0.28
-0.01
-3.54
0
0.28
0
0
-0.54

> <PUBCHEM_SHAPE_SELFOVERLAP>
687.168

> <PUBCHEM_SHAPE_VOLUME>
225.2

> <PUBCHEM_COORDINATE_TYPE>
2
5
10

$$$$
