2733293
  -OEChem-11012400393D

 17 17  0     1  0  0  0  0  0999 V2000
   -0.2455    1.5620   -0.7906 O   0  0  0  0  0  0  0  0  0  0  0  0
   -2.0775   -0.3613    0.0585 O   0  0  0  0  0  0  0  0  0  0  0  0
   -0.0178    0.8971    0.4478 C   0  0  1  0  0  0  0  0  0  0  0  0
   -0.7337   -0.4473    0.4866 C   0  0  2  0  0  0  0  0  0  0  0  0
    1.4473    0.4872    0.5220 C   0  0  0  0  0  0  0  0  0  0  0  0
    0.0951   -1.3159   -0.4502 C   0  0  0  0  0  0  0  0  0  0  0  0
    1.5321   -0.8219   -0.2742 C   0  0  0  0  0  0  0  0  0  0  0  0
   -0.3163    1.5673    1.2589 H   0  0  0  0  0  0  0  0  0  0  0  0
   -0.7105   -0.8668    1.4998 H   0  0  0  0  0  0  0  0  0  0  0  0
    1.7325    0.2956    1.5631 H   0  0  0  0  0  0  0  0  0  0  0  0
    2.1232    1.2430    0.1098 H   0  0  0  0  0  0  0  0  0  0  0  0
   -0.2295   -1.1951   -1.4910 H   0  0  0  0  0  0  0  0  0  0  0  0
   -0.0058   -2.3795   -0.2106 H   0  0  0  0  0  0  0  0  0  0  0  0
    1.9976   -0.6568   -1.2521 H   0  0  0  0  0  0  0  0  0  0  0  0
    2.1441   -1.5564    0.2602 H   0  0  0  0  0  0  0  0  0  0  0  0
   -1.2039    1.7074   -0.8678 H   0  0  0  0  0  0  0  0  0  0  0  0
   -2.5296    0.2708    0.6431 H   0  0  0  0  0  0  0  0  0  0  0  0
  1  3  1  0  0  0  0
  1 16  1  0  0  0  0
  2  4  1  0  0  0  0
  2 17  1  0  0  0  0
  3  4  1  0  0  0  0
  3  5  1  0  0  0  0
  3  8  1  0  0  0  0
  4  6  1  0  0  0  0
  4  9  1  0  0  0  0
  5  7  1  0  0  0  0
  5 10  1  0  0  0  0
  5 11  1  0  0  0  0
  6  7  1  0  0  0  0
  6 12  1  0  0  0  0
  6 13  1  0  0  0  0
  7 14  1  0  0  0  0
  7 15  1  0  0  0  0
M  END
> <PUBCHEM_COMPOUND_CID>
2733293

> <PUBCHEM_CONFORMER_RMSD>
0.4

> <PUBCHEM_CONFORMER_DIVERSEORDER>
1
2

> <PUBCHEM_MMFF94_PARTIAL_CHARGES>
6
1 -0.68
16 0.4
17 0.4
2 -0.68
3 0.28
4 0.28

> <PUBCHEM_EFFECTIVE_ROTOR_COUNT>
1

> <PUBCHEM_PHARMACOPHORE_FEATURES>
5
1 1 acceptor
1 1 donor
1 2 acceptor
1 2 donor
5 3 4 5 6 7 rings

> <PUBCHEM_HEAVY_ATOM_COUNT>
7

> <PUBCHEM_ATOM_DEF_STEREO_COUNT>
2

> <PUBCHEM_ATOM_UDEF_STEREO_COUNT>
0

> <PUBCHEM_BOND_DEF_STEREO_COUNT>
0

> <PUBCHEM_BOND_UDEF_STEREO_COUNT>
0

> <PUBCHEM_ISOTOPIC_ATOM_COUNT>
0

> <PUBCHEM_COMPONENT_COUNT>
1

> <PUBCHEM_CACTVS_TAUTO_COUNT>
1

> <PUBCHEM_CONFORMER_ID>
0029B4ED00000001

> <PUBCHEM_MMFF94_ENERGY>
14.7096

> <PUBCHEM_FEATURE_SELFOVERLAP>
25.38

> <PUBCHEM_SHAPE_FINGERPRINT>
137420 1 8091641299680798210
16714656 1 18339651121874040158
20096714 4 17905892830859167529
21040471 1 18055636371691895514
29004967 10 18261399982783787827
5943 1 10361776565007513544

> <PUBCHEM_SHAPE_MULTIPOLES>
132.32
1.84
1.44
0.81
0.29
0.11
0.04
-0.3
-0.12
-0.08
0.27
-0.02
0.13
0.18

> <PUBCHEM_SHAPE_SELFOVERLAP>
259.014

> <PUBCHEM_SHAPE_VOLUME>
81.3

> <PUBCHEM_COORDINATE_TYPE>
2
5
10

$$$$
