138566
  -OEChem-11012400533D

 26 25  0     0  0  0  0  0  0999 V2000
    2.7840   -0.0717    0.4027 O   0  0  0  0  0  0  0  0  0  0  0  0
    1.9274   -0.2099   -1.6883 O   0  0  0  0  0  0  0  0  0  0  0  0
   -2.7332   -1.0745   -0.1490 O   0  0  0  0  0  0  0  0  0  0  0  0
   -2.6870    1.1923   -0.0837 O   0  0  0  0  0  0  0  0  0  0  0  0
    0.3885    0.0132    0.2203 C   0  0  0  0  0  0  0  0  0  0  0  0
    0.2156   -1.2234    1.1536 C   0  0  0  0  0  0  0  0  0  0  0  0
    0.3647    1.3215    1.0658 C   0  0  0  0  0  0  0  0  0  0  0  0
   -0.7218    0.0070   -0.8657 C   0  0  0  0  0  0  0  0  0  0  0  0
    1.7530   -0.1172   -0.4805 C   0  0  0  0  0  0  0  0  0  0  0  0
    0.2061   -2.5816    0.4568 C   0  0  0  0  0  0  0  0  0  0  0  0
    0.6369    2.6152    0.3006 C   0  0  0  0  0  0  0  0  0  0  0  0
   -2.1342    0.1290   -0.3326 C   0  0  0  0  0  0  0  0  0  0  0  0
    1.0255   -1.2364    1.8949 H   0  0  0  0  0  0  0  0  0  0  0  0
   -0.7103   -1.1233    1.7336 H   0  0  0  0  0  0  0  0  0  0  0  0
   -0.5985    1.4148    1.5814 H   0  0  0  0  0  0  0  0  0  0  0  0
    1.1156    1.2494    1.8638 H   0  0  0  0  0  0  0  0  0  0  0  0
   -0.6665   -0.8855   -1.5012 H   0  0  0  0  0  0  0  0  0  0  0  0
   -0.5780    0.8362   -1.5708 H   0  0  0  0  0  0  0  0  0  0  0  0
   -0.6571   -2.7080   -0.2003 H   0  0  0  0  0  0  0  0  0  0  0  0
    0.1576   -3.3776    1.2077 H   0  0  0  0  0  0  0  0  0  0  0  0
    1.1154   -2.7396   -0.1304 H   0  0  0  0  0  0  0  0  0  0  0  0
    0.6332    3.4632    0.9934 H   0  0  0  0  0  0  0  0  0  0  0  0
   -0.1317    2.8036   -0.4541 H   0  0  0  0  0  0  0  0  0  0  0  0
    1.6125    2.5948   -0.1935 H   0  0  0  0  0  0  0  0  0  0  0  0
    3.6533   -0.1339   -0.0473 H   0  0  0  0  0  0  0  0  0  0  0  0
   -3.6446   -0.9801    0.2011 H   0  0  0  0  0  0  0  0  0  0  0  0
  1  9  1  0  0  0  0
  1 25  1  0  0  0  0
  2  9  2  0  0  0  0
  3 12  1  0  0  0  0
  3 26  1  0  0  0  0
  4 12  2  0  0  0  0
  5  6  1  0  0  0  0
  5  7  1  0  0  0  0
  5  8  1  0  0  0  0
  5  9  1  0  0  0  0
  6 10  1  0  0  0  0
  6 13  1  0  0  0  0
  6 14  1  0  0  0  0
  7 11  1  0  0  0  0
  7 15  1  0  0  0  0
  7 16  1  0  0  0  0
  8 12  1  0  0  0  0
  8 17  1  0  0  0  0
  8 18  1  0  0  0  0
 10 19  1  0  0  0  0
 10 20  1  0  0  0  0
 10 21  1  0  0  0  0
 11 22  1  0  0  0  0
 11 23  1  0  0  0  0
 11 24  1  0  0  0  0
M  END
> <PUBCHEM_COMPOUND_CID>
138566

> <PUBCHEM_CONFORMER_RMSD>
0.6

> <PUBCHEM_CONFORMER_DIVERSEORDER>
1
31
11
32
26
27
4
10
19
33
5
8
23
18
22
14
34
7
29
24
2
30
12
20
6
28
3
13
9
35
16
17
15
25
21

> <PUBCHEM_MMFF94_PARTIAL_CHARGES>
10
1 -0.65
12 0.66
2 -0.57
25 0.5
26 0.5
3 -0.65
4 -0.57
5 0.06
8 0.06
9 0.66

> <PUBCHEM_EFFECTIVE_ROTOR_COUNT>
5

> <PUBCHEM_PHARMACOPHORE_FEATURES>
9
1 1 acceptor
1 10 hydrophobe
1 11 hydrophobe
1 2 acceptor
1 3 acceptor
1 4 acceptor
3 1 2 9 anion
3 3 4 12 anion
4 5 6 7 8 hydrophobe

> <PUBCHEM_HEAVY_ATOM_COUNT>
12

> <PUBCHEM_ATOM_DEF_STEREO_COUNT>
0

> <PUBCHEM_ATOM_UDEF_STEREO_COUNT>
0

> <PUBCHEM_BOND_DEF_STEREO_COUNT>
0

> <PUBCHEM_BOND_UDEF_STEREO_COUNT>
0

> <PUBCHEM_ISOTOPIC_ATOM_COUNT>
0

> <PUBCHEM_COMPONENT_COUNT>
1

> <PUBCHEM_CACTVS_TAUTO_COUNT>
1

> <PUBCHEM_CONFORMER_ID>
00021D4600000001

> <PUBCHEM_MMFF94_ENERGY>
20.9642

> <PUBCHEM_FEATURE_SELFOVERLAP>
45.81

> <PUBCHEM_SHAPE_FINGERPRINT>
10353120 184 18271824379649665161
12423570 1 7905419227271766242
13380536 261 17906190459392462372
137420 1 14016958875353937691
14128692 85 17972592195534727674
16945 1 18340772653551430815
20711985 344 17484531035584937693
21040471 1 18187082896677532146
21501502 16 17834670883012317850
23211744 25 18335711588627824349
2748010 2 17830737921541240811
29004967 10 17561084713183815334
3250762 1 17833835245653780378
4369600 1 18411979139700429832
5084963 1 18130219492757881081
5337951 7 18126576840488606819
68250623 7 17764290040038446482

> <PUBCHEM_SHAPE_MULTIPOLES>
223.48
3.13
2.3
1.14
1.28
0.09
0.17
0.11
0.64
-0.15
-0.71
-0.44
-0.08
0.12

> <PUBCHEM_SHAPE_SELFOVERLAP>
429.263

> <PUBCHEM_SHAPE_VOLUME>
135.9

> <PUBCHEM_COORDINATE_TYPE>
2
5
10

$$$$
