17451
  -OEChem-11012401263D

 20 20  0     0  0  0  0  0  0999 V2000
    2.9903    0.6935   -0.0006 O   0  0  0  0  0  0  0  0  0  0  0  0
    1.8873   -1.3100    0.0006 O   0  0  0  0  0  0  0  0  0  0  0  0
    0.7376    0.7343   -0.0001 N   0  0  0  0  0  0  0  0  0  0  0  0
   -0.6078    0.3649    0.0002 C   0  0  0  0  0  0  0  0  0  0  0  0
   -1.6001    1.3453    0.0003 C   0  0  0  0  0  0  0  0  0  0  0  0
   -0.9608   -0.9847   -0.0001 C   0  0  0  0  0  0  0  0  0  0  0  0
   -2.9453    0.9763    0.0002 C   0  0  0  0  0  0  0  0  0  0  0  0
   -2.3061   -1.3536   -0.0003 C   0  0  0  0  0  0  0  0  0  0  0  0
   -3.2982   -0.3731   -0.0002 C   0  0  0  0  0  0  0  0  0  0  0  0
    1.8637   -0.0852   -0.0002 C   0  0  0  0  0  0  0  0  0  0  0  0
    4.2393   -0.0076    0.0001 C   0  0  0  0  0  0  0  0  0  0  0  0
   -1.3395    2.4007    0.0005 H   0  0  0  0  0  0  0  0  0  0  0  0
   -0.2492   -1.7988   -0.0005 H   0  0  0  0  0  0  0  0  0  0  0  0
    0.9227    1.7346   -0.0003 H   0  0  0  0  0  0  0  0  0  0  0  0
   -3.7179    1.7396    0.0003 H   0  0  0  0  0  0  0  0  0  0  0  0
   -2.5824   -2.4041   -0.0007 H   0  0  0  0  0  0  0  0  0  0  0  0
   -4.3455   -0.6604   -0.0003 H   0  0  0  0  0  0  0  0  0  0  0  0
    4.3276   -0.6222    0.9010 H   0  0  0  0  0  0  0  0  0  0  0  0
    5.0439    0.7325   -0.0002 H   0  0  0  0  0  0  0  0  0  0  0  0
    4.3280   -0.6234   -0.8999 H   0  0  0  0  0  0  0  0  0  0  0  0
  1 10  1  0  0  0  0
  1 11  1  0  0  0  0
  2 10  2  0  0  0  0
  3  4  1  0  0  0  0
  3 10  1  0  0  0  0
  3 14  1  0  0  0  0
  4  5  2  0  0  0  0
  4  6  1  0  0  0  0
  5  7  1  0  0  0  0
  5 12  1  0  0  0  0
  6  8  2  0  0  0  0
  6 13  1  0  0  0  0
  7  9  2  0  0  0  0
  7 15  1  0  0  0  0
  8  9  1  0  0  0  0
  8 16  1  0  0  0  0
  9 17  1  0  0  0  0
 11 18  1  0  0  0  0
 11 19  1  0  0  0  0
 11 20  1  0  0  0  0
M  END
> <PUBCHEM_COMPOUND_CID>
17451

> <PUBCHEM_CONFORMER_RMSD>
0.6

> <PUBCHEM_CONFORMER_DIVERSEORDER>
1
3
2

> <PUBCHEM_MMFF94_PARTIAL_CHARGES>
17
1 -0.43
10 0.78
11 0.28
12 0.15
13 0.15
14 0.37
15 0.15
16 0.15
17 0.15
2 -0.57
3 -0.55
4 0.12
5 -0.15
6 -0.15
7 -0.15
8 -0.15
9 -0.15

> <PUBCHEM_EFFECTIVE_ROTOR_COUNT>
3

> <PUBCHEM_PHARMACOPHORE_FEATURES>
3
1 2 acceptor
1 3 donor
6 4 5 6 7 8 9 rings

> <PUBCHEM_HEAVY_ATOM_COUNT>
11

> <PUBCHEM_ATOM_DEF_STEREO_COUNT>
0

> <PUBCHEM_ATOM_UDEF_STEREO_COUNT>
0

> <PUBCHEM_BOND_DEF_STEREO_COUNT>
0

> <PUBCHEM_BOND_UDEF_STEREO_COUNT>
0

> <PUBCHEM_ISOTOPIC_ATOM_COUNT>
0

> <PUBCHEM_COMPONENT_COUNT>
1

> <PUBCHEM_CACTVS_TAUTO_COUNT>
2

> <PUBCHEM_CONFORMER_ID>
0000442B00000001

> <PUBCHEM_MMFF94_ENERGY>
28.6265

> <PUBCHEM_FEATURE_SELFOVERLAP>
15.223

> <PUBCHEM_SHAPE_FINGERPRINT>
10608611 8 18412821387119559648
11062470 55 18410573993741398732
12932764 1 17274810355248619082
13024252 1 15574713599730182937
13380535 76 18410292497438012382
14144814 61 18409448063854207216
14325111 11 18410856525306502913
15775835 57 18335423426355424313
20201158 50 18342458140315112838
20645464 45 18059862757213798623
20871998 184 18201443635607787039
23402539 116 18201712964801677733
23402655 69 18269822135354309981
23463225 33 18335136454068682890
23552423 10 18188491392784660207
3312278 4 18410857672199966683
369184 2 18343582932526367097
6333449 129 18413105065487904405
75552 356 18410013260112460503

> <PUBCHEM_SHAPE_MULTIPOLES>
209.66
6.41
1.36
0.59
5.28
0.11
0
-0.09
0
-0.69
0
-0.05
0
0

> <PUBCHEM_SHAPE_SELFOVERLAP>
429.495

> <PUBCHEM_SHAPE_VOLUME>
120.8

> <PUBCHEM_COORDINATE_TYPE>
2
5
10

$$$$
