2782321
  -OEChem-11012401023D

  9  8  0     0  0  0  0  0  0999 V2000
    1.2404    1.1098    0.4499 F   0  0  0  0  0  0  0  0  0  0  0  0
    1.4649   -0.9593   -0.1858 F   0  0  0  0  0  0  0  0  0  0  0  0
   -1.1445   -1.2014    0.3390 O   0  0  0  0  0  0  0  0  0  0  0  0
   -1.5330    0.9999   -0.2177 N   0  0  0  0  0  0  0  0  0  0  0  0
    0.7067    0.1554   -0.3571 C   0  0  0  0  0  0  0  0  0  0  0  0
   -0.7346   -0.1043   -0.0282 C   0  0  0  0  0  0  0  0  0  0  0  0
    0.8064    0.4818   -1.3962 H   0  0  0  0  0  0  0  0  0  0  0  0
   -2.5315    0.9591   -0.0423 H   0  0  0  0  0  0  0  0  0  0  0  0
   -1.1603    1.8907   -0.5307 H   0  0  0  0  0  0  0  0  0  0  0  0
  1  5  1  0  0  0  0
  2  5  1  0  0  0  0
  3  6  2  0  0  0  0
  4  6  1  0  0  0  0
  4  8  1  0  0  0  0
  4  9  1  0  0  0  0
  5  6  1  0  0  0  0
  5  7  1  0  0  0  0
M  END
> <PUBCHEM_COMPOUND_CID>
2782321

> <PUBCHEM_CONFORMER_RMSD>
0.4

> <PUBCHEM_CONFORMER_DIVERSEORDER>
1
3
2
4
5

> <PUBCHEM_MMFF94_PARTIAL_CHARGES>
8
1 -0.34
2 -0.34
3 -0.57
4 -0.8
5 0.74
6 0.57
8 0.37
9 0.37

> <PUBCHEM_EFFECTIVE_ROTOR_COUNT>
1

> <PUBCHEM_PHARMACOPHORE_FEATURES>
2
1 3 acceptor
1 4 donor

> <PUBCHEM_HEAVY_ATOM_COUNT>
6

> <PUBCHEM_ATOM_DEF_STEREO_COUNT>
0

> <PUBCHEM_ATOM_UDEF_STEREO_COUNT>
0

> <PUBCHEM_BOND_DEF_STEREO_COUNT>
0

> <PUBCHEM_BOND_UDEF_STEREO_COUNT>
0

> <PUBCHEM_ISOTOPIC_ATOM_COUNT>
0

> <PUBCHEM_COMPONENT_COUNT>
1

> <PUBCHEM_CACTVS_TAUTO_COUNT>
2

> <PUBCHEM_CONFORMER_ID>
002A747100000001

> <PUBCHEM_MMFF94_ENERGY>
4.7459

> <PUBCHEM_FEATURE_SELFOVERLAP>
10.148

> <PUBCHEM_SHAPE_FINGERPRINT>
139733 1 10446838736012998851
20096714 4 18338796698033391077
21015797 1 9582982136714384695
21040471 1 18262236612453824349
24536 1 18041275573027880693
5943 1 9138980456621341399

> <PUBCHEM_SHAPE_MULTIPOLES>
98.08
1.82
1.21
0.62
0.04
0.05
0.02
-0.08
-0.01
-0.09
-0.1
0.03
-0.03
0.23

> <PUBCHEM_SHAPE_SELFOVERLAP>
182.056

> <PUBCHEM_SHAPE_VOLUME>
61.6

> <PUBCHEM_COORDINATE_TYPE>
2
5
10

$$$$
