7345016
  -OEChem-11012400303D

 29 30  0     1  0  0  0  0  0999 V2000
    3.2085    0.1690    0.3993 O   0  0  0  0  0  0  0  0  0  0  0  0
    2.2392   -0.6232   -0.2202 N   0  0  0  0  0  0  0  0  0  0  0  0
   -1.1807   -0.1572    0.5821 C   0  0  0  0  0  0  0  0  0  0  0  0
   -0.2350   -0.6162   -0.5654 C   0  0  1  0  0  0  0  0  0  0  0  0
   -0.6700    1.3114    0.5109 C   0  0  2  0  0  0  0  0  0  0  0  0
   -0.5635    0.3590   -1.7210 C   0  0  0  0  0  0  0  0  0  0  0  0
   -0.8823    1.6787   -0.9806 C   0  0  0  0  0  0  0  0  0  0  0  0
    0.8570    1.1957    0.7418 C   0  0  0  0  0  0  0  0  0  0  0  0
    1.0862   -0.0810   -0.0280 C   0  0  0  0  0  0  0  0  0  0  0  0
   -2.6847   -0.3214    0.2805 C   0  0  0  0  0  0  0  0  0  0  0  0
   -0.9307   -0.8364    1.9429 C   0  0  0  0  0  0  0  0  0  0  0  0
   -0.2439   -2.0783   -0.9423 C   0  0  0  0  0  0  0  0  0  0  0  0
   -1.1540    2.0105    1.1972 H   0  0  0  0  0  0  0  0  0  0  0  0
   -1.4235    0.0277   -2.3128 H   0  0  0  0  0  0  0  0  0  0  0  0
    0.2817    0.4918   -2.4065 H   0  0  0  0  0  0  0  0  0  0  0  0
   -0.2290    2.4945   -1.3078 H   0  0  0  0  0  0  0  0  0  0  0  0
   -1.9149    1.9892   -1.1715 H   0  0  0  0  0  0  0  0  0  0  0  0
    1.1103    1.0683    1.7972 H   0  0  0  0  0  0  0  0  0  0  0  0
    1.4120    2.0361    0.3169 H   0  0  0  0  0  0  0  0  0  0  0  0
   -2.9672   -1.3803    0.2795 H   0  0  0  0  0  0  0  0  0  0  0  0
   -3.2828    0.1822    1.0487 H   0  0  0  0  0  0  0  0  0  0  0  0
   -2.9969    0.0862   -0.6835 H   0  0  0  0  0  0  0  0  0  0  0  0
    0.1240   -0.9023    2.2230 H   0  0  0  0  0  0  0  0  0  0  0  0
   -1.4482   -0.2936    2.7419 H   0  0  0  0  0  0  0  0  0  0  0  0
   -1.3109   -1.8646    1.9384 H   0  0  0  0  0  0  0  0  0  0  0  0
    0.0564   -2.7098   -0.0996 H   0  0  0  0  0  0  0  0  0  0  0  0
   -1.2374   -2.3996   -1.2706 H   0  0  0  0  0  0  0  0  0  0  0  0
    0.4573   -2.2764   -1.7606 H   0  0  0  0  0  0  0  0  0  0  0  0
    4.0220   -0.3226    0.1957 H   0  0  0  0  0  0  0  0  0  0  0  0
  1  2  1  0  0  0  0
  1 29  1  0  0  0  0
  2  9  2  0  0  0  0
  3  4  1  0  0  0  0
  3  5  1  0  0  0  0
  3 10  1  0  0  0  0
  3 11  1  0  0  0  0
  4  6  1  0  0  0  0
  4  9  1  0  0  0  0
  4 12  1  0  0  0  0
  5  7  1  0  0  0  0
  5  8  1  0  0  0  0
  5 13  1  0  0  0  0
  6  7  1  0  0  0  0
  6 14  1  0  0  0  0
  6 15  1  0  0  0  0
  7 16  1  0  0  0  0
  7 17  1  0  0  0  0
  8  9  1  0  0  0  0
  8 18  1  0  0  0  0
  8 19  1  0  0  0  0
 10 20  1  0  0  0  0
 10 21  1  0  0  0  0
 10 22  1  0  0  0  0
 11 23  1  0  0  0  0
 11 24  1  0  0  0  0
 11 25  1  0  0  0  0
 12 26  1  0  0  0  0
 12 27  1  0  0  0  0
 12 28  1  0  0  0  0
M  END
> <PUBCHEM_COMPOUND_CID>
7345016

> <PUBCHEM_CONFORMER_RMSD>
0.4

> <PUBCHEM_CONFORMER_DIVERSEORDER>
1

> <PUBCHEM_MMFF94_PARTIAL_CHARGES>
6
1 -0.34
2 -0.51
29 0.4
4 0.06
8 0.06
9 0.33

> <PUBCHEM_EFFECTIVE_ROTOR_COUNT>
0.8

> <PUBCHEM_PHARMACOPHORE_FEATURES>
4
1 1 anion
1 2 acceptor
3 3 10 11 hydrophobe
7 3 4 5 6 7 8 9 rings

> <PUBCHEM_HEAVY_ATOM_COUNT>
12

> <PUBCHEM_ATOM_DEF_STEREO_COUNT>
2

> <PUBCHEM_ATOM_UDEF_STEREO_COUNT>
0

> <PUBCHEM_BOND_DEF_STEREO_COUNT>
1

> <PUBCHEM_BOND_UDEF_STEREO_COUNT>
0

> <PUBCHEM_ISOTOPIC_ATOM_COUNT>
0

> <PUBCHEM_COMPONENT_COUNT>
1

> <PUBCHEM_CACTVS_TAUTO_COUNT>
2

> <PUBCHEM_CONFORMER_ID>
0070137800000001

> <PUBCHEM_MMFF94_ENERGY>
51.5376

> <PUBCHEM_FEATURE_SELFOVERLAP>
20.297

> <PUBCHEM_SHAPE_FINGERPRINT>
10702982 57 13972845992037538389
12423570 1 11153639633815718789
13024252 1 17167856452741867226
137420 1 15871457455244211069
14128692 85 15287072655788654059
15557651 10 18116692089342552437
16945 1 18113910337766729641
2748010 2 18127977395212039990
369184 2 18131341986771456106
5084963 1 18041278742856208796
528886 8 18058714832698928665
68250623 7 17826777149823911283

> <PUBCHEM_SHAPE_MULTIPOLES>
236.1
2.7
1.64
1.5
1.6
0.09
-0.07
0.23
-0.57
-0.25
0.35
-0.43
0.15
0.32

> <PUBCHEM_SHAPE_SELFOVERLAP>
501.077

> <PUBCHEM_SHAPE_VOLUME>
140.7

> <PUBCHEM_COORDINATE_TYPE>
2
5
10

$$$$
