78986
  -OEChem-11012400443D

 22 21  0     0  0  0  0  0  0999 V2000
    0.7176    2.1436   -0.1809 F   0  0  0  0  0  0  0  0  0  0  0  0
   -0.3542    0.8414   -1.5714 F   0  0  0  0  0  0  0  0  0  0  0  0
    1.2541   -1.0946   -1.1869 F   0  0  0  0  0  0  0  0  0  0  0  0
    1.7410   -1.6345    0.8747 F   0  0  0  0  0  0  0  0  0  0  0  0
   -0.4823   -1.8906    1.6567 F   0  0  0  0  0  0  0  0  0  0  0  0
   -2.0036   -0.3671    1.2791 F   0  0  0  0  0  0  0  0  0  0  0  0
   -1.4735    2.3981    1.3790 F   0  0  0  0  0  0  0  0  0  0  0  0
   -1.7399    2.9546   -0.7105 F   0  0  0  0  0  0  0  0  0  0  0  0
   -2.6238    1.1151    0.0293 F   0  0  0  0  0  0  0  0  0  0  0  0
    2.9740    0.7051    1.2854 F   0  0  0  0  0  0  0  0  0  0  0  0
    3.7609   -0.4078   -0.4041 F   0  0  0  0  0  0  0  0  0  0  0  0
    2.5224    1.3651   -0.7410 F   0  0  0  0  0  0  0  0  0  0  0  0
   -0.3370   -2.5106   -0.9428 F   0  0  0  0  0  0  0  0  0  0  0  0
   -2.3405   -2.6677   -0.1219 F   0  0  0  0  0  0  0  0  0  0  0  0
   -1.8262   -1.0019   -1.4453 F   0  0  0  0  0  0  0  0  0  0  0  0
    0.1696    0.0223    0.5432 N   0  0  0  0  0  0  0  0  0  0  0  0
   -0.2563    1.1861   -0.2564 C   0  0  0  0  0  0  0  0  0  0  0  0
    1.4276   -0.5791    0.0629 C   0  0  0  0  0  0  0  0  0  0  0  0
   -0.9054   -0.9678    0.7399 C   0  0  0  0  0  0  0  0  0  0  0  0
   -1.5364    1.9068    0.1234 C   0  0  0  0  0  0  0  0  0  0  0  0
    2.6831    0.2728    0.0353 C   0  0  0  0  0  0  0  0  0  0  0  0
   -1.3711   -1.7892   -0.4480 C   0  0  0  0  0  0  0  0  0  0  0  0
  1 17  1  0  0  0  0
  2 17  1  0  0  0  0
  3 18  1  0  0  0  0
  4 18  1  0  0  0  0
  5 19  1  0  0  0  0
  6 19  1  0  0  0  0
  7 20  1  0  0  0  0
  8 20  1  0  0  0  0
  9 20  1  0  0  0  0
 10 21  1  0  0  0  0
 11 21  1  0  0  0  0
 12 21  1  0  0  0  0
 13 22  1  0  0  0  0
 14 22  1  0  0  0  0
 15 22  1  0  0  0  0
 16 17  1  0  0  0  0
 16 18  1  0  0  0  0
 16 19  1  0  0  0  0
 17 20  1  0  0  0  0
 18 21  1  0  0  0  0
 19 22  1  0  0  0  0
M  END
> <PUBCHEM_COMPOUND_CID>
78986

> <PUBCHEM_CONFORMER_RMSD>
0.8

> <PUBCHEM_CONFORMER_DIVERSEORDER>
1
3
4
2
5

> <PUBCHEM_MMFF94_PARTIAL_CHARGES>
22
1 -0.34
10 -0.34
11 -0.34
12 -0.34
13 -0.34
14 -0.34
15 -0.34
16 -0.81
17 0.95
18 0.95
19 0.95
2 -0.34
20 1.02
21 1.02
22 1.02
3 -0.34
4 -0.34
5 -0.34
6 -0.34
7 -0.34
8 -0.34
9 -0.34

> <PUBCHEM_EFFECTIVE_ROTOR_COUNT>
6

> <PUBCHEM_PHARMACOPHORE_FEATURES>
1
1 16 cation

> <PUBCHEM_HEAVY_ATOM_COUNT>
22

> <PUBCHEM_ATOM_DEF_STEREO_COUNT>
0

> <PUBCHEM_ATOM_UDEF_STEREO_COUNT>
0

> <PUBCHEM_BOND_DEF_STEREO_COUNT>
0

> <PUBCHEM_BOND_UDEF_STEREO_COUNT>
0

> <PUBCHEM_ISOTOPIC_ATOM_COUNT>
0

> <PUBCHEM_COMPONENT_COUNT>
1

> <PUBCHEM_CACTVS_TAUTO_COUNT>
1

> <PUBCHEM_CONFORMER_ID>
0001348A00000001

> <PUBCHEM_MMFF94_ENERGY>
24.0252

> <PUBCHEM_FEATURE_SELFOVERLAP>
5.074

> <PUBCHEM_SHAPE_FINGERPRINT>
1 1 17690557485869304573
10863032 1 18268140951245420521
10948715 1 18192430762236894157
11578080 2 17201624770018747129
12138202 97 18339645521073214524
12423570 1 17187254904510107515
12491281 212 18199753535495054984
13024252 1 16225765220234189315
13027679 85 17832989729612252581
13140716 1 18266462203048309305
144361 1 18116978078287459349
14817 1 11506774980398403807
15309172 13 18120944892950018848
15775835 57 18045505209692658424
15881359 60 18412273843366342347
16945 1 18336819870441681612
19868273 325 18267585891099462232
20511035 2 17826807935938388578
20525323 117 18336258037622875592
20871998 184 18338530667737945369
21296965 12 18191594047020867865
21296965 67 18051125088563406047
21501502 16 18337386037858708410
21524375 3 18120374250541118504
22112679 90 17911544273671563195
2334 1 17906174305815058513
23388829 49 17692817398781461224
23419403 2 17041420492412627452
23559900 14 18129384788293950926
2748010 2 18120948195711109141
3060560 45 17404287508964255093
353137 74 18264468659849890069
430814 3 17910667670619713101
5845 1 8069154719187557168
7364860 26 17187840918306279765
81228 2 18409730707009391992

> <PUBCHEM_SHAPE_MULTIPOLES>
338.66
3.75
2.89
1.25
2.85
0.34
0.09
0.28
0.09
-1.96
-0.14
-0.18
-0.16
-0.16

> <PUBCHEM_SHAPE_SELFOVERLAP>
729.951

> <PUBCHEM_SHAPE_VOLUME>
184.4

> <PUBCHEM_COORDINATE_TYPE>
2
5
10

$$$$
