5752038
  -OEChem-11012400583D

 18 17  0     0  0  0  0  0  0999 V2000
   -2.4756   -1.6421    0.0087 O   0  0  0  0  0  0  0  0  0  0  0  0
    3.7332   -0.6308   -0.0054 O   0  5  0  0  0  0  0  0  0  0  0  0
    1.7310   -1.5443   -0.0026 O   0  0  0  0  0  0  0  0  0  0  0  0
   -1.6006    0.5097    0.0071 N   0  0  0  0  0  0  0  0  0  0  0  0
    1.9894    0.6963   -0.0017 N   0  0  0  0  0  0  0  0  0  0  0  0
   -0.3239    0.0708    0.0043 N   0  0  0  0  0  0  0  0  0  0  0  0
    0.4300    2.3474    0.0038 N   0  0  0  0  0  0  0  0  0  0  0  0
    2.4989   -0.5773   -0.0030 N   0  3  0  0  0  0  0  0  0  0  0  0
    0.6203    0.9761    0.0023 C   0  0  0  0  0  0  0  0  0  0  0  0
   -2.6200   -0.4219    0.0092 C   0  0  0  0  0  0  0  0  0  0  0  0
   -3.9826    0.2161   -0.0228 C   0  0  0  0  0  0  0  0  0  0  0  0
    2.6110    1.5015   -0.0025 H   0  0  0  0  0  0  0  0  0  0  0  0
   -1.7760    1.5066   -0.0026 H   0  0  0  0  0  0  0  0  0  0  0  0
   -4.2436    0.4569   -1.0568 H   0  0  0  0  0  0  0  0  0  0  0  0
   -3.9990    1.1304    0.5774 H   0  0  0  0  0  0  0  0  0  0  0  0
   -4.7210   -0.4791    0.3861 H   0  0  0  0  0  0  0  0  0  0  0  0
    1.2205    2.9832    0.0019 H   0  0  0  0  0  0  0  0  0  0  0  0
   -0.4865    2.7770    0.0084 H   0  0  0  0  0  0  0  0  0  0  0  0
  1 10  2  0  0  0  0
  2  8  1  0  0  0  0
  3  8  2  0  0  0  0
  4  6  1  0  0  0  0
  4 10  1  0  0  0  0
  4 13  1  0  0  0  0
  5  8  1  0  0  0  0
  5  9  1  0  0  0  0
  5 12  1  0  0  0  0
  6  9  2  0  0  0  0
  7  9  1  0  0  0  0
  7 17  1  0  0  0  0
  7 18  1  0  0  0  0
 10 11  1  0  0  0  0
 11 14  1  0  0  0  0
 11 15  1  0  0  0  0
 11 16  1  0  0  0  0
M  CHG  2   2  -1   8   1
M  END
> <PUBCHEM_COMPOUND_CID>
5752038

> <PUBCHEM_CONFORMER_RMSD>
0.6

> <PUBCHEM_CONFORMER_DIVERSEORDER>
1
3
4
2
5
8
6
7

> <PUBCHEM_MMFF94_PARTIAL_CHARGES>
15
1 -0.57
10 0.57
11 0.06
12 0.4
13 0.37
17 0.4
18 0.4
2 -0.52
3 -0.52
4 -0.37
5 -0.45
6 -0.51
7 -0.85
8 1.04
9 0.55

> <PUBCHEM_EFFECTIVE_ROTOR_COUNT>
4

> <PUBCHEM_PHARMACOPHORE_FEATURES>
7
1 1 acceptor
1 2 acceptor
1 3 acceptor
1 4 donor
1 5 donor
1 7 donor
4 5 6 7 9 cation

> <PUBCHEM_HEAVY_ATOM_COUNT>
11

> <PUBCHEM_ATOM_DEF_STEREO_COUNT>
0

> <PUBCHEM_ATOM_UDEF_STEREO_COUNT>
0

> <PUBCHEM_BOND_DEF_STEREO_COUNT>
1

> <PUBCHEM_BOND_UDEF_STEREO_COUNT>
0

> <PUBCHEM_ISOTOPIC_ATOM_COUNT>
0

> <PUBCHEM_COMPONENT_COUNT>
1

> <PUBCHEM_CACTVS_TAUTO_COUNT>
6

> <PUBCHEM_CONFORMER_ID>
0057C4E600000001

> <PUBCHEM_MMFF94_ENERGY>
27.5516

> <PUBCHEM_FEATURE_SELFOVERLAP>
35.664

> <PUBCHEM_SHAPE_FINGERPRINT>
10130415 120 18409729547579270457
11062470 55 17847059969686149819
12932764 1 17168408455129645129
14252887 29 18130516261934141838
14325111 11 18338516455907336737
20201158 50 18408604742715216235
20871998 22 18200039430283159758
23552423 10 18192432085524365885

> <PUBCHEM_SHAPE_MULTIPOLES>
183.86
6.05
1.67
0.54
1.37
0.45
0
-1.88
0.03
-0.39
0
0.07
0.01
0.01

> <PUBCHEM_SHAPE_SELFOVERLAP>
352.492

> <PUBCHEM_SHAPE_VOLUME>
109.7

> <PUBCHEM_COORDINATE_TYPE>
2
5
10

$$$$
