123055
  -OEChem-11012401073D

 22 23  0     0  0  0  0  0  0999 V2000
   -0.8466    1.6438    1.4439 F   0  0  0  0  0  0  0  0  0  0  0  0
    0.8465   -1.6442    1.4434 F   0  0  0  0  0  0  0  0  0  0  0  0
   -0.7227   -0.0316   -0.2396 C   0  0  0  0  0  0  0  0  0  0  0  0
    0.7227    0.0317   -0.2396 C   0  0  0  0  0  0  0  0  0  0  0  0
   -1.4609    0.7867    0.6154 C   0  0  0  0  0  0  0  0  0  0  0  0
    1.4609   -0.7869    0.6151 C   0  0  0  0  0  0  0  0  0  0  0  0
   -1.3777   -0.9170   -1.0957 C   0  0  0  0  0  0  0  0  0  0  0  0
    1.3777    0.9173   -1.0954 C   0  0  0  0  0  0  0  0  0  0  0  0
   -2.8541    0.7197    0.6143 C   0  0  0  0  0  0  0  0  0  0  0  0
    2.8541   -0.7199    0.6142 C   0  0  0  0  0  0  0  0  0  0  0  0
   -2.7710   -0.9840   -1.0966 C   0  0  0  0  0  0  0  0  0  0  0  0
    2.7710    0.9844   -1.0963 C   0  0  0  0  0  0  0  0  0  0  0  0
   -3.5092   -0.1658   -0.2416 C   0  0  0  0  0  0  0  0  0  0  0  0
    3.5093    0.1658   -0.2416 C   0  0  0  0  0  0  0  0  0  0  0  0
   -0.8177   -1.5627   -1.7681 H   0  0  0  0  0  0  0  0  0  0  0  0
    0.8178    1.5632   -1.7676 H   0  0  0  0  0  0  0  0  0  0  0  0
   -3.4287    1.3569    1.2799 H   0  0  0  0  0  0  0  0  0  0  0  0
    3.4287   -1.3574    1.2796 H   0  0  0  0  0  0  0  0  0  0  0  0
   -3.2812   -1.6734   -1.7629 H   0  0  0  0  0  0  0  0  0  0  0  0
    3.2811    1.6741   -1.7624 H   0  0  0  0  0  0  0  0  0  0  0  0
   -4.5941   -0.2180   -0.2423 H   0  0  0  0  0  0  0  0  0  0  0  0
    4.5941    0.2180   -0.2423 H   0  0  0  0  0  0  0  0  0  0  0  0
  1  5  1  0  0  0  0
  2  6  1  0  0  0  0
  3  4  1  0  0  0  0
  3  5  1  0  0  0  0
  3  7  2  0  0  0  0
  4  6  1  0  0  0  0
  4  8  2  0  0  0  0
  5  9  2  0  0  0  0
  6 10  2  0  0  0  0
  7 11  1  0  0  0  0
  7 15  1  0  0  0  0
  8 12  1  0  0  0  0
  8 16  1  0  0  0  0
  9 13  1  0  0  0  0
  9 17  1  0  0  0  0
 10 14  1  0  0  0  0
 10 18  1  0  0  0  0
 11 13  2  0  0  0  0
 11 19  1  0  0  0  0
 12 14  2  0  0  0  0
 12 20  1  0  0  0  0
 13 21  1  0  0  0  0
 14 22  1  0  0  0  0
M  END
> <PUBCHEM_COMPOUND_CID>
123055

> <PUBCHEM_CONFORMER_RMSD>
0.4

> <PUBCHEM_CONFORMER_DIVERSEORDER>
1
5
4
3
2
6

> <PUBCHEM_MMFF94_PARTIAL_CHARGES>
20
1 -0.19
10 -0.15
11 -0.15
12 -0.15
13 -0.15
14 -0.15
15 0.15
16 0.15
17 0.15
18 0.15
19 0.15
2 -0.19
20 0.15
21 0.15
22 0.15
5 0.19
6 0.19
7 -0.15
8 -0.15
9 -0.15

> <PUBCHEM_EFFECTIVE_ROTOR_COUNT>
1

> <PUBCHEM_PHARMACOPHORE_FEATURES>
2
6 3 5 7 9 11 13 rings
6 4 6 8 10 12 14 rings

> <PUBCHEM_HEAVY_ATOM_COUNT>
14

> <PUBCHEM_ATOM_DEF_STEREO_COUNT>
0

> <PUBCHEM_ATOM_UDEF_STEREO_COUNT>
0

> <PUBCHEM_BOND_DEF_STEREO_COUNT>
0

> <PUBCHEM_BOND_UDEF_STEREO_COUNT>
0

> <PUBCHEM_ISOTOPIC_ATOM_COUNT>
0

> <PUBCHEM_COMPONENT_COUNT>
1

> <PUBCHEM_CACTVS_TAUTO_COUNT>
1

> <PUBCHEM_CONFORMER_ID>
0001E0AF00000001

> <PUBCHEM_MMFF94_ENERGY>
38.5281

> <PUBCHEM_FEATURE_SELFOVERLAP>
10.149

> <PUBCHEM_SHAPE_FINGERPRINT>
10219947 1 17458063768106777182
11578080 2 17978185535718475612
12236239 1 18410573985151451317
12932764 1 18411696586634472661
13538477 17 18341890805458486823
13581323 91 17917709089059975414
15207287 21 15719108071705805377
15219456 202 16081087082220684588
15309172 13 17385731317573522434
15775835 57 18408891736698450676
16945 1 18410856589704560797
17844478 74 16081371838689559701
18175812 5 15719397256217565614
18186145 218 18186523232574260356
19049666 15 15430863316040548381
19422 9 18411420609157924143
200 152 18113610201362911271
20201158 50 16298383539458801122
20279233 1 15697999634622514670
204376 136 17459476726838400316
20645464 45 15140960673187517965
20645477 70 17531792585259356135
21639500 275 17749951184251739884
22802520 49 16342878533114922772
228727 97 18341057392618851320
23236772 104 18411140238003334033
23402539 116 17489581242915375772
23557571 272 17132117965648042488
23559900 14 17132123403424643164
474 4 18120372322623698132
528886 8 17749383801728343468
57812782 119 15719387351980607550
63268167 104 18113899372905192068
77492 1 18410573980856483956

> <PUBCHEM_SHAPE_MULTIPOLES>
273.57
5.59
1.31
1.29
0
0
-0.05
0
0.68
0
-0.26
0
0
-1.15

> <PUBCHEM_SHAPE_SELFOVERLAP>
600.637

> <PUBCHEM_SHAPE_VOLUME>
148.3

> <PUBCHEM_COORDINATE_TYPE>
2
5
10

$$$$
