5373913
  -OEChem-11012400323D

 25 25  0     0  0  0  0  0  0999 V2000
   -2.6463    0.5246   -0.8450 O   0  0  0  0  0  0  0  0  0  0  0  0
   -2.8203    1.2019    1.3890 O   0  0  0  0  0  0  0  0  0  0  0  0
    4.1862    2.1335    0.0736 O   0  0  0  0  0  0  0  0  0  0  0  0
    4.8096   -0.0595   -0.0065 O   0  0  0  0  0  0  0  0  0  0  0  0
    0.5783   -1.0183   -0.0653 C   0  0  0  0  0  0  0  0  0  0  0  0
   -1.7227   -0.4014   -0.4676 C   0  0  0  0  0  0  0  0  0  0  0  0
   -0.3681   -0.0692   -0.4516 C   0  0  0  0  0  0  0  0  0  0  0  0
    0.1700   -2.2996    0.3050 C   0  0  0  0  0  0  0  0  0  0  0  0
   -2.1309   -1.6827   -0.0974 C   0  0  0  0  0  0  0  0  0  0  0  0
   -1.1846   -2.6318    0.2891 C   0  0  0  0  0  0  0  0  0  0  0  0
    1.9909   -0.6725   -0.0477 C   0  0  0  0  0  0  0  0  0  0  0  0
    2.4873    0.5839   -0.0051 C   0  0  0  0  0  0  0  0  0  0  0  0
   -3.1453    1.3017    0.2133 C   0  0  0  0  0  0  0  0  0  0  0  0
   -4.1514    2.2871   -0.3029 C   0  0  0  0  0  0  0  0  0  0  0  0
    3.9475    0.8024    0.0191 C   0  0  0  0  0  0  0  0  0  0  0  0
   -0.0881    0.9325   -0.7660 H   0  0  0  0  0  0  0  0  0  0  0  0
    0.8927   -3.0525    0.6104 H   0  0  0  0  0  0  0  0  0  0  0  0
   -3.1846   -1.9484   -0.1081 H   0  0  0  0  0  0  0  0  0  0  0  0
   -1.5028   -3.6293    0.5777 H   0  0  0  0  0  0  0  0  0  0  0  0
    2.6785   -1.5158   -0.0595 H   0  0  0  0  0  0  0  0  0  0  0  0
    1.8576    1.4655    0.0346 H   0  0  0  0  0  0  0  0  0  0  0  0
   -3.6775    2.9517   -1.0294 H   0  0  0  0  0  0  0  0  0  0  0  0
   -4.5286    2.8897    0.5281 H   0  0  0  0  0  0  0  0  0  0  0  0
   -4.9900    1.7541   -0.7575 H   0  0  0  0  0  0  0  0  0  0  0  0
    5.1463    2.3343    0.0911 H   0  0  0  0  0  0  0  0  0  0  0  0
  1  6  1  0  0  0  0
  1 13  1  0  0  0  0
  2 13  2  0  0  0  0
  3 15  1  0  0  0  0
  3 25  1  0  0  0  0
  4 15  2  0  0  0  0
  5  7  2  0  0  0  0
  5  8  1  0  0  0  0
  5 11  1  0  0  0  0
  6  7  1  0  0  0  0
  6  9  2  0  0  0  0
  7 16  1  0  0  0  0
  8 10  2  0  0  0  0
  8 17  1  0  0  0  0
  9 10  1  0  0  0  0
  9 18  1  0  0  0  0
 10 19  1  0  0  0  0
 11 12  2  0  0  0  0
 11 20  1  0  0  0  0
 12 15  1  0  0  0  0
 12 21  1  0  0  0  0
 13 14  1  0  0  0  0
 14 22  1  0  0  0  0
 14 23  1  0  0  0  0
 14 24  1  0  0  0  0
M  END
> <PUBCHEM_COMPOUND_CID>
5373913

> <PUBCHEM_CONFORMER_RMSD>
0.6

> <PUBCHEM_CONFORMER_DIVERSEORDER>
1
26
10
32
31
11
6
24
8
21
37
18
34
9
5
36
3
17
14
19
35
28
29
4
7
15
30
16
25
27
23
2
22
20
13
12
33

> <PUBCHEM_MMFF94_PARTIAL_CHARGES>
22
1 -0.23
10 -0.15
11 -0.18
12 -0.14
13 0.66
14 0.06
15 0.71
16 0.15
17 0.15
18 0.15
19 0.15
2 -0.57
20 0.15
21 0.15
25 0.5
3 -0.65
4 -0.57
5 0.03
6 0.08
7 -0.15
8 -0.15
9 -0.15

> <PUBCHEM_EFFECTIVE_ROTOR_COUNT>
4

> <PUBCHEM_PHARMACOPHORE_FEATURES>
5
1 2 acceptor
1 3 acceptor
1 4 acceptor
3 3 4 15 anion
6 5 6 7 8 9 10 rings

> <PUBCHEM_HEAVY_ATOM_COUNT>
15

> <PUBCHEM_ATOM_DEF_STEREO_COUNT>
0

> <PUBCHEM_ATOM_UDEF_STEREO_COUNT>
0

> <PUBCHEM_BOND_DEF_STEREO_COUNT>
1

> <PUBCHEM_BOND_UDEF_STEREO_COUNT>
0

> <PUBCHEM_ISOTOPIC_ATOM_COUNT>
0

> <PUBCHEM_COMPONENT_COUNT>
1

> <PUBCHEM_CACTVS_TAUTO_COUNT>
1

> <PUBCHEM_CONFORMER_ID>
0051FFD900000001

> <PUBCHEM_MMFF94_ENERGY>
41.9647

> <PUBCHEM_FEATURE_SELFOVERLAP>
25.427

> <PUBCHEM_SHAPE_FINGERPRINT>
10608611 8 18268427009395315204
12173636 292 18338512075009254590
122479 349 18411418427562139286
12346645 44 18409445860699689927
12390115 104 18340787986695473233
14123255 52 18337670815317097061
14897335 6 18411697651765237103
15342168 16 18335986372336067245
15477762 27 9654417424667332701
15534591 1 18342734122292526127
1741750 31 18412544318784290138
17834072 32 18410293601097044305
18186145 218 18341618075193394486
204376 136 18409169870564852441
20510252 161 18267868469777623971
20645477 56 18411427227755047398
20671657 1 18194122906490392727
21499 59 18339073783901503189
21524375 3 18342171137826281623
22182937 141 18340774826799614505
23402539 116 18269267040495445159
23500284 214 18411142428368063665
23559900 14 18272369759804339190
25 1 18341891836076570966
27216 239 18260553354830825649
283562 15 18191579963865978067
3071541 12 18123470483864840406
474 4 18340204077291032993
5104073 3 18261103124078183784
6430166 295 18410289199335249480

> <PUBCHEM_SHAPE_MULTIPOLES>
285.22
7.95
2.68
0.78
6.13
0.65
-0.1
-7.04
-0.17
-1.49
-0.26
-0.47
-0.11
-0.03

> <PUBCHEM_SHAPE_SELFOVERLAP>
592.465

> <PUBCHEM_SHAPE_VOLUME>
160.9

> <PUBCHEM_COORDINATE_TYPE>
2
5
10

$$$$
