141361
  -OEChem-11012400443D

 22 23  0     0  0  0  0  0  0999 V2000
    1.6881   -0.0876    0.4618 C   0  0  0  0  0  0  0  0  0  0  0  0
    2.6327    1.0052    0.0748 C   0  0  0  0  0  0  0  0  0  0  0  0
    2.5965   -0.2721   -0.7119 C   0  0  0  0  0  0  0  0  0  0  0  0
    0.2257    0.0971    0.2260 C   0  0  0  0  0  0  0  0  0  0  0  0
   -0.6196   -1.0015    0.0712 C   0  0  0  0  0  0  0  0  0  0  0  0
   -0.2926    1.3905    0.1613 C   0  0  0  0  0  0  0  0  0  0  0  0
   -1.9832   -0.8068   -0.1483 C   0  0  0  0  0  0  0  0  0  0  0  0
   -0.0897   -2.3965    0.1365 C   0  0  0  0  0  0  0  0  0  0  0  0
   -1.6563    1.5852   -0.0583 C   0  0  0  0  0  0  0  0  0  0  0  0
   -2.5016    0.4865   -0.2132 C   0  0  0  0  0  0  0  0  0  0  0  0
    1.9590   -0.6254    1.3681 H   0  0  0  0  0  0  0  0  0  0  0  0
    3.4920    1.1748    0.7148 H   0  0  0  0  0  0  0  0  0  0  0  0
    2.3197    1.8920   -0.4608 H   0  0  0  0  0  0  0  0  0  0  0  0
    2.1801   -0.2359   -1.7115 H   0  0  0  0  0  0  0  0  0  0  0  0
    3.4302   -0.9554   -0.6031 H   0  0  0  0  0  0  0  0  0  0  0  0
    0.3256    2.2708    0.3059 H   0  0  0  0  0  0  0  0  0  0  0  0
   -2.6561   -1.6514   -0.2710 H   0  0  0  0  0  0  0  0  0  0  0  0
    0.3895   -2.5827    1.1032 H   0  0  0  0  0  0  0  0  0  0  0  0
   -0.8870   -3.1395    0.0241 H   0  0  0  0  0  0  0  0  0  0  0  0
    0.6323   -2.5721   -0.6675 H   0  0  0  0  0  0  0  0  0  0  0  0
   -2.0616    2.5919   -0.1020 H   0  0  0  0  0  0  0  0  0  0  0  0
   -3.5636    0.6383   -0.3827 H   0  0  0  0  0  0  0  0  0  0  0  0
  1  2  1  0  0  0  0
  1  3  1  0  0  0  0
  1  4  1  0  0  0  0
  1 11  1  0  0  0  0
  2  3  1  0  0  0  0
  2 12  1  0  0  0  0
  2 13  1  0  0  0  0
  3 14  1  0  0  0  0
  3 15  1  0  0  0  0
  4  5  1  0  0  0  0
  4  6  2  0  0  0  0
  5  7  2  0  0  0  0
  5  8  1  0  0  0  0
  6  9  1  0  0  0  0
  6 16  1  0  0  0  0
  7 10  1  0  0  0  0
  7 17  1  0  0  0  0
  8 18  1  0  0  0  0
  8 19  1  0  0  0  0
  8 20  1  0  0  0  0
  9 10  2  0  0  0  0
  9 21  1  0  0  0  0
 10 22  1  0  0  0  0
M  END
> <PUBCHEM_COMPOUND_CID>
141361

> <PUBCHEM_CONFORMER_RMSD>
0.4

> <PUBCHEM_CONFORMER_DIVERSEORDER>
1
2
3

> <PUBCHEM_MMFF94_PARTIAL_CHARGES>
19
1 -0.07
10 -0.15
11 0.1
12 0.1
13 0.1
14 0.1
15 0.1
16 0.15
17 0.15
2 -0.2
21 0.15
22 0.15
3 -0.2
4 -0.03
5 -0.14
6 -0.15
7 -0.15
8 0.14
9 -0.15

> <PUBCHEM_EFFECTIVE_ROTOR_COUNT>
1.6

> <PUBCHEM_PHARMACOPHORE_FEATURES>
1
6 4 5 6 7 9 10 rings

> <PUBCHEM_HEAVY_ATOM_COUNT>
10

> <PUBCHEM_ATOM_DEF_STEREO_COUNT>
0

> <PUBCHEM_ATOM_UDEF_STEREO_COUNT>
0

> <PUBCHEM_BOND_DEF_STEREO_COUNT>
0

> <PUBCHEM_BOND_UDEF_STEREO_COUNT>
0

> <PUBCHEM_ISOTOPIC_ATOM_COUNT>
0

> <PUBCHEM_COMPONENT_COUNT>
1

> <PUBCHEM_CACTVS_TAUTO_COUNT>
1

> <PUBCHEM_CONFORMER_ID>
0002283100000001

> <PUBCHEM_MMFF94_ENERGY>
28.5552

> <PUBCHEM_FEATURE_SELFOVERLAP>
5.074

> <PUBCHEM_SHAPE_FINGERPRINT>
12423570 1 11877067144816745865
12524768 44 18197779005979893584
12716758 59 18411702105899355202
12897270 3 18411135805528649141
13024252 1 12901540260687213277
14325111 11 18410573963750688552
15775835 57 18114465569801329996
16945 1 18410008849101887217
193761 8 17762335812691469961
20201158 50 18060423504017873742
20645464 45 18058998584113814624
20645476 183 17822020830020823054
20871998 184 18127698350902372078
21028194 46 18187366480419680252
21040471 1 18410005511959771082
22802520 49 18199767902429737558
23235685 24 18408881811250458605
23402539 116 18269538576563774726
23552423 10 18120372060276745323
23559900 14 18200596892133611526
241688 4 16393236990364088179
2748010 2 18411136965196036837
29004967 10 16128655253968388336
369184 2 18412824698412380496
5084963 1 18202283571974918768
528886 8 18410569574452231345
6333449 129 18340483486346276224

> <PUBCHEM_SHAPE_MULTIPOLES>
205.8
3.61
1.93
0.71
1.23
0.75
0.03
-0.88
0.5
-0.49
-0.09
0.15
0.01
0.08

> <PUBCHEM_SHAPE_SELFOVERLAP>
431.538

> <PUBCHEM_SHAPE_VOLUME>
114.2

> <PUBCHEM_COORDINATE_TYPE>
2
5
10

$$$$
