76423
  -OEChem-11012400353D

 26 25  0     0  0  0  0  0  0999 V2000
   -2.4181   -0.7746   -0.4237 O   0  0  0  0  0  0  0  0  0  0  0  0
    2.4984   -0.6829   -0.4358 O   0  0  0  0  0  0  0  0  0  0  0  0
   -0.0524    1.6252    0.3831 O   0  0  0  0  0  0  0  0  0  0  0  0
   -3.3289   -1.6663    1.3862 O   0  5  0  0  0  0  0  0  0  0  0  0
    3.4237   -1.5389    1.3849 O   0  5  0  0  0  0  0  0  0  0  0  0
   -0.1504    3.3501   -1.0017 O   0  5  0  0  0  0  0  0  0  0  0  0
   -4.6781   -0.9283   -0.2282 O   0  0  0  0  0  0  0  0  0  0  0  0
    4.7605   -0.7642   -0.2229 O   0  0  0  0  0  0  0  0  0  0  0  0
   -0.1263    3.7488    1.1919 O   0  0  0  0  0  0  0  0  0  0  0  0
   -3.5850   -1.1510    0.2974 N   0  3  0  0  0  0  0  0  0  0  0  0
    3.6712   -1.0201    0.2957 N   0  3  0  0  0  0  0  0  0  0  0  0
   -0.1152    3.0331    0.1878 N   0  3  0  0  0  0  0  0  0  0  0  0
    0.0254   -0.6411   -0.5683 C   0  0  0  0  0  0  0  0  0  0  0  0
   -1.2075   -1.0710    0.2608 C   0  0  0  0  0  0  0  0  0  0  0  0
    1.2928   -1.0138    0.2397 C   0  0  0  0  0  0  0  0  0  0  0  0
   -0.0435    0.8836   -0.8294 C   0  0  0  0  0  0  0  0  0  0  0  0
    0.0332   -1.3888   -1.9176 C   0  0  0  0  0  0  0  0  0  0  0  0
   -1.1470   -2.1535    0.4402 H   0  0  0  0  0  0  0  0  0  0  0  0
   -1.1908   -0.5541    1.2298 H   0  0  0  0  0  0  0  0  0  0  0  0
    1.2722   -2.0964    0.4282 H   0  0  0  0  0  0  0  0  0  0  0  0
    1.2595   -0.4935    1.2066 H   0  0  0  0  0  0  0  0  0  0  0  0
    0.8304    1.1729   -1.4290 H   0  0  0  0  0  0  0  0  0  0  0  0
   -0.9491    1.1072   -1.4094 H   0  0  0  0  0  0  0  0  0  0  0  0
    0.0639   -2.4736   -1.7666 H   0  0  0  0  0  0  0  0  0  0  0  0
    0.9039   -1.1108   -2.5215 H   0  0  0  0  0  0  0  0  0  0  0  0
   -0.8600   -1.1592   -2.5087 H   0  0  0  0  0  0  0  0  0  0  0  0
  1 10  1  0  0  0  0
  1 14  1  0  0  0  0
  2 11  1  0  0  0  0
  2 15  1  0  0  0  0
  3 12  1  0  0  0  0
  3 16  1  0  0  0  0
  4 10  1  0  0  0  0
  5 11  1  0  0  0  0
  6 12  1  0  0  0  0
  7 10  2  0  0  0  0
  8 11  2  0  0  0  0
  9 12  2  0  0  0  0
 13 14  1  0  0  0  0
 13 15  1  0  0  0  0
 13 16  1  0  0  0  0
 13 17  1  0  0  0  0
 14 18  1  0  0  0  0
 14 19  1  0  0  0  0
 15 20  1  0  0  0  0
 15 21  1  0  0  0  0
 16 22  1  0  0  0  0
 16 23  1  0  0  0  0
 17 24  1  0  0  0  0
 17 25  1  0  0  0  0
 17 26  1  0  0  0  0
M  CHG  6   4  -1   5  -1   6  -1  10   1  11   1  12   1
M  END
> <PUBCHEM_COMPOUND_CID>
76423

> <PUBCHEM_CONFORMER_RMSD>
0.8

> <PUBCHEM_CONFORMER_DIVERSEORDER>
1
12
2
4
3
11
9
5
10
8
7
6

> <PUBCHEM_MMFF94_PARTIAL_CHARGES>
15
1 -0.27
10 1.03
11 1.03
12 1.03
14 0.28
15 0.28
16 0.28
2 -0.27
3 -0.27
4 -0.52
5 -0.52
6 -0.52
7 -0.52
8 -0.52
9 -0.52

> <PUBCHEM_EFFECTIVE_ROTOR_COUNT>
9

> <PUBCHEM_PHARMACOPHORE_FEATURES>
7
1 17 hydrophobe
1 4 acceptor
1 5 acceptor
1 6 acceptor
1 7 acceptor
1 8 acceptor
1 9 acceptor

> <PUBCHEM_HEAVY_ATOM_COUNT>
17

> <PUBCHEM_ATOM_DEF_STEREO_COUNT>
0

> <PUBCHEM_ATOM_UDEF_STEREO_COUNT>
0

> <PUBCHEM_BOND_DEF_STEREO_COUNT>
0

> <PUBCHEM_BOND_UDEF_STEREO_COUNT>
0

> <PUBCHEM_ISOTOPIC_ATOM_COUNT>
0

> <PUBCHEM_COMPONENT_COUNT>
1

> <PUBCHEM_CACTVS_TAUTO_COUNT>
1

> <PUBCHEM_CONFORMER_ID>
00012A8700000001

> <PUBCHEM_MMFF94_ENERGY>
52.0724

> <PUBCHEM_FEATURE_SELFOVERLAP>
35.736

> <PUBCHEM_SHAPE_FINGERPRINT>
10465860 250 18333446543193449171
10756046 70 17915737785192049519
108231 29 18260833738574983514
11357001 24 18265605481863951514
124424 183 18261109686530131791
13134695 92 18339357573776052157
13275264 69 18335980857270582914
13294875 104 17555176113869564353
136203 1 18193556657853946960
17041 49 18339095855907404827
18186145 218 10881686840045104039
18410436 195 18410295838980285693
20097449 115 18410012160585092833
20388701 513 18196944274917484373
20510252 161 18336261233068195602
20671657 1 17981892144392441197
20711985 327 18343026618218634735
21041028 32 18412830204972202889
21524375 3 17261852379235639388
23402539 116 18272363153532974903
23419403 2 18190717877966684125
23557571 272 18269001885945572734
23558518 356 17476345111581548503
305870 269 17691967485178537093
3250762 1 17552931623884371887
4175511 71 18341053016142089791
57210444 14 8049604419046395513
57672749 33 18267584795830054409
58734985 188 18339644550204902991
58734987 110 18412271622963260745
68521 5 18336547114269824004
69474 34 18271234019172522688
81228 2 18050589355928327381

> <PUBCHEM_SHAPE_MULTIPOLES>
282.09
6.37
3.42
1.26
0.73
5.97
-0.19
-5.75
1.73
-0.46
0.56
0
-0.23
0.02

> <PUBCHEM_SHAPE_SELFOVERLAP>
545.272

> <PUBCHEM_SHAPE_VOLUME>
171.1

> <PUBCHEM_COORDINATE_TYPE>
2
5
10

$$$$
