12714127
  -OEChem-11012401223D

 22 23  0     1  0  0  0  0  0999 V2000
    1.1223   -0.7530   -0.4043 C   0  0  1  0  0  0  0  0  0  0  0  0
    1.1225    0.7527   -0.4042 C   0  0  2  0  0  0  0  0  0  0  0  0
    2.1987   -0.0001    0.3329 C   0  0  0  0  0  0  0  0  0  0  0  0
    0.0819   -1.5232    0.3448 C   0  0  0  0  0  0  0  0  0  0  0  0
    0.0823    1.5232    0.3448 C   0  0  0  0  0  0  0  0  0  0  0  0
   -1.3154   -1.2959   -0.2299 C   0  0  0  0  0  0  0  0  0  0  0  0
   -1.3150    1.2961   -0.2300 C   0  0  0  0  0  0  0  0  0  0  0  0
   -1.9774    0.0002    0.2458 C   0  0  0  0  0  0  0  0  0  0  0  0
    1.3939   -1.2401   -1.3344 H   0  0  0  0  0  0  0  0  0  0  0  0
    1.3942    1.2398   -1.3343 H   0  0  0  0  0  0  0  0  0  0  0  0
    2.1833   -0.0002    1.4159 H   0  0  0  0  0  0  0  0  0  0  0  0
    3.1943   -0.0002   -0.0949 H   0  0  0  0  0  0  0  0  0  0  0  0
    0.0954   -1.2889    1.4159 H   0  0  0  0  0  0  0  0  0  0  0  0
    0.3298   -2.5882    0.2593 H   0  0  0  0  0  0  0  0  0  0  0  0
    0.3303    2.5882    0.2591 H   0  0  0  0  0  0  0  0  0  0  0  0
    0.0958    1.2892    1.4159 H   0  0  0  0  0  0  0  0  0  0  0  0
   -1.9540   -2.1281    0.0919 H   0  0  0  0  0  0  0  0  0  0  0  0
   -1.2913   -1.3219   -1.3261 H   0  0  0  0  0  0  0  0  0  0  0  0
   -1.2909    1.3219   -1.3261 H   0  0  0  0  0  0  0  0  0  0  0  0
   -1.9535    2.1284    0.0918 H   0  0  0  0  0  0  0  0  0  0  0  0
   -3.0134    0.0003   -0.1158 H   0  0  0  0  0  0  0  0  0  0  0  0
   -2.0366    0.0002    1.3414 H   0  0  0  0  0  0  0  0  0  0  0  0
  1  2  1  0  0  0  0
  1  3  1  0  0  0  0
  1  4  1  0  0  0  0
  1  9  1  0  0  0  0
  2  3  1  0  0  0  0
  2  5  1  0  0  0  0
  2 10  1  0  0  0  0
  3 11  1  0  0  0  0
  3 12  1  0  0  0  0
  4  6  1  0  0  0  0
  4 13  1  0  0  0  0
  4 14  1  0  0  0  0
  5  7  1  0  0  0  0
  5 15  1  0  0  0  0
  5 16  1  0  0  0  0
  6  8  1  0  0  0  0
  6 17  1  0  0  0  0
  6 18  1  0  0  0  0
  7  8  1  0  0  0  0
  7 19  1  0  0  0  0
  7 20  1  0  0  0  0
  8 21  1  0  0  0  0
  8 22  1  0  0  0  0
M  END
> <PUBCHEM_COMPOUND_CID>
12714127

> <PUBCHEM_CONFORMER_RMSD>
0.4

> <PUBCHEM_CONFORMER_DIVERSEORDER>
1
2
3
4

> <PUBCHEM_MMFF94_PARTIAL_CHARGES>
9
1 -0.19
10 0.1
11 0.1
12 0.1
2 -0.19
3 -0.2
4 0.09
5 0.09
9 0.1

> <PUBCHEM_EFFECTIVE_ROTOR_COUNT>
1.2

> <PUBCHEM_PHARMACOPHORE_FEATURES>
1
7 1 2 4 5 6 7 8 rings

> <PUBCHEM_HEAVY_ATOM_COUNT>
8

> <PUBCHEM_ATOM_DEF_STEREO_COUNT>
2

> <PUBCHEM_ATOM_UDEF_STEREO_COUNT>
0

> <PUBCHEM_BOND_DEF_STEREO_COUNT>
0

> <PUBCHEM_BOND_UDEF_STEREO_COUNT>
0

> <PUBCHEM_ISOTOPIC_ATOM_COUNT>
0

> <PUBCHEM_COMPONENT_COUNT>
1

> <PUBCHEM_CACTVS_TAUTO_COUNT>
1

> <PUBCHEM_CONFORMER_ID>
00C2008F00000001

> <PUBCHEM_MMFF94_ENERGY>
11.351

> <PUBCHEM_FEATURE_SELFOVERLAP>
5.074

> <PUBCHEM_SHAPE_FINGERPRINT>
16945 1 18410575088973870534
18185500 45 18409728456520310083
21040471 1 18266462009763990692
23235685 24 18339079280953479997
23552423 10 18260836960137922494
241688 4 17905618696055373400
2748010 2 18050289171841901999
29004967 10 18413394236798115760
5084963 1 18342741814325531162
66348 1 17761777260610304533

> <PUBCHEM_SHAPE_MULTIPOLES>
164.64
2.46
1.76
0.72
0.15
0
0
0
0.1
-0.35
0.05
0.05
0
0

> <PUBCHEM_SHAPE_SELFOVERLAP>
325.631

> <PUBCHEM_SHAPE_VOLUME>
97.4

> <PUBCHEM_COORDINATE_TYPE>
2
5
10

$$$$
