5462892
  -OEChem-11012400523D

 36 37  0     0  0  0  0  0  0999 V2000
   -0.6548    0.3211    0.0172 O   0  0  0  0  0  0  0  0  0  0  0  0
    0.6550   -0.3209    0.0168 O   0  0  0  0  0  0  0  0  0  0  0  0
   -1.3640   -1.8813    0.0185 O   0  0  0  0  0  0  0  0  0  0  0  0
    1.3642    1.8816    0.0188 O   0  0  0  0  0  0  0  0  0  0  0  0
   -5.3968   -0.3111   -0.0028 C   0  0  0  0  0  0  0  0  0  0  0  0
    5.3968    0.3112   -0.0031 C   0  0  0  0  0  0  0  0  0  0  0  0
   -5.6450    0.9877    0.4107 C   0  0  0  0  0  0  0  0  0  0  0  0
    5.6446   -0.9878    0.4105 C   0  0  0  0  0  0  0  0  0  0  0  0
   -6.4221   -1.1412   -0.4263 C   0  0  0  0  0  0  0  0  0  0  0  0
    6.4223    1.1411   -0.4262 C   0  0  0  0  0  0  0  0  0  0  0  0
   -6.9540    1.4696    0.4007 C   0  0  0  0  0  0  0  0  0  0  0  0
    6.9535   -1.4699    0.4008 C   0  0  0  0  0  0  0  0  0  0  0  0
   -7.7310   -0.6594   -0.4365 C   0  0  0  0  0  0  0  0  0  0  0  0
    7.7312    0.6589   -0.4360 C   0  0  0  0  0  0  0  0  0  0  0  0
   -4.0139   -0.8198    0.0073 C   0  0  0  0  0  0  0  0  0  0  0  0
    4.0139    0.8201    0.0066 C   0  0  0  0  0  0  0  0  0  0  0  0
   -7.9969    0.6461   -0.0230 C   0  0  0  0  0  0  0  0  0  0  0  0
    7.9967   -0.6465   -0.0224 C   0  0  0  0  0  0  0  0  0  0  0  0
   -2.9182   -0.0473    0.0176 C   0  0  0  0  0  0  0  0  0  0  0  0
    2.9184    0.0477    0.0165 C   0  0  0  0  0  0  0  0  0  0  0  0
   -1.5796   -0.6797    0.0172 C   0  0  0  0  0  0  0  0  0  0  0  0
    1.5797    0.6799    0.0168 C   0  0  0  0  0  0  0  0  0  0  0  0
   -4.8686    1.6563    0.7686 H   0  0  0  0  0  0  0  0  0  0  0  0
    4.8679   -1.6563    0.7681 H   0  0  0  0  0  0  0  0  0  0  0  0
   -6.2309   -2.1600   -0.7527 H   0  0  0  0  0  0  0  0  0  0  0  0
    6.2314    2.1599   -0.7526 H   0  0  0  0  0  0  0  0  0  0  0  0
   -7.1624    2.4842    0.7274 H   0  0  0  0  0  0  0  0  0  0  0  0
    7.1616   -2.4847    0.7275 H   0  0  0  0  0  0  0  0  0  0  0  0
   -8.5434   -1.3004   -0.7664 H   0  0  0  0  0  0  0  0  0  0  0  0
    8.5438    1.2998   -0.7655 H   0  0  0  0  0  0  0  0  0  0  0  0
   -3.9175   -1.9033   -0.0048 H   0  0  0  0  0  0  0  0  0  0  0  0
    3.9177    1.9035   -0.0049 H   0  0  0  0  0  0  0  0  0  0  0  0
   -9.0163    1.0208   -0.0297 H   0  0  0  0  0  0  0  0  0  0  0  0
    9.0161   -1.0214   -0.0288 H   0  0  0  0  0  0  0  0  0  0  0  0
   -2.9506    1.0359    0.0031 H   0  0  0  0  0  0  0  0  0  0  0  0
    2.9508   -1.0355    0.0014 H   0  0  0  0  0  0  0  0  0  0  0  0
  1  2  1  0  0  0  0
  1 21  1  0  0  0  0
  2 22  1  0  0  0  0
  3 21  2  0  0  0  0
  4 22  2  0  0  0  0
  5  7  2  0  0  0  0
  5  9  1  0  0  0  0
  5 15  1  0  0  0  0
  6  8  2  0  0  0  0
  6 10  1  0  0  0  0
  6 16  1  0  0  0  0
  7 11  1  0  0  0  0
  7 23  1  0  0  0  0
  8 12  1  0  0  0  0
  8 24  1  0  0  0  0
  9 13  2  0  0  0  0
  9 25  1  0  0  0  0
 10 14  2  0  0  0  0
 10 26  1  0  0  0  0
 11 17  2  0  0  0  0
 11 27  1  0  0  0  0
 12 18  2  0  0  0  0
 12 28  1  0  0  0  0
 13 17  1  0  0  0  0
 13 29  1  0  0  0  0
 14 18  1  0  0  0  0
 14 30  1  0  0  0  0
 15 19  2  0  0  0  0
 15 31  1  0  0  0  0
 16 20  2  0  0  0  0
 16 32  1  0  0  0  0
 17 33  1  0  0  0  0
 18 34  1  0  0  0  0
 19 21  1  0  0  0  0
 19 35  1  0  0  0  0
 20 22  1  0  0  0  0
 20 36  1  0  0  0  0
M  END
> <PUBCHEM_COMPOUND_CID>
5462892

> <PUBCHEM_CONFORMER_RMSD>
0.8

> <PUBCHEM_CONFORMER_DIVERSEORDER>
1
42
7
67
62
36
31
84
21
5
65
6
59
11
86
15
13
51
40
66
45
75
83
54
33
12
25
72
27
46
4
68
82
70
19
26
32
49
9
44
61
58
87
64
38
34
20
18
80
69
16
10
47
50
52
2
17
56
39
53
37
60
88
78
74
28
63
29
43
41
24
14
3
35
57
8
81
23
73
48
79
76
22
55
71
30
77
85

> <PUBCHEM_MMFF94_PARTIAL_CHARGES>
36
1 -0.15
10 -0.15
11 -0.15
12 -0.15
13 -0.15
14 -0.15
15 -0.18
16 -0.18
17 -0.15
18 -0.15
19 -0.14
2 -0.15
20 -0.14
21 0.71
22 0.71
23 0.15
24 0.15
25 0.15
26 0.15
27 0.15
28 0.15
29 0.15
3 -0.57
30 0.15
31 0.15
32 0.15
33 0.15
34 0.15
35 0.15
36 0.15
4 -0.57
5 0.03
6 0.03
7 -0.15
8 -0.15
9 -0.15

> <PUBCHEM_EFFECTIVE_ROTOR_COUNT>
7

> <PUBCHEM_PHARMACOPHORE_FEATURES>
4
1 3 acceptor
1 4 acceptor
6 5 7 9 11 13 17 rings
6 6 8 10 12 14 18 rings

> <PUBCHEM_HEAVY_ATOM_COUNT>
22

> <PUBCHEM_ATOM_DEF_STEREO_COUNT>
0

> <PUBCHEM_ATOM_UDEF_STEREO_COUNT>
0

> <PUBCHEM_BOND_DEF_STEREO_COUNT>
2

> <PUBCHEM_BOND_UDEF_STEREO_COUNT>
0

> <PUBCHEM_ISOTOPIC_ATOM_COUNT>
0

> <PUBCHEM_COMPONENT_COUNT>
1

> <PUBCHEM_CACTVS_TAUTO_COUNT>
1

> <PUBCHEM_CONFORMER_ID>
00535B6C00000001

> <PUBCHEM_MMFF94_ENERGY>
58.0233

> <PUBCHEM_FEATURE_SELFOVERLAP>
20.298

> <PUBCHEM_SHAPE_FINGERPRINT>
10050765 1 18050568443426556079
10066227 49 17131562635003781702
100830 39 18338516336028924565
10299344 5 18408040710508826254
10319688 140 16806432618770256770
10670039 82 18343298138120854945
11135609 127 18190181368787043788
11315181 36 18334296488073954217
11524674 6 16917348164529346247
11719270 70 17775568624353389718
12091667 2 18343303687202256947
12592606 108 18410572907141423471
13885169 127 18411699868311266073
13914758 101 18272091573886276433
14251752 14 18202282502739078217
14251764 18 18410855464423129117
14251764 46 17060339625998795822
14933364 13 18260547826912613732
15183329 4 18410573980856484280
15461852 350 17632857564360418303
15849732 13 18410575101842968117
16120349 18 18187926226823761108
18006028 8 18131350812892729032
195137 175 18340778108318496512
20157964 124 10015869782614899732
20281389 69 18333447646862946213
20621476 8 18040433278433195477
21315763 28 18341894117084130129
21792934 111 18343011195671765160
22224240 67 14418134036590256145
232437 2 18411139138439341847
23521765 1 18341895198935613461
2835820 82 17824536384510139594
28498 318 18409165489629742806
335352 9 18410855485897965869
33684 2 18410573985156738891
34797466 226 13407079180964754594
5758199 1 17675924296242750579
59755656 520 18260542355821078535
67123 10 18410855481602998335
8209 1 18410855468718096388

> <PUBCHEM_SHAPE_MULTIPOLES>
429.27
29.66
1.47
0.67
0
0
0
0
-1.16
0
0.05
0
0
-1.11

> <PUBCHEM_SHAPE_SELFOVERLAP>
910.051

> <PUBCHEM_SHAPE_VOLUME>
238.8

> <PUBCHEM_COORDINATE_TYPE>
2
5
10

$$$$
