140129
  -OEChem-11012400383D

 42 42  0     0  0  0  0  0  0999 V2000
    2.3142    0.5289    0.0131 C   0  0  0  0  0  0  0  0  0  0  0  0
   -2.3896    0.3909    0.0992 C   0  0  0  0  0  0  0  0  0  0  0  0
    1.0474    1.2434    0.5613 C   0  0  0  0  0  0  0  0  0  0  0  0
   -1.4494    1.6376    0.1955 C   0  0  0  0  0  0  0  0  0  0  0  0
   -0.0629    1.5427   -0.4611 C   0  0  0  0  0  0  0  0  0  0  0  0
    2.0145   -0.8976   -0.5335 C   0  0  0  0  0  0  0  0  0  0  0  0
   -1.7013   -0.9404    0.5308 C   0  0  0  0  0  0  0  0  0  0  0  0
    1.3614   -1.8740    0.4626 C   0  0  0  0  0  0  0  0  0  0  0  0
   -1.0105   -1.7496   -0.5780 C   0  0  0  0  0  0  0  0  0  0  0  0
    0.1476   -2.6307   -0.0945 C   0  0  0  0  0  0  0  0  0  0  0  0
    2.9394    1.3654   -1.1220 C   0  0  0  0  0  0  0  0  0  0  0  0
    3.3496    0.4341    1.1546 C   0  0  0  0  0  0  0  0  0  0  0  0
   -3.0019    0.3019   -1.3128 C   0  0  0  0  0  0  0  0  0  0  0  0
   -3.5585    0.6473    1.0846 C   0  0  0  0  0  0  0  0  0  0  0  0
    1.3492    2.2045    1.0024 H   0  0  0  0  0  0  0  0  0  0  0  0
    0.6442    0.6746    1.4034 H   0  0  0  0  0  0  0  0  0  0  0  0
   -1.3237    1.9202    1.2495 H   0  0  0  0  0  0  0  0  0  0  0  0
   -1.9744    2.4866   -0.2649 H   0  0  0  0  0  0  0  0  0  0  0  0
    0.1660    2.5202   -0.9067 H   0  0  0  0  0  0  0  0  0  0  0  0
   -0.0694    0.8459   -1.2970 H   0  0  0  0  0  0  0  0  0  0  0  0
    2.9631   -1.3484   -0.8593 H   0  0  0  0  0  0  0  0  0  0  0  0
    1.4270   -0.8210   -1.4530 H   0  0  0  0  0  0  0  0  0  0  0  0
   -2.4594   -1.6097    0.9622 H   0  0  0  0  0  0  0  0  0  0  0  0
   -1.0223   -0.7327    1.3619 H   0  0  0  0  0  0  0  0  0  0  0  0
    2.1149   -2.6203    0.7476 H   0  0  0  0  0  0  0  0  0  0  0  0
    1.0828   -1.3871    1.3994 H   0  0  0  0  0  0  0  0  0  0  0  0
   -1.7631   -2.4064   -1.0344 H   0  0  0  0  0  0  0  0  0  0  0  0
   -0.6600   -1.1173   -1.3917 H   0  0  0  0  0  0  0  0  0  0  0  0
    0.4808   -3.2541   -0.9338 H   0  0  0  0  0  0  0  0  0  0  0  0
   -0.2222   -3.3196    0.6748 H   0  0  0  0  0  0  0  0  0  0  0  0
    3.8823    0.9236   -1.4640 H   0  0  0  0  0  0  0  0  0  0  0  0
    2.2753    1.4299   -1.9903 H   0  0  0  0  0  0  0  0  0  0  0  0
    3.1537    2.3870   -0.7883 H   0  0  0  0  0  0  0  0  0  0  0  0
    2.9549   -0.1122    2.0175 H   0  0  0  0  0  0  0  0  0  0  0  0
    4.2591   -0.0791    0.8225 H   0  0  0  0  0  0  0  0  0  0  0  0
    3.6423    1.4308    1.5047 H   0  0  0  0  0  0  0  0  0  0  0  0
   -3.6454   -0.5800   -1.4078 H   0  0  0  0  0  0  0  0  0  0  0  0
   -3.6191    1.1816   -1.5302 H   0  0  0  0  0  0  0  0  0  0  0  0
   -2.2392    0.2509   -2.0951 H   0  0  0  0  0  0  0  0  0  0  0  0
   -4.0624    1.5960    0.8668 H   0  0  0  0  0  0  0  0  0  0  0  0
   -4.3110   -0.1475    1.0238 H   0  0  0  0  0  0  0  0  0  0  0  0
   -3.2005    0.6892    2.1197 H   0  0  0  0  0  0  0  0  0  0  0  0
  1  3  1  0  0  0  0
  1  6  1  0  0  0  0
  1 11  1  0  0  0  0
  1 12  1  0  0  0  0
  2  4  1  0  0  0  0
  2  7  1  0  0  0  0
  2 13  1  0  0  0  0
  2 14  1  0  0  0  0
  3  5  1  0  0  0  0
  3 15  1  0  0  0  0
  3 16  1  0  0  0  0
  4  5  1  0  0  0  0
  4 17  1  0  0  0  0
  4 18  1  0  0  0  0
  5 19  1  0  0  0  0
  5 20  1  0  0  0  0
  6  8  1  0  0  0  0
  6 21  1  0  0  0  0
  6 22  1  0  0  0  0
  7  9  1  0  0  0  0
  7 23  1  0  0  0  0
  7 24  1  0  0  0  0
  8 10  1  0  0  0  0
  8 25  1  0  0  0  0
  8 26  1  0  0  0  0
  9 10  1  0  0  0  0
  9 27  1  0  0  0  0
  9 28  1  0  0  0  0
 10 29  1  0  0  0  0
 10 30  1  0  0  0  0
 11 31  1  0  0  0  0
 11 32  1  0  0  0  0
 11 33  1  0  0  0  0
 12 34  1  0  0  0  0
 12 35  1  0  0  0  0
 12 36  1  0  0  0  0
 13 37  1  0  0  0  0
 13 38  1  0  0  0  0
 13 39  1  0  0  0  0
 14 40  1  0  0  0  0
 14 41  1  0  0  0  0
 14 42  1  0  0  0  0
M  END
> <PUBCHEM_COMPOUND_CID>
140129

> <PUBCHEM_CONFORMER_RMSD>
0.6

> <PUBCHEM_CONFORMER_DIVERSEORDER>
1
3
4
2

> <PUBCHEM_MMFF94_PARTIAL_CHARGES>
0

> <PUBCHEM_EFFECTIVE_ROTOR_COUNT>
2

> <PUBCHEM_PHARMACOPHORE_FEATURES>
2
3 1 11 12 hydrophobe
3 2 13 14 hydrophobe

> <PUBCHEM_HEAVY_ATOM_COUNT>
14

> <PUBCHEM_ATOM_DEF_STEREO_COUNT>
0

> <PUBCHEM_ATOM_UDEF_STEREO_COUNT>
0

> <PUBCHEM_BOND_DEF_STEREO_COUNT>
0

> <PUBCHEM_BOND_UDEF_STEREO_COUNT>
0

> <PUBCHEM_ISOTOPIC_ATOM_COUNT>
0

> <PUBCHEM_COMPONENT_COUNT>
1

> <PUBCHEM_CACTVS_TAUTO_COUNT>
1

> <PUBCHEM_CONFORMER_ID>
0002236100000001

> <PUBCHEM_MMFF94_ENERGY>
49.7478

> <PUBCHEM_FEATURE_SELFOVERLAP>
10.149

> <PUBCHEM_SHAPE_FINGERPRINT>
10980938 120 18340774736863588611
11132069 177 18339631330775698432
12382932 28 18413105086762372008
12696612 119 17979078184672743055
13618510 140 18408888451122023428
13897977 150 18409729539094622851
14251711 518 18196367009748803967
14251717 144 18412256212689167959
14817 1 14296441408267559519
15309172 13 18410582798740996729
15775835 57 18273498961527987795
16945 1 18411699897948736753
17990270 104 17977104556837034891
19930374 2 17971728039899085444
20201158 50 18335696113776325737
20645476 183 17750525142243107998
21524375 3 18411415137369939654
22802520 49 18129122141646660070
230 275 18409164381459666986
2334 1 17906730663009504624
23463225 33 18333730195702352024
257057 1 17038083036556846451
2748010 2 18410864273422639510
2897 32 18266741281490978846
44154327 71 18335997418701587573
449060 62 18339935813828734849
528862 383 18335985259796781179
57005193 9 18337935844705463974
581208 293 18411978044373233301
63268167 104 18413103940069433243
66348 1 18338799996410005847
7364860 26 18056478353081489806
81228 2 17907575087976780907

> <PUBCHEM_SHAPE_MULTIPOLES>
288.11
5.31
2.39
1.13
0.54
1.33
-0.06
-1.84
0.46
-0.36
-0.14
0.06
-0.2
-0.3

> <PUBCHEM_SHAPE_SELFOVERLAP>
547.735

> <PUBCHEM_SHAPE_VOLUME>
178.2

> <PUBCHEM_COORDINATE_TYPE>
2
5
10

$$$$
