70455
  -OEChem-11012401143D

 38 37  0     0  0  0  0  0  0999 V2000
    1.4545    1.1696    0.0034 N   0  0  0  0  0  0  0  0  0  0  0  0
    1.3641   -1.2757   -0.0244 N   0  0  0  0  0  0  0  0  0  0  0  0
   -1.4552   -1.1689   -0.0109 N   0  0  0  0  0  0  0  0  0  0  0  0
   -1.3604    1.2760    0.0173 N   0  0  0  0  0  0  0  0  0  0  0  0
    0.6928   -0.0265   -0.0073 C   0  0  0  0  0  0  0  0  0  0  0  0
   -0.6909    0.0259   -0.0003 C   0  0  0  0  0  0  0  0  0  0  0  0
    1.3387    2.1640   -1.0598 C   0  0  0  0  0  0  0  0  0  0  0  0
    2.5995    1.3580    0.8941 C   0  0  0  0  0  0  0  0  0  0  0  0
    1.1864   -2.2589    1.0407 C   0  0  0  0  0  0  0  0  0  0  0  0
    2.4719   -1.5571   -0.9369 C   0  0  0  0  0  0  0  0  0  0  0  0
   -2.3930   -1.5101    1.0584 C   0  0  0  0  0  0  0  0  0  0  0  0
   -1.5568   -2.0067   -1.2027 C   0  0  0  0  0  0  0  0  0  0  0  0
   -1.1710    2.2343    1.1028 C   0  0  0  0  0  0  0  0  0  0  0  0
   -2.4805    1.5761   -0.8743 C   0  0  0  0  0  0  0  0  0  0  0  0
    2.2786    2.2217   -1.6201 H   0  0  0  0  0  0  0  0  0  0  0  0
    1.1322    3.1534   -0.6401 H   0  0  0  0  0  0  0  0  0  0  0  0
    0.5519    1.9207   -1.7813 H   0  0  0  0  0  0  0  0  0  0  0  0
    2.4845    0.7703    1.8112 H   0  0  0  0  0  0  0  0  0  0  0  0
    2.6905    2.4096    1.1859 H   0  0  0  0  0  0  0  0  0  0  0  0
    3.5255    1.0538    0.3964 H   0  0  0  0  0  0  0  0  0  0  0  0
    0.5667   -1.8747    1.8579 H   0  0  0  0  0  0  0  0  0  0  0  0
    2.1552   -2.5314    1.4740 H   0  0  0  0  0  0  0  0  0  0  0  0
    0.7200   -3.1664    0.6446 H   0  0  0  0  0  0  0  0  0  0  0  0
    2.4740   -2.6141   -1.2234 H   0  0  0  0  0  0  0  0  0  0  0  0
    3.4291   -1.3237   -0.4603 H   0  0  0  0  0  0  0  0  0  0  0  0
    2.3839   -0.9665   -1.8551 H   0  0  0  0  0  0  0  0  0  0  0  0
   -2.4228   -2.5929    1.2182 H   0  0  0  0  0  0  0  0  0  0  0  0
   -3.3998   -1.1648    0.8034 H   0  0  0  0  0  0  0  0  0  0  0  0
   -2.0946   -1.0432    2.0032 H   0  0  0  0  0  0  0  0  0  0  0  0
   -2.5441   -1.8896   -1.6617 H   0  0  0  0  0  0  0  0  0  0  0  0
   -1.4142   -3.0610   -0.9444 H   0  0  0  0  0  0  0  0  0  0  0  0
   -0.8049   -1.7400   -1.9532 H   0  0  0  0  0  0  0  0  0  0  0  0
   -2.1076    2.3584    1.6578 H   0  0  0  0  0  0  0  0  0  0  0  0
   -0.8786    3.2117    0.7068 H   0  0  0  0  0  0  0  0  0  0  0  0
   -0.4135    1.9099    1.8238 H   0  0  0  0  0  0  0  0  0  0  0  0
   -3.4226    1.2473   -0.4243 H   0  0  0  0  0  0  0  0  0  0  0  0
   -2.3570    1.0711   -1.8382 H   0  0  0  0  0  0  0  0  0  0  0  0
   -2.5440    2.6515   -1.0714 H   0  0  0  0  0  0  0  0  0  0  0  0
  1  5  1  0  0  0  0
  1  7  1  0  0  0  0
  1  8  1  0  0  0  0
  2  5  1  0  0  0  0
  2  9  1  0  0  0  0
  2 10  1  0  0  0  0
  3  6  1  0  0  0  0
  3 11  1  0  0  0  0
  3 12  1  0  0  0  0
  4  6  1  0  0  0  0
  4 13  1  0  0  0  0
  4 14  1  0  0  0  0
  5  6  2  0  0  0  0
  7 15  1  0  0  0  0
  7 16  1  0  0  0  0
  7 17  1  0  0  0  0
  8 18  1  0  0  0  0
  8 19  1  0  0  0  0
  8 20  1  0  0  0  0
  9 21  1  0  0  0  0
  9 22  1  0  0  0  0
  9 23  1  0  0  0  0
 10 24  1  0  0  0  0
 10 25  1  0  0  0  0
 10 26  1  0  0  0  0
 11 27  1  0  0  0  0
 11 28  1  0  0  0  0
 11 29  1  0  0  0  0
 12 30  1  0  0  0  0
 12 31  1  0  0  0  0
 12 32  1  0  0  0  0
 13 33  1  0  0  0  0
 13 34  1  0  0  0  0
 13 35  1  0  0  0  0
 14 36  1  0  0  0  0
 14 37  1  0  0  0  0
 14 38  1  0  0  0  0
M  END
> <PUBCHEM_COMPOUND_CID>
70455

> <PUBCHEM_CONFORMER_RMSD>
0.6

> <PUBCHEM_CONFORMER_DIVERSEORDER>
1
2
3

> <PUBCHEM_MMFF94_PARTIAL_CHARGES>
14
1 -0.84
10 0.37
11 0.37
12 0.37
13 0.37
14 0.37
2 -0.84
3 -0.84
4 -0.84
5 0.2
6 0.2
7 0.37
8 0.37
9 0.37

> <PUBCHEM_EFFECTIVE_ROTOR_COUNT>
4

> <PUBCHEM_PHARMACOPHORE_FEATURES>
4
1 1 cation
1 2 cation
1 3 cation
1 4 cation

> <PUBCHEM_HEAVY_ATOM_COUNT>
14

> <PUBCHEM_ATOM_DEF_STEREO_COUNT>
0

> <PUBCHEM_ATOM_UDEF_STEREO_COUNT>
0

> <PUBCHEM_BOND_DEF_STEREO_COUNT>
0

> <PUBCHEM_BOND_UDEF_STEREO_COUNT>
0

> <PUBCHEM_ISOTOPIC_ATOM_COUNT>
0

> <PUBCHEM_COMPONENT_COUNT>
1

> <PUBCHEM_CACTVS_TAUTO_COUNT>
1

> <PUBCHEM_CONFORMER_ID>
0001133700000001

> <PUBCHEM_MMFF94_ENERGY>
82.6043

> <PUBCHEM_FEATURE_SELFOVERLAP>
20.356

> <PUBCHEM_SHAPE_FINGERPRINT>
11680986 33 18410291367797868395
12423570 1 16396052839695576395
12524768 44 18196650692312064678
13380536 237 18194651883104419744
14251711 518 18411133623701437695
14614273 12 18264484156023737965
14993402 34 17979072682645271533
161256 15 18339939202109837174
16945 1 18335710441755544181
18186145 218 18194108630493757373
193761 8 18410575076078425577
20511035 2 18340209583365188517
22344851 341 18408881841093560546
2334 1 18409449210884768690
23419403 2 16323349080549180877
23552423 10 18334860536494673799
241688 4 18262525797044459464
2748010 2 18410856542502138046
3060560 45 17762311653769611973
4369600 1 17621897807973691812
5084963 1 18269566107478332008
53812653 8 17900549187427257156
53812654 25 17904465317085395122
589210 1 18410575076078425569
66348 1 18194684765379039848

> <PUBCHEM_SHAPE_MULTIPOLES>
268.19
3.56
3.08
1.24
0.18
0.07
0
-0.03
-0.07
-0.05
0.05
-0.09
-0.07
0.12

> <PUBCHEM_SHAPE_SELFOVERLAP>
497.436

> <PUBCHEM_SHAPE_VOLUME>
172

> <PUBCHEM_COORDINATE_TYPE>
2
5
10

$$$$
