17656
  -OEChem-11012400383D

 21 20  0     0  0  0  0  0  0999 V2000
   -0.9673    0.3060    0.6758 C   0  0  0  0  0  0  0  0  0  0  0  0
   -1.8807    0.1669   -0.5416 C   0  0  0  0  0  0  0  0  0  0  0  0
    0.4063    0.7652    0.2762 C   0  0  0  0  0  0  0  0  0  0  0  0
    1.4840    0.0036    0.0087 C   0  0  0  0  0  0  0  0  0  0  0  0
   -3.2798   -0.2731   -0.1395 C   0  0  0  0  0  0  0  0  0  0  0  0
    2.8352    0.5278   -0.3875 C   0  0  0  0  0  0  0  0  0  0  0  0
    1.4024   -1.4964    0.1078 C   0  0  0  0  0  0  0  0  0  0  0  0
   -0.9339   -0.6287    1.2451 H   0  0  0  0  0  0  0  0  0  0  0  0
   -1.3849    1.0504    1.3658 H   0  0  0  0  0  0  0  0  0  0  0  0
   -1.4653   -0.5654   -1.2444 H   0  0  0  0  0  0  0  0  0  0  0  0
   -1.9456    1.1231   -1.0750 H   0  0  0  0  0  0  0  0  0  0  0  0
    0.5158    1.8448    0.1824 H   0  0  0  0  0  0  0  0  0  0  0  0
   -3.7405    0.4540    0.5368 H   0  0  0  0  0  0  0  0  0  0  0  0
   -3.9172   -0.3652   -1.0245 H   0  0  0  0  0  0  0  0  0  0  0  0
   -3.2557   -1.2446    0.3644 H   0  0  0  0  0  0  0  0  0  0  0  0
    3.1140    0.1565   -1.3788 H   0  0  0  0  0  0  0  0  0  0  0  0
    2.8477    1.6221   -0.4244 H   0  0  0  0  0  0  0  0  0  0  0  0
    3.5946    0.2087    0.3334 H   0  0  0  0  0  0  0  0  0  0  0  0
    1.9657   -1.8448    0.9798 H   0  0  0  0  0  0  0  0  0  0  0  0
    0.3869   -1.8917    0.1786 H   0  0  0  0  0  0  0  0  0  0  0  0
    1.8445   -1.9520   -0.7856 H   0  0  0  0  0  0  0  0  0  0  0  0
  1  2  1  0  0  0  0
  1  3  1  0  0  0  0
  1  8  1  0  0  0  0
  1  9  1  0  0  0  0
  2  5  1  0  0  0  0
  2 10  1  0  0  0  0
  2 11  1  0  0  0  0
  3  4  2  0  0  0  0
  3 12  1  0  0  0  0
  4  6  1  0  0  0  0
  4  7  1  0  0  0  0
  5 13  1  0  0  0  0
  5 14  1  0  0  0  0
  5 15  1  0  0  0  0
  6 16  1  0  0  0  0
  6 17  1  0  0  0  0
  6 18  1  0  0  0  0
  7 19  1  0  0  0  0
  7 20  1  0  0  0  0
  7 21  1  0  0  0  0
M  END
> <PUBCHEM_COMPOUND_CID>
17656

> <PUBCHEM_CONFORMER_RMSD>
0.4

> <PUBCHEM_CONFORMER_DIVERSEORDER>
1
10
8
5
4
6
3
9
7
2

> <PUBCHEM_MMFF94_PARTIAL_CHARGES>
6
1 0.14
12 0.15
3 -0.29
4 -0.28
6 0.14
7 0.14

> <PUBCHEM_EFFECTIVE_ROTOR_COUNT>
2

> <PUBCHEM_PHARMACOPHORE_FEATURES>
2
1 5 hydrophobe
3 4 6 7 hydrophobe

> <PUBCHEM_HEAVY_ATOM_COUNT>
7

> <PUBCHEM_ATOM_DEF_STEREO_COUNT>
0

> <PUBCHEM_ATOM_UDEF_STEREO_COUNT>
0

> <PUBCHEM_BOND_DEF_STEREO_COUNT>
0

> <PUBCHEM_BOND_UDEF_STEREO_COUNT>
0

> <PUBCHEM_ISOTOPIC_ATOM_COUNT>
0

> <PUBCHEM_COMPONENT_COUNT>
1

> <PUBCHEM_CACTVS_TAUTO_COUNT>
1

> <PUBCHEM_CONFORMER_ID>
000044F800000001

> <PUBCHEM_MMFF94_ENERGY>
1.4557

> <PUBCHEM_FEATURE_SELFOVERLAP>
10.149

> <PUBCHEM_SHAPE_FINGERPRINT>
12897270 3 18335421278813844997
12932764 1 17846206757358581161
14390081 3 14996278115679052349
15310529 11 18335977593311696005
21293036 1 18339368560228548620
23552333 60 18272650108518391298
23552423 10 18192997015120314883
29004967 10 18408324384440279337
5460574 1 9511464424471398401

> <PUBCHEM_SHAPE_MULTIPOLES>
144.06
4.56
1.09
0.76
1.99
0.39
0.02
0.09
-0.8
-0.54
0.05
0.08
-0.04
-0.13

> <PUBCHEM_SHAPE_SELFOVERLAP>
253.636

> <PUBCHEM_SHAPE_VOLUME>
96

> <PUBCHEM_COORDINATE_TYPE>
2
5
10

$$$$
