68238
  -OEChem-11012401003D

 24 24  0     0  0  0  0  0  0999 V2000
    0.0015    2.6571   -0.0445 O   0  0  0  0  0  0  0  0  0  0  0  0
   -0.0018   -2.6572    0.0373 O   0  0  0  0  0  0  0  0  0  0  0  0
    1.2849   -0.6723   -0.0022 C   0  0  0  0  0  0  0  0  0  0  0  0
    1.2858    0.6708    0.0035 C   0  0  0  0  0  0  0  0  0  0  0  0
   -1.2857   -0.6707   -0.0024 C   0  0  0  0  0  0  0  0  0  0  0  0
   -1.2847    0.6724    0.0036 C   0  0  0  0  0  0  0  0  0  0  0  0
    0.0008    1.4276   -0.0111 C   0  0  0  0  0  0  0  0  0  0  0  0
   -0.0010   -1.4276    0.0089 C   0  0  0  0  0  0  0  0  0  0  0  0
    2.5161   -1.5380   -0.0367 C   0  0  0  0  0  0  0  0  0  0  0  0
    2.5183    1.5350    0.0402 C   0  0  0  0  0  0  0  0  0  0  0  0
   -2.5182   -1.5349   -0.0372 C   0  0  0  0  0  0  0  0  0  0  0  0
   -2.5161    1.5378    0.0408 C   0  0  0  0  0  0  0  0  0  0  0  0
    2.4096   -2.3297   -0.7870 H   0  0  0  0  0  0  0  0  0  0  0  0
    2.6747   -2.0071    0.9398 H   0  0  0  0  0  0  0  0  0  0  0  0
    3.4240   -0.9937   -0.3054 H   0  0  0  0  0  0  0  0  0  0  0  0
    2.6810    2.0014   -0.9369 H   0  0  0  0  0  0  0  0  0  0  0  0
    2.4102    2.3286    0.7881 H   0  0  0  0  0  0  0  0  0  0  0  0
    3.4244    0.9899    0.3135 H   0  0  0  0  0  0  0  0  0  0  0  0
   -2.6779   -2.0035    0.9393 H   0  0  0  0  0  0  0  0  0  0  0  0
   -2.4124   -2.3269   -0.7872 H   0  0  0  0  0  0  0  0  0  0  0  0
   -3.4252   -0.9893   -0.3065 H   0  0  0  0  0  0  0  0  0  0  0  0
   -2.6788    2.0044   -0.9362 H   0  0  0  0  0  0  0  0  0  0  0  0
   -3.4227    0.9937    0.3146 H   0  0  0  0  0  0  0  0  0  0  0  0
   -2.4070    2.3314    0.7887 H   0  0  0  0  0  0  0  0  0  0  0  0
  1  7  2  0  0  0  0
  2  8  2  0  0  0  0
  3  4  2  0  0  0  0
  3  8  1  0  0  0  0
  3  9  1  0  0  0  0
  4  7  1  0  0  0  0
  4 10  1  0  0  0  0
  5  6  2  0  0  0  0
  5  8  1  0  0  0  0
  5 11  1  0  0  0  0
  6  7  1  0  0  0  0
  6 12  1  0  0  0  0
  9 13  1  0  0  0  0
  9 14  1  0  0  0  0
  9 15  1  0  0  0  0
 10 16  1  0  0  0  0
 10 17  1  0  0  0  0
 10 18  1  0  0  0  0
 11 19  1  0  0  0  0
 11 20  1  0  0  0  0
 11 21  1  0  0  0  0
 12 22  1  0  0  0  0
 12 23  1  0  0  0  0
 12 24  1  0  0  0  0
M  END
> <PUBCHEM_COMPOUND_CID>
68238

> <PUBCHEM_CONFORMER_RMSD>
0.4

> <PUBCHEM_CONFORMER_DIVERSEORDER>
1

> <PUBCHEM_MMFF94_PARTIAL_CHARGES>
12
1 -0.57
10 0.14
11 0.14
12 0.14
2 -0.57
3 -0.12
4 -0.12
5 -0.12
6 -0.12
7 0.54
8 0.54
9 0.14

> <PUBCHEM_EFFECTIVE_ROTOR_COUNT>
0

> <PUBCHEM_PHARMACOPHORE_FEATURES>
3
1 1 acceptor
1 2 acceptor
6 3 4 5 6 7 8 rings

> <PUBCHEM_HEAVY_ATOM_COUNT>
12

> <PUBCHEM_ATOM_DEF_STEREO_COUNT>
0

> <PUBCHEM_ATOM_UDEF_STEREO_COUNT>
0

> <PUBCHEM_BOND_DEF_STEREO_COUNT>
0

> <PUBCHEM_BOND_UDEF_STEREO_COUNT>
0

> <PUBCHEM_ISOTOPIC_ATOM_COUNT>
0

> <PUBCHEM_COMPONENT_COUNT>
1

> <PUBCHEM_CACTVS_TAUTO_COUNT>
8

> <PUBCHEM_CONFORMER_ID>
00010A8E00000001

> <PUBCHEM_MMFF94_ENERGY>
22.802

> <PUBCHEM_FEATURE_SELFOVERLAP>
15.223

> <PUBCHEM_SHAPE_FINGERPRINT>
10967382 1 18194401087152684609
11206711 2 18265615570678956589
13140716 1 18410575041713406435
16945 1 18122344850245287940
193761 8 18410855460128161799
20588541 1 18049726509619848674
21040471 1 18410575132092536864
21501502 16 18411138038922017028
2334 1 18410575119022817287
23552423 10 18334016085894964806
23559900 14 18198912410207874974
241688 4 18410573955086706394
2748010 2 18410575084663079031
5084963 1 18202565076874294082
528886 8 18339074874300969851
53812653 166 18271524311574985560
66348 1 18410573967971581959

> <PUBCHEM_SHAPE_MULTIPOLES>
235.22
3.4
2.82
0.6
0
0
0
0
0
0
0
0
0
0

> <PUBCHEM_SHAPE_SELFOVERLAP>
486.336

> <PUBCHEM_SHAPE_VOLUME>
136.1

> <PUBCHEM_COORDINATE_TYPE>
2
5
10

$$$$
