67510
  -OEChem-11012401153D

 16 17  0     1  0  0  0  0  0999 V2000
   -0.6921   -0.7459   -0.3938 C   0  0  2  0  0  0  0  0  0  0  0  0
   -0.6924    0.7457   -0.3938 C   0  0  1  0  0  0  0  0  0  0  0  0
   -1.4832   -0.0001    0.6488 C   0  0  0  0  0  0  0  0  0  0  0  0
    0.7124   -1.2159   -0.1482 C   0  0  0  0  0  0  0  0  0  0  0  0
    0.7120    1.2162   -0.1482 C   0  0  0  0  0  0  0  0  0  0  0  0
    1.4432    0.0001    0.4353 C   0  0  0  0  0  0  0  0  0  0  0  0
   -1.2184   -1.2834   -1.1681 H   0  0  0  0  0  0  0  0  0  0  0  0
   -1.2189    1.2829   -1.1681 H   0  0  0  0  0  0  0  0  0  0  0  0
   -2.5626   -0.0004    0.5531 H   0  0  0  0  0  0  0  0  0  0  0  0
   -1.1313    0.0000    1.6725 H   0  0  0  0  0  0  0  0  0  0  0  0
    1.1717   -1.5099   -1.0986 H   0  0  0  0  0  0  0  0  0  0  0  0
    0.7451   -2.0716    0.5325 H   0  0  0  0  0  0  0  0  0  0  0  0
    0.7445    2.0718    0.5326 H   0  0  0  0  0  0  0  0  0  0  0  0
    1.1712    1.5103   -1.0986 H   0  0  0  0  0  0  0  0  0  0  0  0
    1.3409    0.0001    1.5274 H   0  0  0  0  0  0  0  0  0  0  0  0
    2.5122    0.0003    0.2034 H   0  0  0  0  0  0  0  0  0  0  0  0
  1  2  1  0  0  0  0
  1  3  1  0  0  0  0
  1  4  1  0  0  0  0
  1  7  1  0  0  0  0
  2  3  1  0  0  0  0
  2  5  1  0  0  0  0
  2  8  1  0  0  0  0
  3  9  1  0  0  0  0
  3 10  1  0  0  0  0
  4  6  1  0  0  0  0
  4 11  1  0  0  0  0
  4 12  1  0  0  0  0
  5  6  1  0  0  0  0
  5 13  1  0  0  0  0
  5 14  1  0  0  0  0
  6 15  1  0  0  0  0
  6 16  1  0  0  0  0
M  END
> <PUBCHEM_COMPOUND_CID>
67510

> <PUBCHEM_CONFORMER_RMSD>
0.4

> <PUBCHEM_CONFORMER_DIVERSEORDER>
1
2

> <PUBCHEM_MMFF94_PARTIAL_CHARGES>
9
1 -0.19
10 0.1
2 -0.19
3 -0.2
4 0.09
5 0.09
7 0.1
8 0.1
9 0.1

> <PUBCHEM_EFFECTIVE_ROTOR_COUNT>
0.8

> <PUBCHEM_PHARMACOPHORE_FEATURES>
1
6 1 2 3 4 5 6 rings

> <PUBCHEM_HEAVY_ATOM_COUNT>
6

> <PUBCHEM_ATOM_DEF_STEREO_COUNT>
0

> <PUBCHEM_ATOM_UDEF_STEREO_COUNT>
2

> <PUBCHEM_BOND_DEF_STEREO_COUNT>
0

> <PUBCHEM_BOND_UDEF_STEREO_COUNT>
0

> <PUBCHEM_ISOTOPIC_ATOM_COUNT>
0

> <PUBCHEM_COMPONENT_COUNT>
1

> <PUBCHEM_CACTVS_TAUTO_COUNT>
1

> <PUBCHEM_CONFORMER_ID>
000107B600000001

> <PUBCHEM_MMFF94_ENERGY>
16.0004

> <PUBCHEM_FEATURE_SELFOVERLAP>
5.074

> <PUBCHEM_SHAPE_FINGERPRINT>
20096714 4 18342181127846307048
21015797 1 9362631244711460957
21040471 1 18268996560186047205
29004967 10 18260275117948135299
5943 1 7794561491350097645

> <PUBCHEM_SHAPE_MULTIPOLES>
123.48
1.66
1.29
0.78
0.03
0
-0.04
0
-0.3
-0.22
0.15
0.09
0
0

> <PUBCHEM_SHAPE_SELFOVERLAP>
251.077

> <PUBCHEM_SHAPE_VOLUME>
71.7

> <PUBCHEM_COORDINATE_TYPE>
2
5
10

$$$$
