13432696
  -OEChem-11012400363D

 33 32  0     0  0  0  0  0  0999 V2000
    0.8506    1.5863   -2.2959 O   0  0  0  0  0  0  0  0  0  0  0  0
   -0.8583    1.6183    2.2863 O   0  0  0  0  0  0  0  0  0  0  0  0
   -2.0688    1.2135   -1.2056 O   0  5  0  0  0  0  0  0  0  0  0  0
    2.0478    1.2195    1.2197 O   0  5  0  0  0  0  0  0  0  0  0  0
   -2.5206   -1.0343   -0.2460 O   0  0  0  0  0  0  0  0  0  0  0  0
    2.5250   -1.0199    0.2529 O   0  0  0  0  0  0  0  0  0  0  0  0
   -1.2233    0.7089   -0.3890 N   0  3  0  0  0  0  0  0  0  0  0  0
    1.2147    0.7137    0.3911 N   0  3  0  0  0  0  0  0  0  0  0  0
   -1.3372   -0.4207    0.1931 N   0  0  0  0  0  0  0  0  0  0  0  0
    1.3423   -0.4120   -0.1956 N   0  0  0  0  0  0  0  0  0  0  0  0
   -0.0041    1.5118   -0.0042 C   0  0  0  0  0  0  0  0  0  0  0  0
    0.4314    2.3870   -1.1961 C   0  0  0  0  0  0  0  0  0  0  0  0
   -0.4387    2.4034    1.1755 C   0  0  0  0  0  0  0  0  0  0  0  0
   -2.6336   -2.2883    0.4094 C   0  0  0  0  0  0  0  0  0  0  0  0
    2.6534   -2.2697   -0.4076 C   0  0  0  0  0  0  0  0  0  0  0  0
   -3.9047   -2.9711   -0.0485 C   0  0  0  0  0  0  0  0  0  0  0  0
    3.9242   -2.9464    0.0604 C   0  0  0  0  0  0  0  0  0  0  0  0
   -0.3753    3.0408   -1.5439 H   0  0  0  0  0  0  0  0  0  0  0  0
    1.2731    3.0335   -0.9213 H   0  0  0  0  0  0  0  0  0  0  0  0
    0.3622    3.0715    1.5106 H   0  0  0  0  0  0  0  0  0  0  0  0
   -1.2870    3.0362    0.8908 H   0  0  0  0  0  0  0  0  0  0  0  0
    1.5659    1.0092   -1.9784 H   0  0  0  0  0  0  0  0  0  0  0  0
   -0.1185    1.0325    2.5212 H   0  0  0  0  0  0  0  0  0  0  0  0
   -1.7667   -2.9117    0.1621 H   0  0  0  0  0  0  0  0  0  0  0  0
   -2.6639   -2.1349    1.4941 H   0  0  0  0  0  0  0  0  0  0  0  0
    1.7881   -2.9002   -0.1729 H   0  0  0  0  0  0  0  0  0  0  0  0
    2.6943   -2.1104   -1.4911 H   0  0  0  0  0  0  0  0  0  0  0  0
   -4.0236   -3.9430    0.4384 H   0  0  0  0  0  0  0  0  0  0  0  0
   -4.7787   -2.3522    0.1800 H   0  0  0  0  0  0  0  0  0  0  0  0
   -3.8942   -3.1182   -1.1335 H   0  0  0  0  0  0  0  0  0  0  0  0
    4.0548   -3.9150   -0.4301 H   0  0  0  0  0  0  0  0  0  0  0  0
    4.7964   -2.3205   -0.1555 H   0  0  0  0  0  0  0  0  0  0  0  0
    3.9029   -3.0993    1.1445 H   0  0  0  0  0  0  0  0  0  0  0  0
  1 12  1  0  0  0  0
  1 22  1  0  0  0  0
  2 13  1  0  0  0  0
  2 23  1  0  0  0  0
  3  7  1  0  0  0  0
  4  8  1  0  0  0  0
  5  9  1  0  0  0  0
  5 14  1  0  0  0  0
  6 10  1  0  0  0  0
  6 15  1  0  0  0  0
  7  9  2  0  0  0  0
  7 11  1  0  0  0  0
  8 10  2  0  0  0  0
  8 11  1  0  0  0  0
 11 12  1  0  0  0  0
 11 13  1  0  0  0  0
 12 18  1  0  0  0  0
 12 19  1  0  0  0  0
 13 20  1  0  0  0  0
 13 21  1  0  0  0  0
 14 16  1  0  0  0  0
 14 24  1  0  0  0  0
 14 25  1  0  0  0  0
 15 17  1  0  0  0  0
 15 26  1  0  0  0  0
 15 27  1  0  0  0  0
 16 28  1  0  0  0  0
 16 29  1  0  0  0  0
 16 30  1  0  0  0  0
 17 31  1  0  0  0  0
 17 32  1  0  0  0  0
 17 33  1  0  0  0  0
M  CHG  4   3  -1   4  -1   7   1   8   1
M  END
> <PUBCHEM_COMPOUND_CID>
13432696

> <PUBCHEM_CONFORMER_RMSD>
0.8

> <PUBCHEM_CONFORMER_DIVERSEORDER>
1
112
125
144
164
24
8
102
114
49
3
154
139
53
22
74
81
10
127
38
120
70
43
36
138
48
7
71
92
97
75
44
148
96
130
50
123
23
14
54
137
149
121
63
32
62
118
51
55
131
21
60
155
69
105
65
117
82
6
66
161
57
113
73
146
108
47
28
9
39
165
119
34
122
77
79
72
27
17
140
46
150
157
56
104
35
107
59
152
115
26
19
86
141
91
166
12
147
99
83
76
20
136
25
80
18
143
78
167
5
89
30
16
95
45
68
61
134
126
11
13
87
52
142
124
132
40
84
103
88
156
116
4
58
37
109
41
106
98
111
90
162
110
133
42
33
94
93
101
64
135
85
15
29
158
159
67
31
129
2
160
145
100
163
151
153
128

> <PUBCHEM_MMFF94_PARTIAL_CHARGES>
17
1 -0.68
10 -0.27
11 0.2
12 0.28
13 0.28
14 0.28
15 0.28
2 -0.68
22 0.4
23 0.4
3 -0.63
4 -0.63
5 -0.22
6 -0.22
7 0.74
8 0.74
9 -0.27

> <PUBCHEM_EFFECTIVE_ROTOR_COUNT>
8

> <PUBCHEM_PHARMACOPHORE_FEATURES>
6
1 1 acceptor
1 1 donor
1 2 acceptor
1 2 donor
1 3 anion
1 4 anion

> <PUBCHEM_HEAVY_ATOM_COUNT>
17

> <PUBCHEM_ATOM_DEF_STEREO_COUNT>
0

> <PUBCHEM_ATOM_UDEF_STEREO_COUNT>
0

> <PUBCHEM_BOND_DEF_STEREO_COUNT>
2

> <PUBCHEM_BOND_UDEF_STEREO_COUNT>
0

> <PUBCHEM_ISOTOPIC_ATOM_COUNT>
0

> <PUBCHEM_COMPONENT_COUNT>
1

> <PUBCHEM_CACTVS_TAUTO_COUNT>
1

> <PUBCHEM_CONFORMER_ID>
00CCF77800000001

> <PUBCHEM_MMFF94_ENERGY>
27.1501

> <PUBCHEM_FEATURE_SELFOVERLAP>
30.447

> <PUBCHEM_SHAPE_FINGERPRINT>
116883 192 18188477082328254743
12616999 72 17247518501532397311
13024252 1 14927078023370685992
14344429 50 11381352211723240829
14817 1 9933207299114351721
14863182 85 18050006898260139694
16945 1 18264189349289367649
20602899 9 17615953427106900188
20645477 70 17755853466192493943
20871998 22 18336824303101489499
21452121 199 18334007332910059506
21665056 4 17545037100506125078
23466295 7 18192726552366599994
23526113 38 18124843898847672477
23530152 11 17183910709576404054
2748010 2 18337654374023980558
3060560 45 17251743950239357093
4175511 335 17977107091163015511
81228 2 18194129516381679834

> <PUBCHEM_SHAPE_MULTIPOLES>
294.71
5.18
4.04
1.47
0.07
1.84
0.01
8.13
-0.01
-0.05
-0.02
0
-1.48
-0.09

> <PUBCHEM_SHAPE_SELFOVERLAP>
557.24

> <PUBCHEM_SHAPE_VOLUME>
181.7

> <PUBCHEM_COORDINATE_TYPE>
2
5
10

$$$$
