137483
  -OEChem-11012401053D

 25 25  0     0  0  0  0  0  0999 V2000
    2.0973    0.3503   -0.0001 O   0  0  0  0  0  0  0  0  0  0  0  0
    1.2496   -1.7797   -0.0006 O   0  0  0  0  0  0  0  0  0  0  0  0
   -1.8252    1.6186   -0.0007 N   0  0  0  0  0  0  0  0  0  0  0  0
   -1.5149   -0.5804    0.0000 C   0  0  0  0  0  0  0  0  0  0  0  0
   -2.4719    0.4104    0.0000 C   0  0  0  0  0  0  0  0  0  0  0  0
   -0.2484    0.0548   -0.0006 C   0  0  0  0  0  0  0  0  0  0  0  0
   -0.4700    1.4141   -0.0005 C   0  0  0  0  0  0  0  0  0  0  0  0
   -1.7668   -2.0365    0.0003 C   0  0  0  0  0  0  0  0  0  0  0  0
   -3.9457    0.3359    0.0013 C   0  0  0  0  0  0  0  0  0  0  0  0
    1.0522   -0.5520   -0.0005 C   0  0  0  0  0  0  0  0  0  0  0  0
    3.4243   -0.1882    0.0004 C   0  0  0  0  0  0  0  0  0  0  0  0
    4.4194    0.9526    0.0009 C   0  0  0  0  0  0  0  0  0  0  0  0
   -2.2746    2.5241   -0.0009 H   0  0  0  0  0  0  0  0  0  0  0  0
    0.2049    2.2593   -0.0006 H   0  0  0  0  0  0  0  0  0  0  0  0
   -1.3287   -2.5029    0.8888 H   0  0  0  0  0  0  0  0  0  0  0  0
   -2.8365   -2.2685    0.0006 H   0  0  0  0  0  0  0  0  0  0  0  0
   -1.3291   -2.5033   -0.8881 H   0  0  0  0  0  0  0  0  0  0  0  0
   -4.4059    1.3295    0.0012 H   0  0  0  0  0  0  0  0  0  0  0  0
   -4.3031   -0.1977   -0.8853 H   0  0  0  0  0  0  0  0  0  0  0  0
   -4.3016   -0.1969    0.8890 H   0  0  0  0  0  0  0  0  0  0  0  0
    3.5657   -0.8050    0.8947 H   0  0  0  0  0  0  0  0  0  0  0  0
    3.5665   -0.8047   -0.8938 H   0  0  0  0  0  0  0  0  0  0  0  0
    5.4461    0.5760    0.0013 H   0  0  0  0  0  0  0  0  0  0  0  0
    4.2763    1.5891   -0.8785 H   0  0  0  0  0  0  0  0  0  0  0  0
    4.2756    1.5888    0.8805 H   0  0  0  0  0  0  0  0  0  0  0  0
  1 10  1  0  0  0  0
  1 11  1  0  0  0  0
  2 10  2  0  0  0  0
  3  5  1  0  0  0  0
  3  7  1  0  0  0  0
  3 13  1  0  0  0  0
  4  5  2  0  0  0  0
  4  6  1  0  0  0  0
  4  8  1  0  0  0  0
  5  9  1  0  0  0  0
  6  7  2  0  0  0  0
  6 10  1  0  0  0  0
  7 14  1  0  0  0  0
  8 15  1  0  0  0  0
  8 16  1  0  0  0  0
  8 17  1  0  0  0  0
  9 18  1  0  0  0  0
  9 19  1  0  0  0  0
  9 20  1  0  0  0  0
 11 12  1  0  0  0  0
 11 21  1  0  0  0  0
 11 22  1  0  0  0  0
 12 23  1  0  0  0  0
 12 24  1  0  0  0  0
 12 25  1  0  0  0  0
M  END
> <PUBCHEM_COMPOUND_CID>
137483

> <PUBCHEM_CONFORMER_RMSD>
0.6

> <PUBCHEM_CONFORMER_DIVERSEORDER>
1
14
16
10
5
9
4
6
8
15
7
12
3
11
2
13

> <PUBCHEM_MMFF94_PARTIAL_CHARGES>
13
1 -0.43
10 0.81
11 0.28
13 0.27
14 0.15
2 -0.57
3 0.03
4 -0.18
5 -0.33
6 -0.09
7 -0.3
8 0.18
9 0.18

> <PUBCHEM_EFFECTIVE_ROTOR_COUNT>
3

> <PUBCHEM_PHARMACOPHORE_FEATURES>
4
1 2 acceptor
1 3 cation
1 3 donor
5 3 4 5 6 7 rings

> <PUBCHEM_HEAVY_ATOM_COUNT>
12

> <PUBCHEM_ATOM_DEF_STEREO_COUNT>
0

> <PUBCHEM_ATOM_UDEF_STEREO_COUNT>
0

> <PUBCHEM_BOND_DEF_STEREO_COUNT>
0

> <PUBCHEM_BOND_UDEF_STEREO_COUNT>
0

> <PUBCHEM_ISOTOPIC_ATOM_COUNT>
0

> <PUBCHEM_COMPONENT_COUNT>
1

> <PUBCHEM_CACTVS_TAUTO_COUNT>
2

> <PUBCHEM_CONFORMER_ID>
0002190B00000001

> <PUBCHEM_MMFF94_ENERGY>
10.0429

> <PUBCHEM_FEATURE_SELFOVERLAP>
20.297

> <PUBCHEM_SHAPE_FINGERPRINT>
10608611 8 18339359661061748284
11062470 55 17385723590700614093
11132069 177 18409727395932510832
12932764 1 17059476457620465433
13024252 1 15647053768077088281
13214271 11 18340486767500823935
13380535 76 18411136917925477527
14325111 11 18338798896914169824
14897335 6 18409726240380625342
15669948 3 18339915000243508726
15775835 57 18411139143145324096
16945 1 18410575080653078149
17846911 113 18412258432849734336
193761 8 17834394897299171493
20510252 161 18200032837403261761
20528008 55 18412258436996936961
20871998 184 18272656795962150551
23235685 24 18410285900225359693
23402539 116 18341039766357827565
23402655 69 18270105822186339549
23559900 14 18343021112756077532
2748010 2 18051405464102218501
369184 2 16370724811807571185
528886 8 18411132549948629107
53812653 166 18343016709533657392
6333449 129 18413106190685043823
7364860 26 18197497329530623382

> <PUBCHEM_SHAPE_MULTIPOLES>
230.23
6.54
1.7
0.59
4.93
0.49
0
-1.61
0
-0.56
0
-0.01
0
0

> <PUBCHEM_SHAPE_SELFOVERLAP>
469.911

> <PUBCHEM_SHAPE_VOLUME>
136.1

> <PUBCHEM_COORDINATE_TYPE>
2
5
10

$$$$
