15851550
  -OEChem-10312420192D

 19 17  0     0  0  0  0  0  0999 V2000
    1.4030    1.4030    0.0000 N   0  3  0  0  0  0  0  0  0  0  0  0
    0.9030    4.8059    0.0000 N   0  0  0  0  0  0  0  0  0  0  0  0
    2.2690    1.9030    0.0000 C   0  0  0  0  0  0  0  0  0  0  0  0
    0.5369    0.9030    0.0000 C   0  0  0  0  0  0  0  0  0  0  0  0
    0.9030    2.2690    0.0000 C   0  0  0  0  0  0  0  0  0  0  0  0
    1.9030    0.5369    0.0000 C   0  0  0  0  0  0  0  0  0  0  0  0
    1.9030    4.8059    0.0000 C   0  5  0  0  0  0  0  0  0  0  0  0
    2.5790    1.3660    0.0000 H   0  0  0  0  0  0  0  0  0  0  0  0
    2.8059    2.2130    0.0000 H   0  0  0  0  0  0  0  0  0  0  0  0
    1.9590    2.4399    0.0000 H   0  0  0  0  0  0  0  0  0  0  0  0
    0.2269    1.4399    0.0000 H   0  0  0  0  0  0  0  0  0  0  0  0
    0.0000    0.5930    0.0000 H   0  0  0  0  0  0  0  0  0  0  0  0
    0.8469    0.3660    0.0000 H   0  0  0  0  0  0  0  0  0  0  0  0
    1.4399    2.5790    0.0000 H   0  0  0  0  0  0  0  0  0  0  0  0
    0.5930    2.8059    0.0000 H   0  0  0  0  0  0  0  0  0  0  0  0
    0.3660    1.9590    0.0000 H   0  0  0  0  0  0  0  0  0  0  0  0
    1.3660    0.2269    0.0000 H   0  0  0  0  0  0  0  0  0  0  0  0
    2.2130    0.0000    0.0000 H   0  0  0  0  0  0  0  0  0  0  0  0
    2.4399    0.8469    0.0000 H   0  0  0  0  0  0  0  0  0  0  0  0
  1  3  1  0  0  0  0
  1  4  1  0  0  0  0
  1  5  1  0  0  0  0
  1  6  1  0  0  0  0
  2  7  3  0  0  0  0
  3  8  1  0  0  0  0
  3  9  1  0  0  0  0
  3 10  1  0  0  0  0
  4 11  1  0  0  0  0
  4 12  1  0  0  0  0
  4 13  1  0  0  0  0
  5 14  1  0  0  0  0
  5 15  1  0  0  0  0
  5 16  1  0  0  0  0
  6 17  1  0  0  0  0
  6 18  1  0  0  0  0
  6 19  1  0  0  0  0
M  CHG  2   1   1   7  -1
M  END
> <PUBCHEM_COMPOUND_CID>
15851550

> <PUBCHEM_COMPOUND_CANONICALIZED>
1

> <PUBCHEM_CACTVS_COMPLEXITY>
29.1

> <PUBCHEM_CACTVS_HBOND_ACCEPTOR>
2

> <PUBCHEM_CACTVS_HBOND_DONOR>
0

> <PUBCHEM_CACTVS_ROTATABLE_BOND>
0

> <PUBCHEM_CACTVS_SUBSKEYS>
AAADccBjAAAAAAAAAAAAAAAAAAAAAAAAAAAAAAAAAAAAAAAAAAAAFAAAAAAAAAAAAAQCAAMAAAAQAAAAAAAAAAAAAAAAAAAIAAAAAAAAAAAAAAAAAAAAAAAAAAAAAAAAAAAAAAAAAAAAAAAAAAAAAAAAAA==

> <PUBCHEM_IUPAC_OPENEYE_NAME>
tetramethylammonium;cyanide

> <PUBCHEM_IUPAC_CAS_NAME>
tetramethylammonium;cyanide

> <PUBCHEM_IUPAC_NAME_MARKUP>
tetramethylazanium;cyanide

> <PUBCHEM_IUPAC_NAME>
tetramethylazanium;cyanide

> <PUBCHEM_IUPAC_SYSTEMATIC_NAME>
tetramethylazanium;cyanide

> <PUBCHEM_IUPAC_TRADITIONAL_NAME>
tetramethylammonium;cyanide

> <PUBCHEM_IUPAC_INCHI>
InChI=1S/C4H12N.CN/c1-5(2,3)4;1-2/h1-4H3;/q+1;-1

> <PUBCHEM_IUPAC_INCHIKEY>
OSXXGBUMRXAAFP-UHFFFAOYSA-N

> <PUBCHEM_EXACT_MASS>
100.100048391

> <PUBCHEM_MOLECULAR_FORMULA>
C5H12N2

> <PUBCHEM_MOLECULAR_WEIGHT>
100.16

> <PUBCHEM_OPENEYE_CAN_SMILES>
C[N+](C)(C)C.[C-]#N

> <PUBCHEM_OPENEYE_ISO_SMILES>
C[N+](C)(C)C.[C-]#N

> <PUBCHEM_CACTVS_TPSA>
23.8

> <PUBCHEM_MONOISOTOPIC_WEIGHT>
100.100048391

> <PUBCHEM_TOTAL_CHARGE>
0

> <PUBCHEM_HEAVY_ATOM_COUNT>
7

> <PUBCHEM_ATOM_DEF_STEREO_COUNT>
0

> <PUBCHEM_ATOM_UDEF_STEREO_COUNT>
0

> <PUBCHEM_BOND_DEF_STEREO_COUNT>
0

> <PUBCHEM_BOND_UDEF_STEREO_COUNT>
0

> <PUBCHEM_ISOTOPIC_ATOM_COUNT>
0

> <PUBCHEM_COMPONENT_COUNT>
2

> <PUBCHEM_CACTVS_TAUTO_COUNT>
-1

> <PUBCHEM_COORDINATE_TYPE>
1
5
255

$$$$
