136479
  -OEChem-11012400403D

 21 20  0     0  0  0  0  0  0999 V2000
   -3.8070   -0.7795    1.1209 F   0  0  0  0  0  0  0  0  0  0  0  0
   -4.7440    0.8047   -0.0488 F   0  0  0  0  0  0  0  0  0  0  0  0
   -3.7735   -0.8651   -1.0618 F   0  0  0  0  0  0  0  0  0  0  0  0
    4.7439    0.8048    0.0489 F   0  0  0  0  0  0  0  0  0  0  0  0
    3.7736   -0.8651    1.0617 F   0  0  0  0  0  0  0  0  0  0  0  0
    3.8071   -0.7794   -1.1209 F   0  0  0  0  0  0  0  0  0  0  0  0
   -0.0002    0.6243    0.0000 O   0  0  0  0  0  0  0  0  0  0  0  0
   -1.1750   -0.1749   -0.0050 C   0  0  0  0  0  0  0  0  0  0  0  0
    1.1750   -0.1751    0.0050 C   0  0  0  0  0  0  0  0  0  0  0  0
   -2.3908    0.7392   -0.0102 C   0  0  0  0  0  0  0  0  0  0  0  0
    2.3908    0.7391    0.0102 C   0  0  0  0  0  0  0  0  0  0  0  0
   -3.6876   -0.0365    0.0004 C   0  0  0  0  0  0  0  0  0  0  0  0
    3.6876   -0.0365   -0.0003 C   0  0  0  0  0  0  0  0  0  0  0  0
   -1.1878   -0.8126    0.8867 H   0  0  0  0  0  0  0  0  0  0  0  0
   -1.1801   -0.8137   -0.8959 H   0  0  0  0  0  0  0  0  0  0  0  0
    1.1877   -0.8127   -0.8867 H   0  0  0  0  0  0  0  0  0  0  0  0
    1.1800   -0.8138    0.8960 H   0  0  0  0  0  0  0  0  0  0  0  0
   -2.3513    1.4092    0.8568 H   0  0  0  0  0  0  0  0  0  0  0  0
   -2.3543    1.3887   -0.8929 H   0  0  0  0  0  0  0  0  0  0  0  0
    2.3513    1.4092   -0.8567 H   0  0  0  0  0  0  0  0  0  0  0  0
    2.3543    1.3886    0.8929 H   0  0  0  0  0  0  0  0  0  0  0  0
  1 12  1  0  0  0  0
  2 12  1  0  0  0  0
  3 12  1  0  0  0  0
  4 13  1  0  0  0  0
  5 13  1  0  0  0  0
  6 13  1  0  0  0  0
  7  8  1  0  0  0  0
  7  9  1  0  0  0  0
  8 10  1  0  0  0  0
  8 14  1  0  0  0  0
  8 15  1  0  0  0  0
  9 11  1  0  0  0  0
  9 16  1  0  0  0  0
  9 17  1  0  0  0  0
 10 12  1  0  0  0  0
 10 18  1  0  0  0  0
 10 19  1  0  0  0  0
 11 13  1  0  0  0  0
 11 20  1  0  0  0  0
 11 21  1  0  0  0  0
M  END
> <PUBCHEM_COMPOUND_CID>
136479

> <PUBCHEM_CONFORMER_RMSD>
0.6

> <PUBCHEM_CONFORMER_DIVERSEORDER>
1
9
12
8
15
16
3
14
11
2
13
7
5
17
6
10
4

> <PUBCHEM_MMFF94_PARTIAL_CHARGES>
11
1 -0.34
12 1.02
13 1.02
2 -0.34
3 -0.34
4 -0.34
5 -0.34
6 -0.34
7 -0.56
8 0.28
9 0.28

> <PUBCHEM_EFFECTIVE_ROTOR_COUNT>
6

> <PUBCHEM_PHARMACOPHORE_FEATURES>
1
1 7 acceptor

> <PUBCHEM_HEAVY_ATOM_COUNT>
13

> <PUBCHEM_ATOM_DEF_STEREO_COUNT>
0

> <PUBCHEM_ATOM_UDEF_STEREO_COUNT>
0

> <PUBCHEM_BOND_DEF_STEREO_COUNT>
0

> <PUBCHEM_BOND_UDEF_STEREO_COUNT>
0

> <PUBCHEM_ISOTOPIC_ATOM_COUNT>
0

> <PUBCHEM_COMPONENT_COUNT>
1

> <PUBCHEM_CACTVS_TAUTO_COUNT>
1

> <PUBCHEM_CONFORMER_ID>
0002151F00000001

> <PUBCHEM_MMFF94_ENERGY>
15.4264

> <PUBCHEM_FEATURE_SELFOVERLAP>
5.074

> <PUBCHEM_SHAPE_FINGERPRINT>
10680689 15 18343305868470610893
14123238 8 18201718474638134652
14252887 29 18273218582379847786
17834072 33 17988640860875200268
17834076 25 17385723586912022957
18186145 218 17240198863262479485
190213 19 18411421708621851625
1986462 14 17240484723680133843
20645477 70 17846502474515606190
22485316 2 18410571790423195363
22646028 1 18410848867353472871
23402539 116 18342731918821205589
42 15 18040151799393567648
42788 4 18410573989446619821
522135 26 17530965765779341984

> <PUBCHEM_SHAPE_MULTIPOLES>
218.02
10.71
0.93
0.84
0
0.01
0
-0.4
0
0
0
0
-0.24
0.01

> <PUBCHEM_SHAPE_SELFOVERLAP>
420.268

> <PUBCHEM_SHAPE_VOLUME>
133.9

> <PUBCHEM_COORDINATE_TYPE>
2
5
10

$$$$
