22993135
  -OEChem-10312420542D

 15 14  0     0  0  0  0  0  0999 V2000
    2.1402    1.5000    0.0000 O   0  0  0  0  0  0  0  0  0  0  0  0
    0.4081    1.5000    0.0000 O   0  5  0  0  0  0  0  0  0  0  0  0
    1.2742    0.0000    0.0000 O   0  0  0  0  0  0  0  0  0  0  0  0
    0.8644    4.1200    0.0000 N   0  0  0  0  0  0  0  0  0  0  0  0
    1.3644    5.6588    0.0000 N   0  0  0  0  0  0  0  0  0  0  0  0
    0.0554    4.7078    0.0000 N   0  0  0  0  0  0  0  0  0  0  0  0
    2.6245    4.3988    0.0000 N   0  0  0  0  0  0  0  0  0  0  0  0
    1.2742    1.0000    0.0000 N   0  3  0  0  0  0  0  0  0  0  0  0
    1.6734    4.7078    0.0000 C   0  0  0  0  0  0  0  0  0  0  0  0
    0.3644    5.6588    0.0000 C   0  0  0  0  0  0  0  0  0  0  0  0
    0.8644    3.5000    0.0000 H   0  0  0  0  0  0  0  0  0  0  0  0
    0.0000    6.1604    0.0000 H   0  0  0  0  0  0  0  0  0  0  0  0
    3.0852    4.8136    0.0000 H   0  0  0  0  0  0  0  0  0  0  0  0
    2.7534    3.7923    0.0000 H   0  0  0  0  0  0  0  0  0  0  0  0
    2.6771    1.1900    0.0000 H   0  0  0  0  0  0  0  0  0  0  0  0
  1  8  1  0  0  0  0
  1 15  1  0  0  0  0
  2  8  1  0  0  0  0
  3  8  2  0  0  0  0
  4  6  1  0  0  0  0
  4  9  1  0  0  0  0
  4 11  1  0  0  0  0
  5  9  2  0  0  0  0
  5 10  1  0  0  0  0
  6 10  2  0  0  0  0
  7  9  1  0  0  0  0
  7 13  1  0  0  0  0
  7 14  1  0  0  0  0
 10 12  1  0  0  0  0
M  CHG  2   2  -1   8   1
M  END
> <PUBCHEM_COMPOUND_CID>
22993135

> <PUBCHEM_COMPOUND_CANONICALIZED>
1

> <PUBCHEM_CACTVS_COMPLEXITY>
69.6

> <PUBCHEM_CACTVS_HBOND_ACCEPTOR>
6

> <PUBCHEM_CACTVS_HBOND_DONOR>
3

> <PUBCHEM_CACTVS_ROTATABLE_BOND>
0

> <PUBCHEM_CACTVS_SUBSKEYS>
AAADcYBDsAAAAAAAAAAAAAAAAAAAAWAAAAAAAAAAAAAAAAABgAAAFAAcCAAAAAAAAAQFEAZrUAAjAAABJQAQAAuQgIAFYAAIAACACAAAAAAAAAAQAAAAAAAAAAAAAAAAAAAAAAAAAAAAAAAAAAAAAAAAAA==

> <PUBCHEM_IUPAC_OPENEYE_NAME>
nitric acid;1H-1,2,4-triazol-5-amine

> <PUBCHEM_IUPAC_CAS_NAME>
nitric acid;1H-1,2,4-triazol-5-amine

> <PUBCHEM_IUPAC_NAME_MARKUP>
nitric acid;1<I>H</I>-1,2,4-triazol-5-amine

> <PUBCHEM_IUPAC_NAME>
nitric acid;1H-1,2,4-triazol-5-amine

> <PUBCHEM_IUPAC_SYSTEMATIC_NAME>
nitric acid;1H-1,2,4-triazol-5-amine

> <PUBCHEM_IUPAC_TRADITIONAL_NAME>
nitric acid;1H-1,2,4-triazol-5-ylamine

> <PUBCHEM_IUPAC_INCHI>
InChI=1S/C2H4N4.HNO3/c3-2-4-1-5-6-2;2-1(3)4/h1H,(H3,3,4,5,6);(H,2,3,4)

> <PUBCHEM_IUPAC_INCHIKEY>
KDUPCUMVUANIRF-UHFFFAOYSA-N

> <PUBCHEM_EXACT_MASS>
147.03923904

> <PUBCHEM_MOLECULAR_FORMULA>
C2H5N5O3

> <PUBCHEM_MOLECULAR_WEIGHT>
147.09

> <PUBCHEM_OPENEYE_CAN_SMILES>
C1=NNC(=N1)N.[N+](=O)(O)[O-]

> <PUBCHEM_OPENEYE_ISO_SMILES>
C1=NNC(=N1)N.[N+](=O)(O)[O-]

> <PUBCHEM_CACTVS_TPSA>
134

> <PUBCHEM_MONOISOTOPIC_WEIGHT>
147.03923904

> <PUBCHEM_TOTAL_CHARGE>
0

> <PUBCHEM_HEAVY_ATOM_COUNT>
10

> <PUBCHEM_ATOM_DEF_STEREO_COUNT>
0

> <PUBCHEM_ATOM_UDEF_STEREO_COUNT>
0

> <PUBCHEM_BOND_DEF_STEREO_COUNT>
0

> <PUBCHEM_BOND_UDEF_STEREO_COUNT>
0

> <PUBCHEM_ISOTOPIC_ATOM_COUNT>
0

> <PUBCHEM_COMPONENT_COUNT>
2

> <PUBCHEM_CACTVS_TAUTO_COUNT>
-1

> <PUBCHEM_COORDINATE_TYPE>
1
5
255

> <PUBCHEM_BONDANNOTATIONS>
4  6  8
4  9  8
5  10  8
5  9  8
6  10  8

$$$$
