82158
  -OEChem-11012400333D

 40 40  0     0  0  0  0  0  0999 V2000
    1.1514    2.4869    0.0003 O   0  0  0  0  0  0  0  0  0  0  0  0
   -0.7689    1.0650   -0.0003 C   0  0  0  0  0  0  0  0  0  0  0  0
    1.4530    0.1166   -0.0001 C   0  0  0  0  0  0  0  0  0  0  0  0
   -0.4793   -1.3336   -0.0001 C   0  0  0  0  0  0  0  0  0  0  0  0
   -1.6816    2.2469   -0.0001 C   0  0  0  0  0  0  0  0  0  0  0  0
    2.9379    0.2752   -0.0001 C   0  0  0  0  0  0  0  0  0  0  0  0
   -1.0647   -2.7052    0.0001 C   0  0  0  0  0  0  0  0  0  0  0  0
    0.6158    1.2323   -0.0004 C   0  0  0  0  0  0  0  0  0  0  0  0
   -1.3165   -0.2179   -0.0002 C   0  0  0  0  0  0  0  0  0  0  0  0
    0.9055   -1.1663    0.0000 C   0  0  0  0  0  0  0  0  0  0  0  0
   -2.5636    2.3071    1.2606 C   0  0  0  0  0  0  0  0  0  0  0  0
   -2.5641    2.3075   -1.2602 C   0  0  0  0  0  0  0  0  0  0  0  0
    3.5919   -0.3204   -1.2604 C   0  0  0  0  0  0  0  0  0  0  0  0
    3.5919   -0.3197    1.2605 C   0  0  0  0  0  0  0  0  0  0  0  0
   -1.9043   -2.9873   -1.2604 C   0  0  0  0  0  0  0  0  0  0  0  0
   -1.9042   -2.9873    1.2606 C   0  0  0  0  0  0  0  0  0  0  0  0
   -1.1172    3.1844    0.0128 H   0  0  0  0  0  0  0  0  0  0  0  0
    3.2022    1.3397   -0.0004 H   0  0  0  0  0  0  0  0  0  0  0  0
   -0.2483   -3.4403    0.0001 H   0  0  0  0  0  0  0  0  0  0  0  0
   -2.3950   -0.3504   -0.0001 H   0  0  0  0  0  0  0  0  0  0  0  0
    1.5519   -2.0401    0.0002 H   0  0  0  0  0  0  0  0  0  0  0  0
   -1.9482    2.2902    2.1670 H   0  0  0  0  0  0  0  0  0  0  0  0
   -3.1542    3.2298    1.2730 H   0  0  0  0  0  0  0  0  0  0  0  0
   -3.2628    1.4658    1.3140 H   0  0  0  0  0  0  0  0  0  0  0  0
   -3.2616    1.4648   -1.3155 H   0  0  0  0  0  0  0  0  0  0  0  0
   -3.1566    3.2290   -1.2703 H   0  0  0  0  0  0  0  0  0  0  0  0
   -1.9485    2.2945   -2.1665 H   0  0  0  0  0  0  0  0  0  0  0  0
    3.4712   -1.4077   -1.3118 H   0  0  0  0  0  0  0  0  0  0  0  0
    4.6658   -0.1048   -1.2737 H   0  0  0  0  0  0  0  0  0  0  0  0
    3.1518    0.1097   -2.1670 H   0  0  0  0  0  0  0  0  0  0  0  0
    3.1519    0.1108    2.1670 H   0  0  0  0  0  0  0  0  0  0  0  0
    4.6659   -0.1042    1.2737 H   0  0  0  0  0  0  0  0  0  0  0  0
    3.4712   -1.4071    1.3125 H   0  0  0  0  0  0  0  0  0  0  0  0
   -2.7949   -2.3516   -1.3106 H   0  0  0  0  0  0  0  0  0  0  0  0
   -2.2383   -4.0304   -1.2733 H   0  0  0  0  0  0  0  0  0  0  0  0
   -1.3151   -2.8115   -2.1673 H   0  0  0  0  0  0  0  0  0  0  0  0
   -1.3151   -2.8116    2.1675 H   0  0  0  0  0  0  0  0  0  0  0  0
   -2.2384   -4.0305    1.2735 H   0  0  0  0  0  0  0  0  0  0  0  0
   -2.7948   -2.3516    1.3109 H   0  0  0  0  0  0  0  0  0  0  0  0
    0.6860    3.0229   -0.6633 H   0  0  0  0  0  0  0  0  0  0  0  0
  1  8  1  0  0  0  0
  1 40  1  0  0  0  0
  2  5  1  0  0  0  0
  2  8  2  0  0  0  0
  2  9  1  0  0  0  0
  3  6  1  0  0  0  0
  3  8  1  0  0  0  0
  3 10  2  0  0  0  0
  4  7  1  0  0  0  0
  4  9  2  0  0  0  0
  4 10  1  0  0  0  0
  5 11  1  0  0  0  0
  5 12  1  0  0  0  0
  5 17  1  0  0  0  0
  6 13  1  0  0  0  0
  6 14  1  0  0  0  0
  6 18  1  0  0  0  0
  7 15  1  0  0  0  0
  7 16  1  0  0  0  0
  7 19  1  0  0  0  0
  9 20  1  0  0  0  0
 10 21  1  0  0  0  0
 11 22  1  0  0  0  0
 11 23  1  0  0  0  0
 11 24  1  0  0  0  0
 12 25  1  0  0  0  0
 12 26  1  0  0  0  0
 12 27  1  0  0  0  0
 13 28  1  0  0  0  0
 13 29  1  0  0  0  0
 13 30  1  0  0  0  0
 14 31  1  0  0  0  0
 14 32  1  0  0  0  0
 14 33  1  0  0  0  0
 15 34  1  0  0  0  0
 15 35  1  0  0  0  0
 15 36  1  0  0  0  0
 16 37  1  0  0  0  0
 16 38  1  0  0  0  0
 16 39  1  0  0  0  0
M  END
> <PUBCHEM_COMPOUND_CID>
82158

> <PUBCHEM_CONFORMER_RMSD>
0.6

> <PUBCHEM_CONFORMER_DIVERSEORDER>
1
2
3

> <PUBCHEM_MMFF94_PARTIAL_CHARGES>
13
1 -0.53
10 -0.15
2 -0.14
20 0.15
21 0.15
3 -0.14
4 -0.14
40 0.45
5 0.14
6 0.14
7 0.14
8 0.08
9 -0.15

> <PUBCHEM_EFFECTIVE_ROTOR_COUNT>
3

> <PUBCHEM_PHARMACOPHORE_FEATURES>
5
1 1 donor
3 5 11 12 hydrophobe
3 6 13 14 hydrophobe
3 7 15 16 hydrophobe
6 2 3 4 8 9 10 rings

> <PUBCHEM_HEAVY_ATOM_COUNT>
16

> <PUBCHEM_ATOM_DEF_STEREO_COUNT>
0

> <PUBCHEM_ATOM_UDEF_STEREO_COUNT>
0

> <PUBCHEM_BOND_DEF_STEREO_COUNT>
0

> <PUBCHEM_BOND_UDEF_STEREO_COUNT>
0

> <PUBCHEM_ISOTOPIC_ATOM_COUNT>
0

> <PUBCHEM_COMPONENT_COUNT>
1

> <PUBCHEM_CACTVS_TAUTO_COUNT>
2

> <PUBCHEM_CONFORMER_ID>
000140EE00000001

> <PUBCHEM_MMFF94_ENERGY>
43.5889

> <PUBCHEM_FEATURE_SELFOVERLAP>
25.373

> <PUBCHEM_SHAPE_FINGERPRINT>
1 1 17832984944992207143
11322862 65 18267884803575070150
11578080 2 17058356222965521067
116883 192 18271243953395091647
12138202 97 18339368465744523686
12553582 1 18122067773790608594
13140716 1 18194682798453051155
13538477 17 18259704476357068080
14178342 30 18052262795604754545
14817 1 14865316582685255455
15309172 13 18193842543836241849
15502708 68 17834110849141308464
15906896 17 18408882919283644055
16752209 62 18335688438801883371
16945 1 18410856581236049286
18186145 218 17985264080219833260
193761 8 18266458904555785892
19591789 44 18123483691094854431
20645476 183 17823433616694752302
20645477 70 17619343655258333503
20711985 344 18338239370181877054
21041028 32 17977682114312009251
21160774 45 18408325475863132413
21524375 3 18193833739184569635
22112679 90 17909294685565581835
23184049 29 18266173018953234176
2334 1 17834114525759972707
23419403 2 13609120115302423606
23530152 11 18195526982896578359
23557571 272 18343580776874907728
23559900 14 18199755757248668254
257057 1 17908405193432953478
2748010 2 18194976131750024183
3071541 236 18336252466739101802
3091708 16 9273744504355839091
31174 14 17036422220154196395
352729 6 18411702071233694204
458136 41 17763488135084214857
5845 1 11399494252096702319
58807428 26 17977653226261613474
633830 44 17843682153880952244
7364860 26 17188684252214140986
81228 2 18338232768727173659
81539 233 17900822639547314797
88987 49 18410008828323383060
9981440 41 16842153664196798280

> <PUBCHEM_SHAPE_MULTIPOLES>
323.4
4.79
3.88
1.22
4.31
2.09
0
-1.46
0
-4.24
0
-0.16
0.2
0

> <PUBCHEM_SHAPE_SELFOVERLAP>
654.521

> <PUBCHEM_SHAPE_VOLUME>
192.3

> <PUBCHEM_COORDINATE_TYPE>
2
5
10

$$$$
