6198625
  -OEChem-11012401163D

 29 29  0     0  0  0  0  0  0999 V2000
   -1.5023    0.6106   -0.7706 O   0  0  0  0  0  0  0  0  0  0  0  0
    4.6766    0.4824   -0.2347 O   0  0  0  0  0  0  0  0  0  0  0  0
    3.1620    2.1324    0.1993 O   0  0  0  0  0  0  0  0  0  0  0  0
   -2.5418    1.2714   -0.0528 C   0  0  0  0  0  0  0  0  0  0  0  0
   -2.2989    2.7719   -0.1054 C   0  0  0  0  0  0  0  0  0  0  0  0
   -1.1739   -0.6490   -0.3645 C   0  0  0  0  0  0  0  0  0  0  0  0
    0.1146   -0.9537    0.0749 C   0  0  0  0  0  0  0  0  0  0  0  0
   -3.3631    3.5433    0.6541 C   0  0  0  0  0  0  0  0  0  0  0  0
   -2.1537   -1.6414   -0.3938 C   0  0  0  0  0  0  0  0  0  0  0  0
    0.4229   -2.2509    0.4850 C   0  0  0  0  0  0  0  0  0  0  0  0
   -1.8454   -2.9384    0.0164 C   0  0  0  0  0  0  0  0  0  0  0  0
   -0.5571   -3.2431    0.4557 C   0  0  0  0  0  0  0  0  0  0  0  0
    1.1554    0.0646    0.1149 C   0  0  0  0  0  0  0  0  0  0  0  0
    2.4741   -0.1618   -0.0667 C   0  0  0  0  0  0  0  0  0  0  0  0
    3.4306    0.9619   -0.0117 C   0  0  0  0  0  0  0  0  0  0  0  0
   -2.5636    0.9391    0.9933 H   0  0  0  0  0  0  0  0  0  0  0  0
   -3.5035    1.0277   -0.5186 H   0  0  0  0  0  0  0  0  0  0  0  0
   -1.3092    2.9989    0.3087 H   0  0  0  0  0  0  0  0  0  0  0  0
   -2.2715    3.1039   -1.1502 H   0  0  0  0  0  0  0  0  0  0  0  0
   -3.3780    3.2554    1.7101 H   0  0  0  0  0  0  0  0  0  0  0  0
   -3.1649    4.6182    0.5981 H   0  0  0  0  0  0  0  0  0  0  0  0
   -4.3567    3.3587    0.2333 H   0  0  0  0  0  0  0  0  0  0  0  0
   -3.1595   -1.4226   -0.7417 H   0  0  0  0  0  0  0  0  0  0  0  0
    1.4095   -2.5229    0.8509 H   0  0  0  0  0  0  0  0  0  0  0  0
   -2.6079   -3.7114   -0.0074 H   0  0  0  0  0  0  0  0  0  0  0  0
   -0.3185   -4.2523    0.7785 H   0  0  0  0  0  0  0  0  0  0  0  0
    0.8112    1.0801    0.2979 H   0  0  0  0  0  0  0  0  0  0  0  0
    2.8717   -1.1492   -0.2755 H   0  0  0  0  0  0  0  0  0  0  0  0
    5.3534    1.1920   -0.2083 H   0  0  0  0  0  0  0  0  0  0  0  0
  1  4  1  0  0  0  0
  1  6  1  0  0  0  0
  2 15  1  0  0  0  0
  2 29  1  0  0  0  0
  3 15  2  0  0  0  0
  4  5  1  0  0  0  0
  4 16  1  0  0  0  0
  4 17  1  0  0  0  0
  5  8  1  0  0  0  0
  5 18  1  0  0  0  0
  5 19  1  0  0  0  0
  6  7  1  0  0  0  0
  6  9  2  0  0  0  0
  7 10  2  0  0  0  0
  7 13  1  0  0  0  0
  8 20  1  0  0  0  0
  8 21  1  0  0  0  0
  8 22  1  0  0  0  0
  9 11  1  0  0  0  0
  9 23  1  0  0  0  0
 10 12  1  0  0  0  0
 10 24  1  0  0  0  0
 11 12  2  0  0  0  0
 11 25  1  0  0  0  0
 12 26  1  0  0  0  0
 13 14  2  0  0  0  0
 13 27  1  0  0  0  0
 14 15  1  0  0  0  0
 14 28  1  0  0  0  0
M  END
> <PUBCHEM_COMPOUND_CID>
6198625

> <PUBCHEM_CONFORMER_RMSD>
0.6

> <PUBCHEM_CONFORMER_DIVERSEORDER>
1
31
51
2
17
24
52
15
13
53
49
45
36
20
22
46
43
29
34
42
3
41
35
12
39
44
48
6
33
26
37
18
32
40
23
11
14
50
21
8
16
10
30
28
27
47
25
9
38
5
4
19
7

> <PUBCHEM_MMFF94_PARTIAL_CHARGES>
20
1 -0.36
10 -0.15
11 -0.15
12 -0.15
13 -0.18
14 -0.14
15 0.71
2 -0.65
23 0.15
24 0.15
25 0.15
26 0.15
27 0.15
28 0.15
29 0.5
3 -0.57
4 0.28
6 0.08
7 0.03
9 -0.15

> <PUBCHEM_EFFECTIVE_ROTOR_COUNT>
5

> <PUBCHEM_PHARMACOPHORE_FEATURES>
6
1 1 acceptor
1 2 acceptor
1 3 acceptor
1 8 hydrophobe
3 2 3 15 anion
6 6 7 9 10 11 12 rings

> <PUBCHEM_HEAVY_ATOM_COUNT>
15

> <PUBCHEM_ATOM_DEF_STEREO_COUNT>
0

> <PUBCHEM_ATOM_UDEF_STEREO_COUNT>
0

> <PUBCHEM_BOND_DEF_STEREO_COUNT>
1

> <PUBCHEM_BOND_UDEF_STEREO_COUNT>
0

> <PUBCHEM_ISOTOPIC_ATOM_COUNT>
0

> <PUBCHEM_COMPONENT_COUNT>
1

> <PUBCHEM_CACTVS_TAUTO_COUNT>
1

> <PUBCHEM_CONFORMER_ID>
005E956100000001

> <PUBCHEM_MMFF94_ENERGY>
41.2463

> <PUBCHEM_FEATURE_SELFOVERLAP>
30.502

> <PUBCHEM_SHAPE_FINGERPRINT>
10608611 8 18268989963664900232
108231 29 17540251377214458307
12173636 292 18411132562917979172
12532896 13 18339085878091734191
13380536 305 17763467218741306319
14123255 52 18267022765084491513
14790565 3 17762345717429503452
17134986 127 18194402182327264229
1741750 31 18412258402790237992
18785283 64 17902523587982025587
20510252 161 18266738163234010747
20671657 1 17834961871547298061
21029758 11 17906162207383004111
21524375 3 18198614454534060565
21665062 11 16900470339099823809
22182937 141 18342462538377851241
2255824 54 17691963761647295079
2306618 200 18200322150716100978
23402539 116 18126561456227736247
23557571 272 18122069964249543748
23558518 356 18334300863691528718
23559900 14 18193830681927373712
23845131 108 18263649455506109001
305870 269 18192430766573909997
3071541 12 17907015075896872111
3091708 16 9270371194139360355
31174 14 17398114851118839685
474 4 17979067185578178161
7364860 26 17689718558629147805
81228 2 18116720805377744914

> <PUBCHEM_SHAPE_MULTIPOLES>
291.09
6.02
4.44
0.72
4.43
0.75
-0.01
-7.29
-0.08
-3.49
-0.8
-0.19
0.01
-0.57

> <PUBCHEM_SHAPE_SELFOVERLAP>
593.558

> <PUBCHEM_SHAPE_VOLUME>
169.3

> <PUBCHEM_COORDINATE_TYPE>
2
5
10

$$$$
