142730
  -OEChem-11012401223D

 34 33  0     1  0  0  0  0  0999 V2000
    3.6166   -1.7818   -0.7061 O   0  5  0  0  0  0  0  0  0  0  0  0
    3.6066   -0.9562    1.3367 O   0  0  0  0  0  0  0  0  0  0  0  0
    3.5421   -0.8467    0.1038 N   0  3  0  0  0  0  0  0  0  0  0  0
   -0.4931    0.7875    0.0704 C   0  0  0  0  0  0  0  0  0  0  0  0
    0.8543    0.2417   -0.4137 C   0  0  0  0  0  0  0  0  0  0  0  0
   -1.6857   -0.0739   -0.3541 C   0  0  0  0  0  0  0  0  0  0  0  0
    2.0524    1.0617    0.0752 C   0  0  0  0  0  0  0  0  0  0  0  0
   -2.9950    0.4782    0.2163 C   0  0  0  0  0  0  0  0  0  0  0  0
    3.3846    0.5200   -0.4463 C   0  0  1  0  0  0  0  0  0  0  0  0
   -4.2210   -0.3645   -0.1469 C   0  0  0  0  0  0  0  0  0  0  0  0
   -5.5369    0.2258    0.3609 C   0  0  0  0  0  0  0  0  0  0  0  0
    4.6028    1.3167   -0.0096 C   0  0  0  0  0  0  0  0  0  0  0  0
   -6.7276   -0.6085   -0.0865 C   0  0  0  0  0  0  0  0  0  0  0  0
   -0.6265    1.8075   -0.3106 H   0  0  0  0  0  0  0  0  0  0  0  0
   -0.4732    0.8583    1.1651 H   0  0  0  0  0  0  0  0  0  0  0  0
    0.9404   -0.7958   -0.0709 H   0  0  0  0  0  0  0  0  0  0  0  0
    0.8547    0.2146   -1.5105 H   0  0  0  0  0  0  0  0  0  0  0  0
   -1.5401   -1.1022   -0.0023 H   0  0  0  0  0  0  0  0  0  0  0  0
   -1.7435   -0.1103   -1.4483 H   0  0  0  0  0  0  0  0  0  0  0  0
    1.9351    2.0959   -0.2730 H   0  0  0  0  0  0  0  0  0  0  0  0
    2.0430    1.1053    1.1721 H   0  0  0  0  0  0  0  0  0  0  0  0
   -2.9192    0.5417    1.3089 H   0  0  0  0  0  0  0  0  0  0  0  0
   -3.1416    1.5017   -0.1506 H   0  0  0  0  0  0  0  0  0  0  0  0
    3.3669    0.4387   -1.5394 H   0  0  0  0  0  0  0  0  0  0  0  0
   -4.2702   -0.4651   -1.2384 H   0  0  0  0  0  0  0  0  0  0  0  0
   -4.0953   -1.3764    0.2580 H   0  0  0  0  0  0  0  0  0  0  0  0
   -5.5206    0.2806    1.4554 H   0  0  0  0  0  0  0  0  0  0  0  0
   -5.6545    1.2489   -0.0143 H   0  0  0  0  0  0  0  0  0  0  0  0
    4.6559    1.4329    1.0790 H   0  0  0  0  0  0  0  0  0  0  0  0
    5.5320    0.8392   -0.3406 H   0  0  0  0  0  0  0  0  0  0  0  0
    4.5716    2.3217   -0.4439 H   0  0  0  0  0  0  0  0  0  0  0  0
   -6.7890   -0.6513   -1.1787 H   0  0  0  0  0  0  0  0  0  0  0  0
   -6.6545   -1.6320    0.2945 H   0  0  0  0  0  0  0  0  0  0  0  0
   -7.6583   -0.1717    0.2889 H   0  0  0  0  0  0  0  0  0  0  0  0
  1  3  1  0  0  0  0
  2  3  2  0  0  0  0
  3  9  1  0  0  0  0
  4  5  1  0  0  0  0
  4  6  1  0  0  0  0
  4 14  1  0  0  0  0
  4 15  1  0  0  0  0
  5  7  1  0  0  0  0
  5 16  1  0  0  0  0
  5 17  1  0  0  0  0
  6  8  1  0  0  0  0
  6 18  1  0  0  0  0
  6 19  1  0  0  0  0
  7  9  1  0  0  0  0
  7 20  1  0  0  0  0
  7 21  1  0  0  0  0
  8 10  1  0  0  0  0
  8 22  1  0  0  0  0
  8 23  1  0  0  0  0
  9 12  1  0  0  0  0
  9 24  1  0  0  0  0
 10 11  1  0  0  0  0
 10 25  1  0  0  0  0
 10 26  1  0  0  0  0
 11 13  1  0  0  0  0
 11 27  1  0  0  0  0
 11 28  1  0  0  0  0
 12 29  1  0  0  0  0
 12 30  1  0  0  0  0
 12 31  1  0  0  0  0
 13 32  1  0  0  0  0
 13 33  1  0  0  0  0
 13 34  1  0  0  0  0
M  CHG  2   1  -1   3   1
M  END
> <PUBCHEM_COMPOUND_CID>
142730

> <PUBCHEM_CONFORMER_RMSD>
0.8

> <PUBCHEM_CONFORMER_DIVERSEORDER>
1
170
157
112
188
98
103
94
172
2
148
11
57
126
74
152
32
55
120
118
161
8
81
45
22
62
178
87
99
20
65
3
173
129
101
63
90
7
10
25
24
137
145
91
58
182
19
26
44
4
154
136
153
116
100
163
9
37
158
30
48
149
151
160
17
150
38
109
78
12
42
167
69
180
47
139
75
97
23
144
169
96
56
64
106
110
39
18
142
176
53
174
6
84
179
70
41
34
113
16
119
61
181
164
147
133
15
135
28
183
31
21
104
143
68
111
35
60
105
50
162
82
140
185
51
59
141
122
115
155
93
5
159
77
33
14
49
125
124
108
29
13
123
46
165
43
86
80
184
168
114
187
132
127
40
71
102
117
36
175
54
186
92
107
156
171
130
128
52
27
95
138
73
166
146
83
79
177
134
89
76
88
66
85
131
121
67
72

> <PUBCHEM_MMFF94_PARTIAL_CHARGES>
4
1 -0.52
2 -0.52
3 0.8
9 0.24

> <PUBCHEM_EFFECTIVE_ROTOR_COUNT>
8

> <PUBCHEM_PHARMACOPHORE_FEATURES>
4
1 1 acceptor
1 1 anion
1 13 hydrophobe
1 2 acceptor

> <PUBCHEM_HEAVY_ATOM_COUNT>
13

> <PUBCHEM_ATOM_DEF_STEREO_COUNT>
0

> <PUBCHEM_ATOM_UDEF_STEREO_COUNT>
1

> <PUBCHEM_BOND_DEF_STEREO_COUNT>
0

> <PUBCHEM_BOND_UDEF_STEREO_COUNT>
0

> <PUBCHEM_ISOTOPIC_ATOM_COUNT>
0

> <PUBCHEM_COMPONENT_COUNT>
1

> <PUBCHEM_CACTVS_TAUTO_COUNT>
2

> <PUBCHEM_CONFORMER_ID>
00022D8A00000001

> <PUBCHEM_MMFF94_ENERGY>
5.2339

> <PUBCHEM_FEATURE_SELFOVERLAP>
20.376

> <PUBCHEM_SHAPE_FINGERPRINT>
10912923 1 18130793365008457977
11858739 19 18342175523420355759
13167823 11 18411699902813396823
13533116 47 18202003205147561611
14123238 8 17846500344280210117
1420 363 17313109666192689657
14252887 29 18408045096087192944
15242433 33 18413109489161807655
17834072 33 18342455967610046917
17834076 25 15841557383378121141
17844677 252 17748829601151280029
20279233 1 17095246925600361728
20645477 70 18335702711152268390
220451 1 17989210373849646039
22485316 2 18335138721726817757
23402539 116 18202843254381614877
23532345 1 18188777270288050172
300161 21 18340762732224365333
42 15 18411983546542688261
42788 4 18413672426684176445
522135 26 18411139138766084188
5374978 207 18130784564156381256
57483677 66 18334856147755658403

> <PUBCHEM_SHAPE_MULTIPOLES>
250.81
14.62
1.24
0.79
17.78
0.29
0.11
1.94
0.7
-1.71
-0.03
-0.43
0.14
-0.23

> <PUBCHEM_SHAPE_SELFOVERLAP>
455.891

> <PUBCHEM_SHAPE_VOLUME>
161.1

> <PUBCHEM_COORDINATE_TYPE>
2
5
10

$$$$
