558957
  -OEChem-11012401063D

 25 25  0     1  0  0  0  0  0999 V2000
   -1.4596   -0.3261   -1.3814 O   0  0  0  0  0  0  0  0  0  0  0  0
   -1.1486   -0.2696    0.0136 C   0  0  1  0  0  0  0  0  0  0  0  0
    1.3985   -0.3819   -0.2849 C   0  0  1  0  0  0  0  0  0  0  0  0
    0.1418   -1.0631    0.2837 C   0  0  0  0  0  0  0  0  0  0  0  0
   -1.0075    1.1983    0.4467 C   0  0  0  0  0  0  0  0  0  0  0  0
    1.5047    1.0666    0.2058 C   0  0  0  0  0  0  0  0  0  0  0  0
    0.2465    1.8664   -0.1168 C   0  0  0  0  0  0  0  0  0  0  0  0
   -2.3284   -0.9209    0.7396 C   0  0  0  0  0  0  0  0  0  0  0  0
    2.6526   -1.1697    0.0938 C   0  0  0  0  0  0  0  0  0  0  0  0
    1.3241   -0.3727   -1.3804 H   0  0  0  0  0  0  0  0  0  0  0  0
    0.0569   -2.0642   -0.1588 H   0  0  0  0  0  0  0  0  0  0  0  0
    0.2668   -1.1976    1.3665 H   0  0  0  0  0  0  0  0  0  0  0  0
   -0.9701    1.2573    1.5422 H   0  0  0  0  0  0  0  0  0  0  0  0
   -1.8814    1.7764    0.1218 H   0  0  0  0  0  0  0  0  0  0  0  0
    2.3705    1.5550   -0.2570 H   0  0  0  0  0  0  0  0  0  0  0  0
    1.6739    1.0826    1.2902 H   0  0  0  0  0  0  0  0  0  0  0  0
    0.3384    2.8787    0.2928 H   0  0  0  0  0  0  0  0  0  0  0  0
    0.1492    1.9714   -1.2043 H   0  0  0  0  0  0  0  0  0  0  0  0
   -2.4761   -1.9514    0.3964 H   0  0  0  0  0  0  0  0  0  0  0  0
   -2.1779   -0.9360    1.8240 H   0  0  0  0  0  0  0  0  0  0  0  0
   -3.2625   -0.3872    0.5294 H   0  0  0  0  0  0  0  0  0  0  0  0
    2.5934   -2.1968   -0.2812 H   0  0  0  0  0  0  0  0  0  0  0  0
    3.5464   -0.7066   -0.3375 H   0  0  0  0  0  0  0  0  0  0  0  0
    2.7843   -1.2126    1.1803 H   0  0  0  0  0  0  0  0  0  0  0  0
   -2.2649    0.1973   -1.5336 H   0  0  0  0  0  0  0  0  0  0  0  0
  1  2  1  0  0  0  0
  1 25  1  0  0  0  0
  2  4  1  0  0  0  0
  2  5  1  0  0  0  0
  2  8  1  0  0  0  0
  3  4  1  0  0  0  0
  3  6  1  0  0  0  0
  3  9  1  0  0  0  0
  3 10  1  0  0  0  0
  4 11  1  0  0  0  0
  4 12  1  0  0  0  0
  5  7  1  0  0  0  0
  5 13  1  0  0  0  0
  5 14  1  0  0  0  0
  6  7  1  0  0  0  0
  6 15  1  0  0  0  0
  6 16  1  0  0  0  0
  7 17  1  0  0  0  0
  7 18  1  0  0  0  0
  8 19  1  0  0  0  0
  8 20  1  0  0  0  0
  8 21  1  0  0  0  0
  9 22  1  0  0  0  0
  9 23  1  0  0  0  0
  9 24  1  0  0  0  0
M  END
> <PUBCHEM_COMPOUND_CID>
558957

> <PUBCHEM_CONFORMER_RMSD>
0.4

> <PUBCHEM_CONFORMER_DIVERSEORDER>
1
3
8
5
7
2
6
4

> <PUBCHEM_MMFF94_PARTIAL_CHARGES>
3
1 -0.68
2 0.28
25 0.4

> <PUBCHEM_EFFECTIVE_ROTOR_COUNT>
1.2

> <PUBCHEM_PHARMACOPHORE_FEATURES>
3
1 1 acceptor
1 1 donor
6 2 3 4 5 6 7 rings

> <PUBCHEM_HEAVY_ATOM_COUNT>
9

> <PUBCHEM_ATOM_DEF_STEREO_COUNT>
0

> <PUBCHEM_ATOM_UDEF_STEREO_COUNT>
2

> <PUBCHEM_BOND_DEF_STEREO_COUNT>
0

> <PUBCHEM_BOND_UDEF_STEREO_COUNT>
0

> <PUBCHEM_ISOTOPIC_ATOM_COUNT>
0

> <PUBCHEM_COMPONENT_COUNT>
1

> <PUBCHEM_CACTVS_TAUTO_COUNT>
1

> <PUBCHEM_CONFORMER_ID>
0008876D00000001

> <PUBCHEM_MMFF94_ENERGY>
13.9152

> <PUBCHEM_FEATURE_SELFOVERLAP>
15.223

> <PUBCHEM_SHAPE_FINGERPRINT>
12423570 1 10274394561916910719
13024252 1 17460330849308671290
137420 1 13943728768202820289
16945 1 18194119852636276184
18185500 45 18057601168916483644
21040471 1 17186446183432350944
23235685 24 18050006893748920680
23552423 10 18187937157367394162
241688 4 18337111168177682992
24536 1 18335412499921777936
2748010 2 18410290302709483820
29004967 10 18336549437857589689
369184 2 18263081020341198234
5084963 1 17458350740441458762
528862 383 18192999450276893176

> <PUBCHEM_SHAPE_MULTIPOLES>
179.35
2.97
1.72
0.87
0.58
0.64
-0.19
-1.3
0.27
0.25
0.15
-0.34
-0.08
0.05

> <PUBCHEM_SHAPE_SELFOVERLAP>
346.744

> <PUBCHEM_SHAPE_VOLUME>
109.7

> <PUBCHEM_COORDINATE_TYPE>
2
5
10

$$$$
