140743
  -OEChem-11012401263D

 23 25  0     0  0  0  0  0  0999 V2000
    2.4171   -1.1018    0.0004 O   0  0  0  0  0  0  0  0  0  0  0  0
    2.4641    1.1633   -0.0001 N   0  0  0  0  0  0  0  0  0  0  0  0
   -1.2489   -0.7116    0.0003 C   0  0  0  0  0  0  0  0  0  0  0  0
   -1.2620    0.7101    0.0003 C   0  0  0  0  0  0  0  0  0  0  0  0
    1.1274   -0.6532    0.0004 C   0  0  0  0  0  0  0  0  0  0  0  0
    1.1603    0.7304    0.0004 C   0  0  0  0  0  0  0  0  0  0  0  0
   -0.0323   -1.4179    0.0005 C   0  0  0  0  0  0  0  0  0  0  0  0
   -0.0519    1.4350    0.0005 C   0  0  0  0  0  0  0  0  0  0  0  0
   -2.4690   -1.4049   -0.0002 C   0  0  0  0  0  0  0  0  0  0  0  0
   -2.4944    1.3816    0.0002 C   0  0  0  0  0  0  0  0  0  0  0  0
    3.1540    0.0442   -0.0007 C   0  0  0  0  0  0  0  0  0  0  0  0
   -3.6832   -0.7180   -0.0006 C   0  0  0  0  0  0  0  0  0  0  0  0
   -3.6959    0.6727   -0.0007 C   0  0  0  0  0  0  0  0  0  0  0  0
    4.6147   -0.1297   -0.0007 C   0  0  0  0  0  0  0  0  0  0  0  0
    0.0098   -2.5018    0.0005 H   0  0  0  0  0  0  0  0  0  0  0  0
   -0.0477    2.5216    0.0005 H   0  0  0  0  0  0  0  0  0  0  0  0
   -2.4865   -2.4931   -0.0002 H   0  0  0  0  0  0  0  0  0  0  0  0
   -2.5312    2.4692    0.0003 H   0  0  0  0  0  0  0  0  0  0  0  0
   -4.6185   -1.2700   -0.0011 H   0  0  0  0  0  0  0  0  0  0  0  0
   -4.6411    1.2076   -0.0011 H   0  0  0  0  0  0  0  0  0  0  0  0
    4.9358   -0.6835   -0.8879 H   0  0  0  0  0  0  0  0  0  0  0  0
    5.1209    0.8402   -0.0024 H   0  0  0  0  0  0  0  0  0  0  0  0
    4.9362   -0.6807    0.8880 H   0  0  0  0  0  0  0  0  0  0  0  0
  1  5  1  0  0  0  0
  1 11  1  0  0  0  0
  2  6  1  0  0  0  0
  2 11  2  0  0  0  0
  3  4  1  0  0  0  0
  3  7  1  0  0  0  0
  3  9  2  0  0  0  0
  4  8  1  0  0  0  0
  4 10  2  0  0  0  0
  5  6  1  0  0  0  0
  5  7  2  0  0  0  0
  6  8  2  0  0  0  0
  7 15  1  0  0  0  0
  8 16  1  0  0  0  0
  9 12  1  0  0  0  0
  9 17  1  0  0  0  0
 10 13  1  0  0  0  0
 10 18  1  0  0  0  0
 11 14  1  0  0  0  0
 12 13  2  0  0  0  0
 12 19  1  0  0  0  0
 13 20  1  0  0  0  0
 14 21  1  0  0  0  0
 14 22  1  0  0  0  0
 14 23  1  0  0  0  0
M  END
> <PUBCHEM_COMPOUND_CID>
140743

> <PUBCHEM_CONFORMER_RMSD>
0.4

> <PUBCHEM_CONFORMER_DIVERSEORDER>
1

> <PUBCHEM_MMFF94_PARTIAL_CHARGES>
18
1 -0.28
10 -0.15
11 0.3
12 -0.15
13 -0.15
14 0.18
15 0.15
16 0.15
17 0.15
18 0.15
19 0.15
2 -0.57
20 0.15
5 0.14
6 0.23
7 -0.15
8 -0.15
9 -0.15

> <PUBCHEM_EFFECTIVE_ROTOR_COUNT>
0

> <PUBCHEM_PHARMACOPHORE_FEATURES>
3
5 1 2 5 6 11 rings
6 3 4 5 6 7 8 rings
6 3 4 9 10 12 13 rings

> <PUBCHEM_HEAVY_ATOM_COUNT>
14

> <PUBCHEM_ATOM_DEF_STEREO_COUNT>
0

> <PUBCHEM_ATOM_UDEF_STEREO_COUNT>
0

> <PUBCHEM_BOND_DEF_STEREO_COUNT>
0

> <PUBCHEM_BOND_UDEF_STEREO_COUNT>
0

> <PUBCHEM_ISOTOPIC_ATOM_COUNT>
0

> <PUBCHEM_COMPONENT_COUNT>
1

> <PUBCHEM_CACTVS_TAUTO_COUNT>
1

> <PUBCHEM_CONFORMER_ID>
000225C700000001

> <PUBCHEM_MMFF94_ENERGY>
29.9581

> <PUBCHEM_FEATURE_SELFOVERLAP>
15.366

> <PUBCHEM_SHAPE_FINGERPRINT>
10608611 8 18411976974926604001
10967382 1 18410573959497886791
11132069 177 18411978061510729160
11401426 45 18412820296033874860
11471102 20 18410851049202030230
12032990 46 18411425024352480374
13221675 6 18410292505885190855
13288520 33 18412829058363355254
13380535 76 18410856546813358215
14144814 61 18410009922875385851
14325111 11 18410855460175809953
14911166 2 18410284809836514205
15196674 1 18410856585409625828
15219456 202 18130795503374813166
15309172 13 18343591745720481595
15442244 35 18194401078694859362
15536298 74 18342738572058031640
15775835 57 18334579009967734601
16945 1 18410855438938220389
17804303 29 18413111679510849288
18186145 218 18335419062568528748
18522853 276 18413387644012857848
193761 8 17690280413228693541
200 152 17989198257556895965
20201158 50 18412826875960877503
20510252 161 18201440229366301585
21267235 1 18410302427333725003
21501502 16 18266180711012924941
23402539 116 18272079500527355535
23402655 69 18269542863643035613
23463225 33 18335701624298461758
23559900 14 18343581824936494680
2748010 2 18411418431651417237
3312278 4 18411420600720632593
43471831 8 18262514797459738906
474 4 16807022158971636932
5104073 3 18411136960922208448
528886 8 18411131428993774395
53812653 166 18342452642836037032
54173680 148 18120376711710879579
6333449 129 18412542107050004573
69090 78 18201432597393909255
7364860 26 18196934370633924006
8809292 202 18188776166238647955
9709674 26 18412269445130544222

> <PUBCHEM_SHAPE_MULTIPOLES>
277.26
6.93
1.55
0.6
3.13
0.01
0
-0.16
0
-0.6
0
-0.03
0
0

> <PUBCHEM_SHAPE_SELFOVERLAP>
628.155

> <PUBCHEM_SHAPE_VOLUME>
148.5

> <PUBCHEM_COORDINATE_TYPE>
2
5
10

$$$$
