15505
  -OEChem-11012400403D

 27 27  0     0  0  0  0  0  0999 V2000
   -0.0974   -0.2855   -0.2756 C   0  0  0  0  0  0  0  0  0  0  0  0
    0.3326    1.0916    0.2480 C   0  0  0  0  0  0  0  0  0  0  0  0
    0.8959   -1.3706    0.1613 C   0  0  0  0  0  0  0  0  0  0  0  0
    1.7624    1.4311   -0.1669 C   0  0  0  0  0  0  0  0  0  0  0  0
    2.3248   -1.0270   -0.2533 C   0  0  0  0  0  0  0  0  0  0  0  0
    2.7454    0.3461    0.2614 C   0  0  0  0  0  0  0  0  0  0  0  0
   -1.5098   -0.6252    0.1967 C   0  0  0  0  0  0  0  0  0  0  0  0
   -2.5260    0.3813   -0.3316 C   0  0  0  0  0  0  0  0  0  0  0  0
   -3.9279    0.0582    0.1601 C   0  0  0  0  0  0  0  0  0  0  0  0
   -0.0964   -0.2517   -1.3740 H   0  0  0  0  0  0  0  0  0  0  0  0
    0.2554    1.1202    1.3422 H   0  0  0  0  0  0  0  0  0  0  0  0
   -0.3086    1.8872   -0.1427 H   0  0  0  0  0  0  0  0  0  0  0  0
    0.6149   -2.3348   -0.2788 H   0  0  0  0  0  0  0  0  0  0  0  0
    0.8571   -1.4954    1.2510 H   0  0  0  0  0  0  0  0  0  0  0  0
    2.0571    2.3896    0.2752 H   0  0  0  0  0  0  0  0  0  0  0  0
    1.8072    1.5546   -1.2561 H   0  0  0  0  0  0  0  0  0  0  0  0
    2.4015   -1.0461   -1.3474 H   0  0  0  0  0  0  0  0  0  0  0  0
    3.0125   -1.7901    0.1283 H   0  0  0  0  0  0  0  0  0  0  0  0
    3.7474    0.5883   -0.1101 H   0  0  0  0  0  0  0  0  0  0  0  0
    2.8074    0.3218    1.3563 H   0  0  0  0  0  0  0  0  0  0  0  0
   -1.5456   -0.6496    1.2933 H   0  0  0  0  0  0  0  0  0  0  0  0
   -1.7820   -1.6294   -0.1517 H   0  0  0  0  0  0  0  0  0  0  0  0
   -2.5177    0.3867   -1.4276 H   0  0  0  0  0  0  0  0  0  0  0  0
   -2.3009    1.3970    0.0044 H   0  0  0  0  0  0  0  0  0  0  0  0
   -4.2411   -0.9364   -0.1733 H   0  0  0  0  0  0  0  0  0  0  0  0
   -3.9774    0.0858    1.2534 H   0  0  0  0  0  0  0  0  0  0  0  0
   -4.6447    0.7875   -0.2304 H   0  0  0  0  0  0  0  0  0  0  0  0
  1  2  1  0  0  0  0
  1  3  1  0  0  0  0
  1  7  1  0  0  0  0
  1 10  1  0  0  0  0
  2  4  1  0  0  0  0
  2 11  1  0  0  0  0
  2 12  1  0  0  0  0
  3  5  1  0  0  0  0
  3 13  1  0  0  0  0
  3 14  1  0  0  0  0
  4  6  1  0  0  0  0
  4 15  1  0  0  0  0
  4 16  1  0  0  0  0
  5  6  1  0  0  0  0
  5 17  1  0  0  0  0
  5 18  1  0  0  0  0
  6 19  1  0  0  0  0
  6 20  1  0  0  0  0
  7  8  1  0  0  0  0
  7 21  1  0  0  0  0
  7 22  1  0  0  0  0
  8  9  1  0  0  0  0
  8 23  1  0  0  0  0
  8 24  1  0  0  0  0
  9 25  1  0  0  0  0
  9 26  1  0  0  0  0
  9 27  1  0  0  0  0
M  END
> <PUBCHEM_COMPOUND_CID>
15505

> <PUBCHEM_CONFORMER_RMSD>
0.6

> <PUBCHEM_CONFORMER_DIVERSEORDER>
1
7
5
8
3
6
4
2

> <PUBCHEM_MMFF94_PARTIAL_CHARGES>
0

> <PUBCHEM_EFFECTIVE_ROTOR_COUNT>
3.2

> <PUBCHEM_PHARMACOPHORE_FEATURES>
2
1 9 hydrophobe
6 1 2 3 4 5 6 rings

> <PUBCHEM_HEAVY_ATOM_COUNT>
9

> <PUBCHEM_ATOM_DEF_STEREO_COUNT>
0

> <PUBCHEM_ATOM_UDEF_STEREO_COUNT>
0

> <PUBCHEM_BOND_DEF_STEREO_COUNT>
0

> <PUBCHEM_BOND_UDEF_STEREO_COUNT>
0

> <PUBCHEM_ISOTOPIC_ATOM_COUNT>
0

> <PUBCHEM_COMPONENT_COUNT>
1

> <PUBCHEM_CACTVS_TAUTO_COUNT>
1

> <PUBCHEM_CONFORMER_ID>
00003C9100000001

> <PUBCHEM_MMFF94_ENERGY>
2.2765

> <PUBCHEM_FEATURE_SELFOVERLAP>
10.148

> <PUBCHEM_SHAPE_FINGERPRINT>
10219947 1 18202283576312181551
11062470 55 15626222424818984465
12932764 1 17749101180359537023
14325111 11 18410574019917384405
14390081 3 18411979182808468657
15775835 57 18200594812324941757
17844478 74 18040439867398551597
20201158 50 18335421248844110355
20645477 70 18339636742614164471
20871998 22 17983579602720809310
21040471 1 18122624113767534788
23235685 24 18337947986915775768
23402655 69 18341604902787355605
23552333 60 18342738486010629250
23552423 10 18335138734379721574
29004967 10 18408042905342590218

> <PUBCHEM_SHAPE_MULTIPOLES>
185.22
5.18
1.38
0.67
4.52
0.04
0
0.27
-0.12
-0.83
0
0
0
0.09

> <PUBCHEM_SHAPE_SELFOVERLAP>
348.566

> <PUBCHEM_SHAPE_VOLUME>
114.4

> <PUBCHEM_COORDINATE_TYPE>
2
5
10

$$$$
