6722
  -OEChem-11012401123D

 24 25  0     0  0  0  0  0  0999 V2000
    2.3130    0.2955   -0.0770 S   0  0  0  0  0  0  0  0  0  0  0  0
    2.4357    0.9782    1.3992 O   0  0  0  0  0  0  0  0  0  0  0  0
    3.3730   -0.6890   -0.1887 O   0  0  0  0  0  0  0  0  0  0  0  0
    2.1579    1.3501   -1.0605 O   0  0  0  0  0  0  0  0  0  0  0  0
    0.3769    2.3310   -0.0487 N   0  0  0  0  0  0  0  0  0  0  0  0
   -0.4979   -0.0042   -0.0167 C   0  0  0  0  0  0  0  0  0  0  0  0
    0.7839   -0.5777   -0.0402 C   0  0  0  0  0  0  0  0  0  0  0  0
   -1.6332   -0.8487    0.0119 C   0  0  0  0  0  0  0  0  0  0  0  0
   -0.6780    1.3885   -0.0210 C   0  0  0  0  0  0  0  0  0  0  0  0
    0.9441   -1.9637   -0.0354 C   0  0  0  0  0  0  0  0  0  0  0  0
   -1.4534   -2.2416    0.0159 C   0  0  0  0  0  0  0  0  0  0  0  0
   -2.9151   -0.2755    0.0352 C   0  0  0  0  0  0  0  0  0  0  0  0
   -0.1724   -2.7941   -0.0077 C   0  0  0  0  0  0  0  0  0  0  0  0
   -1.9589    1.9408    0.0028 C   0  0  0  0  0  0  0  0  0  0  0  0
   -3.0755    1.1104    0.0309 C   0  0  0  0  0  0  0  0  0  0  0  0
    1.9118   -2.4546   -0.0475 H   0  0  0  0  0  0  0  0  0  0  0  0
   -2.3118   -2.9098    0.0377 H   0  0  0  0  0  0  0  0  0  0  0  0
   -3.8020   -0.9055    0.0573 H   0  0  0  0  0  0  0  0  0  0  0  0
   -0.0482   -3.8733   -0.0028 H   0  0  0  0  0  0  0  0  0  0  0  0
   -2.1072    3.0182    0.0011 H   0  0  0  0  0  0  0  0  0  0  0  0
   -4.0725    1.5407    0.0496 H   0  0  0  0  0  0  0  0  0  0  0  0
    1.0852    2.2432    0.6686 H   0  0  0  0  0  0  0  0  0  0  0  0
    0.1366    3.2865   -0.2895 H   0  0  0  0  0  0  0  0  0  0  0  0
    2.4684    0.3475    2.1565 H   0  0  0  0  0  0  0  0  0  0  0  0
  1  2  1  0  0  0  0
  1  3  2  0  0  0  0
  1  4  2  0  0  0  0
  1  7  1  0  0  0  0
  2 24  1  0  0  0  0
  5  9  1  0  0  0  0
  5 22  1  0  0  0  0
  5 23  1  0  0  0  0
  6  7  1  0  0  0  0
  6  8  2  0  0  0  0
  6  9  1  0  0  0  0
  7 10  2  0  0  0  0
  8 11  1  0  0  0  0
  8 12  1  0  0  0  0
  9 14  2  0  0  0  0
 10 13  1  0  0  0  0
 10 16  1  0  0  0  0
 11 13  2  0  0  0  0
 11 17  1  0  0  0  0
 12 15  2  0  0  0  0
 12 18  1  0  0  0  0
 13 19  1  0  0  0  0
 14 15  1  0  0  0  0
 14 20  1  0  0  0  0
 15 21  1  0  0  0  0
M  END
> <PUBCHEM_COMPOUND_CID>
6722

> <PUBCHEM_CONFORMER_RMSD>
0.4

> <PUBCHEM_CONFORMER_DIVERSEORDER>
1

> <PUBCHEM_MMFF94_PARTIAL_CHARGES>
22
1 1.49
10 -0.15
11 -0.15
12 -0.15
13 -0.15
14 -0.15
15 -0.15
16 0.15
17 0.15
18 0.15
19 0.15
2 -0.68
20 0.15
21 0.15
22 0.4
23 0.4
24 0.5
3 -0.65
4 -0.65
5 -0.9
7 -0.01
9 0.1

> <PUBCHEM_EFFECTIVE_ROTOR_COUNT>
1

> <PUBCHEM_PHARMACOPHORE_FEATURES>
8
1 2 acceptor
1 3 acceptor
1 4 acceptor
1 5 cation
1 5 donor
4 1 2 3 4 anion
6 6 7 8 10 11 13 rings
6 6 8 9 12 14 15 rings

> <PUBCHEM_HEAVY_ATOM_COUNT>
15

> <PUBCHEM_ATOM_DEF_STEREO_COUNT>
0

> <PUBCHEM_ATOM_UDEF_STEREO_COUNT>
0

> <PUBCHEM_BOND_DEF_STEREO_COUNT>
0

> <PUBCHEM_BOND_UDEF_STEREO_COUNT>
0

> <PUBCHEM_ISOTOPIC_ATOM_COUNT>
0

> <PUBCHEM_COMPONENT_COUNT>
1

> <PUBCHEM_CACTVS_TAUTO_COUNT>
1

> <PUBCHEM_CONFORMER_ID>
00001A4200000001

> <PUBCHEM_MMFF94_ENERGY>
69.2607

> <PUBCHEM_FEATURE_SELFOVERLAP>
40.678

> <PUBCHEM_SHAPE_FINGERPRINT>
10967382 1 18266179418280457847
11132069 177 18410287017011951753
12382932 28 18196365038379622056
12423570 1 9119781166681636545
12524768 44 18048598114690214107
13140716 1 18338800121006125963
13172582 1 18410296947123883793
13380535 76 18337952277419552759
13897977 150 18194398888525223901
14614273 12 18188767219895441597
15775835 57 18270685251074427569
16945 1 18266741474833176311
17804303 29 18340765945340048122
193761 8 17762339519300825021
20510252 161 18271247226212840753
20645476 183 17823719605460616702
21524375 3 18340486673238682407
22802520 49 18201175311657308910
2334 1 18338517430859683679
23402539 116 18342727507784265230
23419403 2 16255241065564713061
23463225 33 18262236616801461146
23493267 7 17676777465631267009
23552423 10 18048601426162837847
23559900 14 18272095985809271276
241688 4 16464457860453721315
2748010 2 18265900163938989375
2897 32 18049727317052393557
5255222 1 18050845524715195348
528886 8 18410290272607620643
53812653 166 18270117903058696969
7364860 26 17910673163951605991
81228 2 18123181574536799067

> <PUBCHEM_SHAPE_MULTIPOLES>
289.95
4.2
2.81
0.76
0.59
0.98
-0.08
-1.16
-0.07
-0.37
0.05
0.34
-0.18
0.04

> <PUBCHEM_SHAPE_SELFOVERLAP>
627.169

> <PUBCHEM_SHAPE_VOLUME>
158.7

> <PUBCHEM_COORDINATE_TYPE>
2
5
10

$$$$
