72661
  -OEChem-11012401083D

 16 16  0     0  0  0  0  0  0999 V2000
   -2.5763    1.5408   -0.0031 O   0  5  0  0  0  0  0  0  0  0  0  0
    2.8699   -0.6959   -0.0097 O   0  0  0  0  0  0  0  0  0  0  0  0
   -1.7170    0.6008   -0.0013 N   0  3  0  0  0  0  0  0  0  0  0  0
    2.3569    1.5391    0.0033 N   0  0  0  0  0  0  0  0  0  0  0  0
    0.5834   -0.1313    0.0023 C   0  0  0  0  0  0  0  0  0  0  0  0
   -0.3652    0.8860    0.0001 C   0  0  0  0  0  0  0  0  0  0  0  0
    0.1645   -1.4572    0.0031 C   0  0  0  0  0  0  0  0  0  0  0  0
   -1.1938   -1.7557    0.0016 C   0  0  0  0  0  0  0  0  0  0  0  0
   -2.1223   -0.7199   -0.0006 C   0  0  0  0  0  0  0  0  0  0  0  0
    2.0000    0.1934    0.0043 C   0  0  0  0  0  0  0  0  0  0  0  0
   -0.1726    1.9474   -0.0009 H   0  0  0  0  0  0  0  0  0  0  0  0
    0.8788   -2.2762    0.0052 H   0  0  0  0  0  0  0  0  0  0  0  0
   -1.5285   -2.7882    0.0023 H   0  0  0  0  0  0  0  0  0  0  0  0
   -3.1922   -0.8694   -0.0019 H   0  0  0  0  0  0  0  0  0  0  0  0
    1.7119    2.3191    0.0093 H   0  0  0  0  0  0  0  0  0  0  0  0
    3.3393    1.7949   -0.0021 H   0  0  0  0  0  0  0  0  0  0  0  0
  1  3  1  0  0  0  0
  2 10  2  0  0  0  0
  3  6  1  0  0  0  0
  3  9  2  0  0  0  0
  4 10  1  0  0  0  0
  4 15  1  0  0  0  0
  4 16  1  0  0  0  0
  5  6  2  0  0  0  0
  5  7  1  0  0  0  0
  5 10  1  0  0  0  0
  6 11  1  0  0  0  0
  7  8  2  0  0  0  0
  7 12  1  0  0  0  0
  8  9  1  0  0  0  0
  8 13  1  0  0  0  0
  9 14  1  0  0  0  0
M  CHG  2   1  -1   3   1
M  END
> <PUBCHEM_COMPOUND_CID>
72661

> <PUBCHEM_CONFORMER_RMSD>
0.4

> <PUBCHEM_CONFORMER_DIVERSEORDER>
1
2

> <PUBCHEM_MMFF94_PARTIAL_CHARGES>
16
1 -0.75
10 0.54
11 0.15
12 0.15
13 0.15
14 0.15
15 0.37
16 0.37
2 -0.57
3 0.57
4 -0.8
5 0.09
6 -0.06
7 -0.15
8 -0.15
9 -0.06

> <PUBCHEM_EFFECTIVE_ROTOR_COUNT>
1

> <PUBCHEM_PHARMACOPHORE_FEATURES>
4
1 1 anion
1 2 acceptor
1 4 donor
6 3 5 6 7 8 9 rings

> <PUBCHEM_HEAVY_ATOM_COUNT>
10

> <PUBCHEM_ATOM_DEF_STEREO_COUNT>
0

> <PUBCHEM_ATOM_UDEF_STEREO_COUNT>
0

> <PUBCHEM_BOND_DEF_STEREO_COUNT>
0

> <PUBCHEM_BOND_UDEF_STEREO_COUNT>
0

> <PUBCHEM_ISOTOPIC_ATOM_COUNT>
0

> <PUBCHEM_COMPONENT_COUNT>
1

> <PUBCHEM_CACTVS_TAUTO_COUNT>
2

> <PUBCHEM_CONFORMER_ID>
00011BD500000001

> <PUBCHEM_MMFF94_ENERGY>
26.8056

> <PUBCHEM_FEATURE_SELFOVERLAP>
20.297

> <PUBCHEM_SHAPE_FINGERPRINT>
12897270 3 18123190362097564516
14325111 11 18410855460181065216
16945 1 18338797814556108931
193761 8 14807976192250360674
19973954 147 18338518654788297428
20653085 51 18338811047418744480
20871998 184 18128543862633381239
21040471 1 18410855430116216195
23235685 24 18339637820138921161
23552423 10 18260829353729651230
241688 4 16250819439799374299
2748010 2 18410857689232032324
369184 2 18341612667434007706
5084963 1 18272932730177458322

> <PUBCHEM_SHAPE_MULTIPOLES>
184.09
3.66
1.76
0.58
1.23
0.02
0
-0.79
0.01
-0.54
0
-0.01
0.03
0

> <PUBCHEM_SHAPE_SELFOVERLAP>
384.597

> <PUBCHEM_SHAPE_VOLUME>
104.1

> <PUBCHEM_COORDINATE_TYPE>
2
5
10

$$$$
