138934
  -OEChem-11012401083D

 11 10  0     0  0  0  0  0  0999 V2000
    1.3911    1.5353   -0.8334 Cl  0  0  0  0  0  0  0  0  0  0  0  0
    2.7168   -0.1536    1.1352 Cl  0  0  0  0  0  0  0  0  0  0  0  0
    1.3003   -1.3498   -1.0921 Cl  0  0  0  0  0  0  0  0  0  0  0  0
   -2.3812   -0.0170    0.9874 F   0  0  0  0  0  0  0  0  0  0  0  0
   -1.4943   -1.0618   -0.7007 F   0  0  0  0  0  0  0  0  0  0  0  0
   -1.4406    1.1186   -0.6104 F   0  0  0  0  0  0  0  0  0  0  0  0
   -0.0299   -0.0715    0.9004 C   0  0  0  0  0  0  0  0  0  0  0  0
    1.2748    0.0071    0.0891 C   0  0  0  0  0  0  0  0  0  0  0  0
   -1.3370   -0.0072    0.1245 C   0  0  0  0  0  0  0  0  0  0  0  0
   -0.0366   -0.9997    1.4874 H   0  0  0  0  0  0  0  0  0  0  0  0
   -0.0377    0.7455    1.6341 H   0  0  0  0  0  0  0  0  0  0  0  0
  1  8  1  0  0  0  0
  2  8  1  0  0  0  0
  3  8  1  0  0  0  0
  4  9  1  0  0  0  0
  5  9  1  0  0  0  0
  6  9  1  0  0  0  0
  7  8  1  0  0  0  0
  7  9  1  0  0  0  0
  7 10  1  0  0  0  0
  7 11  1  0  0  0  0
M  END
> <PUBCHEM_COMPOUND_CID>
138934

> <PUBCHEM_CONFORMER_RMSD>
0.4

> <PUBCHEM_CONFORMER_DIVERSEORDER>
1

> <PUBCHEM_MMFF94_PARTIAL_CHARGES>
8
1 -0.29
2 -0.29
3 -0.29
4 -0.34
5 -0.34
6 -0.34
8 0.87
9 1.02

> <PUBCHEM_EFFECTIVE_ROTOR_COUNT>
2

> <PUBCHEM_PHARMACOPHORE_FEATURES>
0

> <PUBCHEM_HEAVY_ATOM_COUNT>
9

> <PUBCHEM_ATOM_DEF_STEREO_COUNT>
0

> <PUBCHEM_ATOM_UDEF_STEREO_COUNT>
0

> <PUBCHEM_BOND_DEF_STEREO_COUNT>
0

> <PUBCHEM_BOND_UDEF_STEREO_COUNT>
0

> <PUBCHEM_ISOTOPIC_ATOM_COUNT>
0

> <PUBCHEM_COMPONENT_COUNT>
1

> <PUBCHEM_CACTVS_TAUTO_COUNT>
1

> <PUBCHEM_CONFORMER_ID>
00021EB600000001

> <PUBCHEM_MMFF94_ENERGY>
11.7951

> <PUBCHEM_FEATURE_SELFOVERLAP>
0

> <PUBCHEM_SHAPE_FINGERPRINT>
21040471 1 17775295970737922139
23235687 12 18410295838774401379
23552423 10 18272381857704007815
23552449 11 18040439918563450312
24536 1 18341621403376284776
29004967 10 18410297965036472650
5084963 1 18267570463682462650

> <PUBCHEM_SHAPE_MULTIPOLES>
169
3.17
1.34
1.26
0.22
0.21
-0.03
-0.09
-0.9
-0.36
0.64
-0.39
-0.14
-0.05

> <PUBCHEM_SHAPE_SELFOVERLAP>
297.109

> <PUBCHEM_SHAPE_VOLUME>
113.1

> <PUBCHEM_COORDINATE_TYPE>
2
5
10

$$$$
