143877
  -OEChem-11012400573D

 26 25  0     0  0  0  0  0  0999 V2000
   -4.2936   -1.5973   -0.4282 Cl  0  0  0  0  0  0  0  0  0  0  0  0
    0.7620   -0.0591    0.2677 O   0  0  0  0  0  0  0  0  0  0  0  0
   -0.3360    1.7705   -0.6093 O   0  0  0  0  0  0  0  0  0  0  0  0
    3.1633   -0.3953    0.3518 C   0  0  0  0  0  0  0  0  0  0  0  0
    2.0207    0.5316   -0.0720 C   0  0  0  0  0  0  0  0  0  0  0  0
    3.0789   -1.7462   -0.3619 C   0  0  0  0  0  0  0  0  0  0  0  0
    4.5135    0.2647    0.0807 C   0  0  0  0  0  0  0  0  0  0  0  0
   -1.5794   -0.0860    0.3529 C   0  0  0  0  0  0  0  0  0  0  0  0
   -2.8589    0.6929    0.0429 C   0  0  0  0  0  0  0  0  0  0  0  0
   -0.3410    0.6766   -0.0619 C   0  0  0  0  0  0  0  0  0  0  0  0
   -4.1295   -0.0523    0.4373 C   0  0  0  0  0  0  0  0  0  0  0  0
    3.0746   -0.5877    1.4287 H   0  0  0  0  0  0  0  0  0  0  0  0
    2.1115    1.4931    0.4481 H   0  0  0  0  0  0  0  0  0  0  0  0
    2.0561    0.7096   -1.1540 H   0  0  0  0  0  0  0  0  0  0  0  0
    3.9017   -2.3997   -0.0528 H   0  0  0  0  0  0  0  0  0  0  0  0
    3.1340   -1.6244   -1.4490 H   0  0  0  0  0  0  0  0  0  0  0  0
    2.1421   -2.2612   -0.1254 H   0  0  0  0  0  0  0  0  0  0  0  0
    5.3350   -0.3800    0.4104 H   0  0  0  0  0  0  0  0  0  0  0  0
    4.5975    1.2140    0.6201 H   0  0  0  0  0  0  0  0  0  0  0  0
    4.6500    0.4680   -0.9870 H   0  0  0  0  0  0  0  0  0  0  0  0
   -1.5649   -1.0399   -0.1838 H   0  0  0  0  0  0  0  0  0  0  0  0
   -1.5197   -0.2798    1.4297 H   0  0  0  0  0  0  0  0  0  0  0  0
   -2.8363    1.6535    0.5726 H   0  0  0  0  0  0  0  0  0  0  0  0
   -2.8943    0.9336   -1.0274 H   0  0  0  0  0  0  0  0  0  0  0  0
   -5.0114    0.5518    0.2042 H   0  0  0  0  0  0  0  0  0  0  0  0
   -4.1367   -0.2695    1.5097 H   0  0  0  0  0  0  0  0  0  0  0  0
  1 11  1  0  0  0  0
  2  5  1  0  0  0  0
  2 10  1  0  0  0  0
  3 10  2  0  0  0  0
  4  5  1  0  0  0  0
  4  6  1  0  0  0  0
  4  7  1  0  0  0  0
  4 12  1  0  0  0  0
  5 13  1  0  0  0  0
  5 14  1  0  0  0  0
  6 15  1  0  0  0  0
  6 16  1  0  0  0  0
  6 17  1  0  0  0  0
  7 18  1  0  0  0  0
  7 19  1  0  0  0  0
  7 20  1  0  0  0  0
  8  9  1  0  0  0  0
  8 10  1  0  0  0  0
  8 21  1  0  0  0  0
  8 22  1  0  0  0  0
  9 11  1  0  0  0  0
  9 23  1  0  0  0  0
  9 24  1  0  0  0  0
 11 25  1  0  0  0  0
 11 26  1  0  0  0  0
M  END
> <PUBCHEM_COMPOUND_CID>
143877

> <PUBCHEM_CONFORMER_RMSD>
0.6

> <PUBCHEM_CONFORMER_DIVERSEORDER>
1
155
154
40
38
57
32
93
176
119
116
118
97
48
5
121
4
143
92
132
103
49
112
146
130
114
101
136
161
69
102
79
27
8
2
173
99
111
77
55
90
29
110
46
108
23
125
22
135
137
159
25
34
98
138
152
122
124
60
20
74
131
168
63
14
129
96
106
19
164
127
100
73
123
105
158
30
42
59
26
64
3
51
91
21
144
72
61
166
109
89
134
133
162
170
9
165
95
31
141
113
50
120
167
43
44
117
45
140
174
76
68
126
52
115
171
13
39
169
54
24
139
86
36
172
33
81
151
7
41
58
128
94
75
87
148
104
12
71
78
53
62
11
175
15
107
10
160
65
149
85
88
156
47
67
16
82
142
145
150
28
157
147
37
153
56
18
66
80
35
163
84
6
17
83
70

> <PUBCHEM_MMFF94_PARTIAL_CHARGES>
7
1 -0.29
10 0.66
11 0.29
2 -0.43
3 -0.57
5 0.28
8 0.06

> <PUBCHEM_EFFECTIVE_ROTOR_COUNT>
6

> <PUBCHEM_PHARMACOPHORE_FEATURES>
2
1 3 acceptor
3 4 6 7 hydrophobe

> <PUBCHEM_HEAVY_ATOM_COUNT>
11

> <PUBCHEM_ATOM_DEF_STEREO_COUNT>
0

> <PUBCHEM_ATOM_UDEF_STEREO_COUNT>
0

> <PUBCHEM_BOND_DEF_STEREO_COUNT>
0

> <PUBCHEM_BOND_UDEF_STEREO_COUNT>
0

> <PUBCHEM_ISOTOPIC_ATOM_COUNT>
0

> <PUBCHEM_COMPONENT_COUNT>
1

> <PUBCHEM_CACTVS_TAUTO_COUNT>
1

> <PUBCHEM_CONFORMER_ID>
0002320500000001

> <PUBCHEM_MMFF94_ENERGY>
7.5697

> <PUBCHEM_FEATURE_SELFOVERLAP>
10.148

> <PUBCHEM_SHAPE_FINGERPRINT>
11987891 38 18413672413493423335
12032990 46 18335144176329983011
12932764 1 16772934931772259288
14123238 8 18334013908399189306
14123260 362 13118549711658782447
14251717 144 18408603677568484582
14252887 29 18411708668593643874
14325111 11 18339080393555582136
15477762 27 18408887334841970020
177051 138 18413672396044320958
17834072 33 18341333395923336420
17834074 16 18343303656262188911
18186145 218 15791737416328029101
20279233 1 17895202090735294882
20281407 28 18411984632847628328
20281475 54 18341333314155180562
20724930 69 8646497331730409279
20828058 44 18131633391649368515
21119208 17 13695585550838811154
22485316 2 18411135814318926747
23402539 116 18040989635627667684
449060 50 17988922297191787664
581208 293 18408886226672037266

> <PUBCHEM_SHAPE_MULTIPOLES>
216.51
9.38
1.51
0.71
1.04
0.42
-0.01
3.31
0.25
0.25
-0.32
0.11
0
-0.12

> <PUBCHEM_SHAPE_SELFOVERLAP>
388.485

> <PUBCHEM_SHAPE_VOLUME>
140.6

> <PUBCHEM_COORDINATE_TYPE>
2
5
10

$$$$
