12484751
  -OEChem-11012400563D

 30 29  0     0  0  0  0  0  0999 V2000
   -2.9709   -0.0115    0.8872 S   0  0  0  0  0  0  0  0  0  0  0  0
    1.4397    0.0041   -0.0514 Si  0  0  0  0  0  0  0  0  0  0  0  0
    2.6750   -0.0103    1.0842 O   0  0  0  0  0  0  0  0  0  0  0  0
    1.5841    1.3721   -1.0106 O   0  0  0  0  0  0  0  0  0  0  0  0
    1.5849   -1.3579   -1.0201 O   0  0  0  0  0  0  0  0  0  0  0  0
   -0.2175   -0.0104    0.8335 C   0  0  0  0  0  0  0  0  0  0  0  0
   -1.4377    0.0010   -0.0877 C   0  0  0  0  0  0  0  0  0  0  0  0
   -4.1508    0.0056   -0.4816 C   0  0  0  0  0  0  0  0  0  0  0  0
    4.0259   -0.0026    0.6444 C   0  0  0  0  0  0  0  0  0  0  0  0
    1.5163    2.6583   -0.4122 C   0  0  0  0  0  0  0  0  0  0  0  0
    1.5253   -2.6473   -0.4276 C   0  0  0  0  0  0  0  0  0  0  0  0
   -5.5744   -0.0011    0.0419 C   0  0  0  0  0  0  0  0  0  0  0  0
   -0.2464   -0.8982    1.4772 H   0  0  0  0  0  0  0  0  0  0  0  0
   -0.2476    0.8612    1.4989 H   0  0  0  0  0  0  0  0  0  0  0  0
   -1.4318   -0.8780   -0.7419 H   0  0  0  0  0  0  0  0  0  0  0  0
   -1.4323    0.8963   -0.7195 H   0  0  0  0  0  0  0  0  0  0  0  0
   -3.9882    0.9016   -1.0891 H   0  0  0  0  0  0  0  0  0  0  0  0
   -3.9880   -0.8746   -1.1114 H   0  0  0  0  0  0  0  0  0  0  0  0
    4.2525    0.9048    0.0737 H   0  0  0  0  0  0  0  0  0  0  0  0
    4.2544   -0.8920    0.0470 H   0  0  0  0  0  0  0  0  0  0  0  0
    4.6706   -0.0150    1.5286 H   0  0  0  0  0  0  0  0  0  0  0  0
    1.6795    3.4055   -1.1950 H   0  0  0  0  0  0  0  0  0  0  0  0
    2.2958    2.7884    0.3466 H   0  0  0  0  0  0  0  0  0  0  0  0
    0.5284    2.8386    0.0250 H   0  0  0  0  0  0  0  0  0  0  0  0
    0.5383   -2.8363    0.0081 H   0  0  0  0  0  0  0  0  0  0  0  0
    2.3055   -2.7771    0.3304 H   0  0  0  0  0  0  0  0  0  0  0  0
    1.6930   -3.3895   -1.2141 H   0  0  0  0  0  0  0  0  0  0  0  0
   -5.7806   -0.8979    0.6361 H   0  0  0  0  0  0  0  0  0  0  0  0
   -5.7807    0.8804    0.6585 H   0  0  0  0  0  0  0  0  0  0  0  0
   -6.2796    0.0093   -0.7958 H   0  0  0  0  0  0  0  0  0  0  0  0
  1  7  1  0  0  0  0
  1  8  1  0  0  0  0
  2  3  1  0  0  0  0
  2  4  1  0  0  0  0
  2  5  1  0  0  0  0
  2  6  1  0  0  0  0
  3  9  1  0  0  0  0
  4 10  1  0  0  0  0
  5 11  1  0  0  0  0
  6  7  1  0  0  0  0
  6 13  1  0  0  0  0
  6 14  1  0  0  0  0
  7 15  1  0  0  0  0
  7 16  1  0  0  0  0
  8 12  1  0  0  0  0
  8 17  1  0  0  0  0
  8 18  1  0  0  0  0
  9 19  1  0  0  0  0
  9 20  1  0  0  0  0
  9 21  1  0  0  0  0
 10 22  1  0  0  0  0
 10 23  1  0  0  0  0
 10 24  1  0  0  0  0
 11 25  1  0  0  0  0
 11 26  1  0  0  0  0
 11 27  1  0  0  0  0
 12 28  1  0  0  0  0
 12 29  1  0  0  0  0
 12 30  1  0  0  0  0
M  END
> <PUBCHEM_COMPOUND_CID>
12484751

> <PUBCHEM_CONFORMER_RMSD>
0.8

> <PUBCHEM_CONFORMER_DIVERSEORDER>
1
12
13
7
25
22
8
26
27
16
14
17
20
2
21
15
11
3
23
24
5
18
4
9
10
19
6

> <PUBCHEM_MMFF94_PARTIAL_CHARGES>
11
1 -0.46
10 0.28
11 0.28
2 0.97
3 -0.58
4 -0.58
5 -0.58
6 -0.08
7 0.23
8 0.23
9 0.28

> <PUBCHEM_EFFECTIVE_ROTOR_COUNT>
7

> <PUBCHEM_PHARMACOPHORE_FEATURES>
1
1 12 hydrophobe

> <PUBCHEM_HEAVY_ATOM_COUNT>
12

> <PUBCHEM_ATOM_DEF_STEREO_COUNT>
0

> <PUBCHEM_ATOM_UDEF_STEREO_COUNT>
0

> <PUBCHEM_BOND_DEF_STEREO_COUNT>
0

> <PUBCHEM_BOND_UDEF_STEREO_COUNT>
0

> <PUBCHEM_ISOTOPIC_ATOM_COUNT>
0

> <PUBCHEM_COMPONENT_COUNT>
1

> <PUBCHEM_CACTVS_TAUTO_COUNT>
1

> <PUBCHEM_CONFORMER_ID>
00BE808F00000001

> <PUBCHEM_MMFF94_ENERGY>
15.9086

> <PUBCHEM_FEATURE_SELFOVERLAP>
5.074

> <PUBCHEM_SHAPE_FINGERPRINT>
10219947 1 18410291411195869338
12346645 6 18409451422497780540
13922767 16 18040995159082386281
14251717 144 18412547604550322623
14344429 50 17603866706378353124
14993402 34 18411144671111229428
15477762 27 18411422778306169727
18186145 218 17676492735681281937
20279233 1 18261398836539417603
20511035 2 17753060672075969944
20606313 2 18334577953469304157
20645477 70 18334016120597549027
21503847 285 11025801989750713935
22485316 2 17846775192396631107
23402539 116 18260535732706532495
3060560 45 18339655528378682604
3248919 1 18339936969238221763
58051976 378 18413106173995889143
581208 293 18342459240138009431
9999458 23 17632002135539529152

> <PUBCHEM_SHAPE_MULTIPOLES>
251.41
8.37
2.02
1.06
13.04
0.02
-0.06
-0.01
-0.7
-2.22
0.73
-0.29
-0.01
0.01

> <PUBCHEM_SHAPE_SELFOVERLAP>
431.543

> <PUBCHEM_SHAPE_VOLUME>
169.6

> <PUBCHEM_COORDINATE_TYPE>
2
5
10

$$$$
