76381
  -OEChem-11012400343D

 20 20  0     0  0  0  0  0  0999 V2000
    3.4757    1.1305    0.0148 O   0  0  0  0  0  0  0  0  0  0  0  0
   -3.4755   -1.1308    0.0143 O   0  0  0  0  0  0  0  0  0  0  0  0
    3.5205   -1.1622   -0.0028 N   0  0  0  0  0  0  0  0  0  0  0  0
   -3.5208    1.1620   -0.0028 N   0  0  0  0  0  0  0  0  0  0  0  0
    1.3946    0.0279   -0.0035 C   0  0  0  0  0  0  0  0  0  0  0  0
   -1.3946   -0.0277   -0.0027 C   0  0  0  0  0  0  0  0  0  0  0  0
    0.6731    1.2217   -0.0034 C   0  0  0  0  0  0  0  0  0  0  0  0
   -0.7215    1.1939   -0.0029 C   0  0  0  0  0  0  0  0  0  0  0  0
    0.7214   -1.1937   -0.0031 C   0  0  0  0  0  0  0  0  0  0  0  0
   -0.6732   -1.2216   -0.0028 C   0  0  0  0  0  0  0  0  0  0  0  0
    2.8485    0.0568   -0.0027 C   0  0  0  0  0  0  0  0  0  0  0  0
   -2.8482   -0.0568   -0.0026 C   0  0  0  0  0  0  0  0  0  0  0  0
    1.1759    2.1854   -0.0036 H   0  0  0  0  0  0  0  0  0  0  0  0
   -1.2160    2.1578   -0.0023 H   0  0  0  0  0  0  0  0  0  0  0  0
    1.2159   -2.1576   -0.0025 H   0  0  0  0  0  0  0  0  0  0  0  0
   -1.1758   -2.1854   -0.0027 H   0  0  0  0  0  0  0  0  0  0  0  0
    3.0912   -2.0782   -0.0124 H   0  0  0  0  0  0  0  0  0  0  0  0
    4.5358   -1.1689    0.0049 H   0  0  0  0  0  0  0  0  0  0  0  0
   -3.0916    2.0782   -0.0118 H   0  0  0  0  0  0  0  0  0  0  0  0
   -4.5360    1.1684    0.0043 H   0  0  0  0  0  0  0  0  0  0  0  0
  1 11  2  0  0  0  0
  2 12  2  0  0  0  0
  3 11  1  0  0  0  0
  3 17  1  0  0  0  0
  3 18  1  0  0  0  0
  4 12  1  0  0  0  0
  4 19  1  0  0  0  0
  4 20  1  0  0  0  0
  5  7  2  0  0  0  0
  5  9  1  0  0  0  0
  5 11  1  0  0  0  0
  6  8  2  0  0  0  0
  6 10  1  0  0  0  0
  6 12  1  0  0  0  0
  7  8  1  0  0  0  0
  7 13  1  0  0  0  0
  8 14  1  0  0  0  0
  9 10  2  0  0  0  0
  9 15  1  0  0  0  0
 10 16  1  0  0  0  0
M  END
> <PUBCHEM_COMPOUND_CID>
76381

> <PUBCHEM_CONFORMER_RMSD>
0.6

> <PUBCHEM_CONFORMER_DIVERSEORDER>
2
1

> <PUBCHEM_MMFF94_PARTIAL_CHARGES>
20
1 -0.57
10 -0.15
11 0.54
12 0.54
13 0.15
14 0.15
15 0.15
16 0.15
17 0.37
18 0.37
19 0.37
2 -0.57
20 0.37
3 -0.8
4 -0.8
5 0.09
6 0.09
7 -0.15
8 -0.15
9 -0.15

> <PUBCHEM_EFFECTIVE_ROTOR_COUNT>
2

> <PUBCHEM_PHARMACOPHORE_FEATURES>
5
1 1 acceptor
1 2 acceptor
1 3 donor
1 4 donor
6 5 6 7 8 9 10 rings

> <PUBCHEM_HEAVY_ATOM_COUNT>
12

> <PUBCHEM_ATOM_DEF_STEREO_COUNT>
0

> <PUBCHEM_ATOM_UDEF_STEREO_COUNT>
0

> <PUBCHEM_BOND_DEF_STEREO_COUNT>
0

> <PUBCHEM_BOND_UDEF_STEREO_COUNT>
0

> <PUBCHEM_ISOTOPIC_ATOM_COUNT>
0

> <PUBCHEM_COMPONENT_COUNT>
1

> <PUBCHEM_CACTVS_TAUTO_COUNT>
3

> <PUBCHEM_CONFORMER_ID>
00012A5D00000002

> <PUBCHEM_MMFF94_ENERGY>
38.3787

> <PUBCHEM_FEATURE_SELFOVERLAP>
25.372

> <PUBCHEM_SHAPE_FINGERPRINT>
10219947 1 18411140242234971646
10608611 8 18410852165888661505
11062470 55 18410856563982411521
11132069 177 18412257320342363416
11471102 20 18410568470455771205
12032990 46 18410580586521758658
12932764 1 17203320143522830696
14144814 61 18410856568229724314
14325111 11 18410855468723403620
14993402 34 18410855494487900428
16945 1 18410575110432882702
18186145 218 18040432170431911886
193761 8 17546164104039759908
20645476 183 17896339058789008430
20645477 70 18342454794557013495
23235685 24 18410569591400004773
23402539 116 18272641338400719262
23402655 69 18268976602438770661
23463225 33 18336544932711293474
23559900 14 18342457033162856390
2748010 2 18050286169580634151
528886 8 18411412899923385611
53812653 166 18342171167854168553

> <PUBCHEM_SHAPE_MULTIPOLES>
225.25
5.9
1.47
0.59
0
0
0
0
-0.02
0
0
0
0
0.01

> <PUBCHEM_SHAPE_SELFOVERLAP>
476.869

> <PUBCHEM_SHAPE_VOLUME>
125.3

> <PUBCHEM_COORDINATE_TYPE>
2
5
10

$$$$
