68260
  -OEChem-11012400303D

 34 35  0     0  0  0  0  0  0999 V2000
    0.0058   -1.5030    0.2747 C   0  0  0  0  0  0  0  0  0  0  0  0
   -1.2435   -0.6938    0.1802 C   0  0  0  0  0  0  0  0  0  0  0  0
    1.2786   -0.6576    0.1429 C   0  0  0  0  0  0  0  0  0  0  0  0
    0.0560   -2.7360   -0.6630 C   0  0  0  0  0  0  0  0  0  0  0  0
   -1.7804   -0.1028    1.3241 C   0  0  0  0  0  0  0  0  0  0  0  0
    2.1562   -0.6248    1.1999 C   0  0  0  0  0  0  0  0  0  0  0  0
   -1.8749   -0.5276   -1.0524 C   0  0  0  0  0  0  0  0  0  0  0  0
    1.4884    0.0319   -1.0272 C   0  0  0  0  0  0  0  0  0  0  0  0
   -3.5801    0.8199    0.0029 C   0  0  0  0  0  0  0  0  0  0  0  0
    3.5585    0.8571   -0.0939 C   0  0  0  0  0  0  0  0  0  0  0  0
   -2.9488    0.6538    1.2353 C   0  0  0  0  0  0  0  0  0  0  0  0
    3.3137    0.1444    1.0797 C   0  0  0  0  0  0  0  0  0  0  0  0
   -3.0433    0.2292   -1.1411 C   0  0  0  0  0  0  0  0  0  0  0  0
    2.6460    0.8009   -1.1474 C   0  0  0  0  0  0  0  0  0  0  0  0
   -4.8288    1.6299   -0.0920 C   0  0  0  0  0  0  0  0  0  0  0  0
    4.7965    1.6785   -0.2227 C   0  0  0  0  0  0  0  0  0  0  0  0
    0.0059   -1.9457    1.2828 H   0  0  0  0  0  0  0  0  0  0  0  0
    0.1526   -2.4625   -1.7190 H   0  0  0  0  0  0  0  0  0  0  0  0
   -0.8453   -3.3490   -0.5508 H   0  0  0  0  0  0  0  0  0  0  0  0
    0.9210   -3.3631   -0.4170 H   0  0  0  0  0  0  0  0  0  0  0  0
   -1.2982   -0.2211    2.2910 H   0  0  0  0  0  0  0  0  0  0  0  0
    1.9754   -1.1761    2.1172 H   0  0  0  0  0  0  0  0  0  0  0  0
   -1.4830   -0.9663   -1.9645 H   0  0  0  0  0  0  0  0  0  0  0  0
    0.7997   -0.0074   -1.8635 H   0  0  0  0  0  0  0  0  0  0  0  0
   -3.3561    1.1112    2.1332 H   0  0  0  0  0  0  0  0  0  0  0  0
    4.0180    0.1786    1.9067 H   0  0  0  0  0  0  0  0  0  0  0  0
   -3.5244    0.3545   -2.1075 H   0  0  0  0  0  0  0  0  0  0  0  0
    2.8282    1.3481   -2.0686 H   0  0  0  0  0  0  0  0  0  0  0  0
   -5.4759    1.2656   -0.8971 H   0  0  0  0  0  0  0  0  0  0  0  0
   -5.4086    1.5723    0.8355 H   0  0  0  0  0  0  0  0  0  0  0  0
   -4.5825    2.6783   -0.2872 H   0  0  0  0  0  0  0  0  0  0  0  0
    5.1156    2.0676    0.7502 H   0  0  0  0  0  0  0  0  0  0  0  0
    5.6069    1.0735   -0.6414 H   0  0  0  0  0  0  0  0  0  0  0  0
    4.6312    2.5431   -0.8745 H   0  0  0  0  0  0  0  0  0  0  0  0
  1  2  1  0  0  0  0
  1  3  1  0  0  0  0
  1  4  1  0  0  0  0
  1 17  1  0  0  0  0
  2  5  2  0  0  0  0
  2  7  1  0  0  0  0
  3  6  2  0  0  0  0
  3  8  1  0  0  0  0
  4 18  1  0  0  0  0
  4 19  1  0  0  0  0
  4 20  1  0  0  0  0
  5 11  1  0  0  0  0
  5 21  1  0  0  0  0
  6 12  1  0  0  0  0
  6 22  1  0  0  0  0
  7 13  2  0  0  0  0
  7 23  1  0  0  0  0
  8 14  2  0  0  0  0
  8 24  1  0  0  0  0
  9 11  2  0  0  0  0
  9 13  1  0  0  0  0
  9 15  1  0  0  0  0
 10 12  2  0  0  0  0
 10 14  1  0  0  0  0
 10 16  1  0  0  0  0
 11 25  1  0  0  0  0
 12 26  1  0  0  0  0
 13 27  1  0  0  0  0
 14 28  1  0  0  0  0
 15 29  1  0  0  0  0
 15 30  1  0  0  0  0
 15 31  1  0  0  0  0
 16 32  1  0  0  0  0
 16 33  1  0  0  0  0
 16 34  1  0  0  0  0
M  END
> <PUBCHEM_COMPOUND_CID>
68260

> <PUBCHEM_CONFORMER_RMSD>
0.6

> <PUBCHEM_CONFORMER_DIVERSEORDER>
1
3
2
4

> <PUBCHEM_MMFF94_PARTIAL_CHARGES>
23
1 0.29
10 -0.14
11 -0.15
12 -0.15
13 -0.15
14 -0.15
15 0.14
16 0.14
2 -0.14
21 0.15
22 0.15
23 0.15
24 0.15
25 0.15
26 0.15
27 0.15
28 0.15
3 -0.14
5 -0.15
6 -0.15
7 -0.15
8 -0.15
9 -0.14

> <PUBCHEM_EFFECTIVE_ROTOR_COUNT>
2

> <PUBCHEM_PHARMACOPHORE_FEATURES>
3
1 4 hydrophobe
6 2 5 7 9 11 13 rings
6 3 6 8 10 12 14 rings

> <PUBCHEM_HEAVY_ATOM_COUNT>
16

> <PUBCHEM_ATOM_DEF_STEREO_COUNT>
0

> <PUBCHEM_ATOM_UDEF_STEREO_COUNT>
0

> <PUBCHEM_BOND_DEF_STEREO_COUNT>
0

> <PUBCHEM_BOND_UDEF_STEREO_COUNT>
0

> <PUBCHEM_ISOTOPIC_ATOM_COUNT>
0

> <PUBCHEM_COMPONENT_COUNT>
1

> <PUBCHEM_CACTVS_TAUTO_COUNT>
1

> <PUBCHEM_CONFORMER_ID>
00010AA400000001

> <PUBCHEM_MMFF94_ENERGY>
47.0617

> <PUBCHEM_FEATURE_SELFOVERLAP>
15.223

> <PUBCHEM_SHAPE_FINGERPRINT>
10498660 4 17917707989844091185
10618630 7 9079123258337736792
11046707 91 8718556007883902372
11543360 7 15482666905178213336
11640471 11 18341324535268570243
12251169 10 15936413355122872183
12363563 72 9007057967507437273
12500047 106 18200875201271044990
12507560 40 16370717098056772710
12633257 1 15647057100623933600
12707595 3 9583510993328245099
12788726 201 17977652427372166602
12892183 10 15502647166048387577
13288520 33 8646501721292701704
13705890 14 13254797945397789722
13764800 53 18342188798890214531
14123255 52 18411421717222452708
14123260 362 18271811249807956352
1420 369 8790893986119792360
14251764 38 17757541963765492701
14576447 43 12391520780433134116
15188451 53 13984958363350208889
15239191 94 9439400241927440105
15309172 13 18333731325136579294
15342168 16 18408324371866678885
15653759 3 15285355106830252453
15775835 57 18408881849662369748
16945 1 17603577496128937454
1741750 31 18339923822180038410
17804303 29 14780107455078808707
1813 80 17624139300209485838
18186145 218 17988375805320948974
18222031 100 12179851597487466883
18915474 69 11023818492122539296
19049666 15 15648997592501850266
193927 3 10447655733382510664
19784866 240 9943808893672463049
19862831 5 17418094291111845855
20112054 13 18113901571738595460
20291156 8 9079116652477679352
204376 136 18410293618466427851
20671657 53 12895079513488513698
20871999 31 16630232693626738629
21065199 12 16298383543754047841
21499 59 18342175557463712647
21524375 3 18408039632393238483
21713013 43 13614233780985779377
21731228 192 17603868922444627114
21731516 1 8718827582787091315
21756936 100 17098361966986254372
2255824 54 18055637209527808999
23402539 116 17989201556092012980
23402655 69 16558758888122379512
23557571 272 17488744622030439583
25 1 17560815315739744930
270888 7 18410575088969492189
27216 239 18041848435982313393
2871803 45 14045738218569996709
3082319 5 15482677853018000849
3472631 163 18201718466175379005
4028521 119 17632577145423766969
474 4 18411418371669587627
5262128 65 15698002976149464200
7364860 26 17772750463949752455
76465 3 8934707886740256649
83771 10 9079116665399497998
94968 8 10807922773906054861

> <PUBCHEM_SHAPE_MULTIPOLES>
329.27
8.4
1.83
1.32
0.05
0.86
0.1
-6.61
-0.01
-0.12
-0.32
0.09
0.02
-0.45

> <PUBCHEM_SHAPE_SELFOVERLAP>
701.174

> <PUBCHEM_SHAPE_VOLUME>
173.9

> <PUBCHEM_COORDINATE_TYPE>
2
5
10

$$$$
