6427079
  -OEChem-11012401063D

 15 15  0     1  0  0  0  0  0999 V2000
    0.6100    0.0929    0.4369 C   0  0  1  0  0  0  0  0  0  0  0  0
   -0.6100    0.0928   -0.4369 C   0  0  1  0  0  0  0  0  0  0  0  0
   -0.0001   -1.2066    0.0000 C   0  0  0  0  0  0  0  0  0  0  0  0
    1.9118    0.5104   -0.1394 C   0  0  0  0  0  0  0  0  0  0  0  0
   -1.9117    0.5105    0.1394 C   0  0  0  0  0  0  0  0  0  0  0  0
    0.5094    0.3756    1.4771 H   0  0  0  0  0  0  0  0  0  0  0  0
   -0.5094    0.3754   -1.4772 H   0  0  0  0  0  0  0  0  0  0  0  0
    0.5142   -1.7972   -0.7488 H   0  0  0  0  0  0  0  0  0  0  0  0
   -0.5145   -1.7970    0.7490 H   0  0  0  0  0  0  0  0  0  0  0  0
    2.7352    0.0572    0.4217 H   0  0  0  0  0  0  0  0  0  0  0  0
    2.0180    0.2190   -1.1899 H   0  0  0  0  0  0  0  0  0  0  0  0
    2.0192    1.5980   -0.0782 H   0  0  0  0  0  0  0  0  0  0  0  0
   -2.0188    1.5981    0.0782 H   0  0  0  0  0  0  0  0  0  0  0  0
   -2.7351    0.0575   -0.4216 H   0  0  0  0  0  0  0  0  0  0  0  0
   -2.0179    0.2193    1.1899 H   0  0  0  0  0  0  0  0  0  0  0  0
  1  2  1  0  0  0  0
  1  3  1  0  0  0  0
  1  4  1  0  0  0  0
  1  6  1  0  0  0  0
  2  3  1  0  0  0  0
  2  5  1  0  0  0  0
  2  7  1  0  0  0  0
  3  8  1  0  0  0  0
  3  9  1  0  0  0  0
  4 10  1  0  0  0  0
  4 11  1  0  0  0  0
  4 12  1  0  0  0  0
  5 13  1  0  0  0  0
  5 14  1  0  0  0  0
  5 15  1  0  0  0  0
M  END
> <PUBCHEM_COMPOUND_CID>
6427079

> <PUBCHEM_CONFORMER_RMSD>
0.4

> <PUBCHEM_CONFORMER_DIVERSEORDER>
1

> <PUBCHEM_MMFF94_PARTIAL_CHARGES>
9
1 -0.19
2 -0.19
3 -0.2
4 0.09
5 0.09
6 0.1
7 0.1
8 0.1
9 0.1

> <PUBCHEM_EFFECTIVE_ROTOR_COUNT>
0.6

> <PUBCHEM_PHARMACOPHORE_FEATURES>
0

> <PUBCHEM_HEAVY_ATOM_COUNT>
5

> <PUBCHEM_ATOM_DEF_STEREO_COUNT>
2

> <PUBCHEM_ATOM_UDEF_STEREO_COUNT>
0

> <PUBCHEM_BOND_DEF_STEREO_COUNT>
0

> <PUBCHEM_BOND_UDEF_STEREO_COUNT>
0

> <PUBCHEM_ISOTOPIC_ATOM_COUNT>
0

> <PUBCHEM_COMPONENT_COUNT>
1

> <PUBCHEM_CACTVS_TAUTO_COUNT>
1

> <PUBCHEM_CONFORMER_ID>
006211C700000001

> <PUBCHEM_MMFF94_ENERGY>
9.1961

> <PUBCHEM_FEATURE_SELFOVERLAP>
0

> <PUBCHEM_SHAPE_FINGERPRINT>
16714656 1 18335707177696541332
20096714 4 18410290324136808496
21015797 1 8357380757380004163
21040471 1 18411978065826749928
29004967 10 9655568621557138949
5460574 1 8935004771505529376
5943 1 15400402424503743030

> <PUBCHEM_SHAPE_MULTIPOLES>
102.9
2.23
1.02
0.7
0
0.3
0
-0.76
0
0
0
0
-0.01
-0.04

> <PUBCHEM_SHAPE_SELFOVERLAP>
188.499

> <PUBCHEM_SHAPE_VOLUME>
68.1

> <PUBCHEM_COORDINATE_TYPE>
2
5
10

$$$$
