20397491
  -OEChem-11012400403D

 33 33  0     1  0  0  0  0  0999 V2000
    0.4304    0.1550    0.4174 C   0  0  2  0  0  0  0  0  0  0  0  0
    1.8532   -0.2154    0.0025 C   0  0  0  0  0  0  0  0  0  0  0  0
   -0.5621   -0.9313   -0.0214 C   0  0  0  0  0  0  0  0  0  0  0  0
   -2.0067   -0.5630    0.3464 C   0  0  1  0  0  0  0  0  0  0  0  0
    0.0363    1.5202   -0.1603 C   0  0  0  0  0  0  0  0  0  0  0  0
   -2.3853    0.8070   -0.2303 C   0  0  0  0  0  0  0  0  0  0  0  0
   -1.3998    1.8899    0.2002 C   0  0  0  0  0  0  0  0  0  0  0  0
    2.2407   -1.5671    0.6253 C   0  0  0  0  0  0  0  0  0  0  0  0
    1.9365   -0.3220   -1.5295 C   0  0  0  0  0  0  0  0  0  0  0  0
    2.8340    0.8650    0.4883 C   0  0  0  0  0  0  0  0  0  0  0  0
   -2.9773   -1.6384   -0.1386 C   0  0  0  0  0  0  0  0  0  0  0  0
    0.3835    0.2284    1.5136 H   0  0  0  0  0  0  0  0  0  0  0  0
   -0.3348   -1.8882    0.4598 H   0  0  0  0  0  0  0  0  0  0  0  0
   -0.5329   -1.0954   -1.1028 H   0  0  0  0  0  0  0  0  0  0  0  0
   -2.0824   -0.5105    1.4409 H   0  0  0  0  0  0  0  0  0  0  0  0
    0.1033    1.5410   -1.2518 H   0  0  0  0  0  0  0  0  0  0  0  0
    0.6803    2.3181    0.2224 H   0  0  0  0  0  0  0  0  0  0  0  0
   -3.3938    1.0853    0.0979 H   0  0  0  0  0  0  0  0  0  0  0  0
   -2.4107    0.7572   -1.3265 H   0  0  0  0  0  0  0  0  0  0  0  0
   -1.6673    2.8404   -0.2756 H   0  0  0  0  0  0  0  0  0  0  0  0
   -1.4770    2.0436    1.2837 H   0  0  0  0  0  0  0  0  0  0  0  0
    2.0491   -1.5797    1.7041 H   0  0  0  0  0  0  0  0  0  0  0  0
    3.3097   -1.7668    0.4829 H   0  0  0  0  0  0  0  0  0  0  0  0
    1.7121   -2.4103    0.1693 H   0  0  0  0  0  0  0  0  0  0  0  0
    2.9635   -0.5866   -1.8159 H   0  0  0  0  0  0  0  0  0  0  0  0
    1.3085   -1.1100   -1.9521 H   0  0  0  0  0  0  0  0  0  0  0  0
    1.7257    0.6156   -2.0495 H   0  0  0  0  0  0  0  0  0  0  0  0
    2.6999    1.0757    1.5552 H   0  0  0  0  0  0  0  0  0  0  0  0
    3.8714    0.5370    0.3498 H   0  0  0  0  0  0  0  0  0  0  0  0
    2.7367    1.8043   -0.0652 H   0  0  0  0  0  0  0  0  0  0  0  0
   -2.9500   -1.7389   -1.2289 H   0  0  0  0  0  0  0  0  0  0  0  0
   -2.7289   -2.6117    0.2977 H   0  0  0  0  0  0  0  0  0  0  0  0
   -4.0042   -1.3937    0.1528 H   0  0  0  0  0  0  0  0  0  0  0  0
  1  2  1  0  0  0  0
  1  3  1  0  0  0  0
  1  5  1  0  0  0  0
  1 12  1  0  0  0  0
  2  8  1  0  0  0  0
  2  9  1  0  0  0  0
  2 10  1  0  0  0  0
  3  4  1  0  0  0  0
  3 13  1  0  0  0  0
  3 14  1  0  0  0  0
  4  6  1  0  0  0  0
  4 11  1  0  0  0  0
  4 15  1  0  0  0  0
  5  7  1  0  0  0  0
  5 16  1  0  0  0  0
  5 17  1  0  0  0  0
  6  7  1  0  0  0  0
  6 18  1  0  0  0  0
  6 19  1  0  0  0  0
  7 20  1  0  0  0  0
  7 21  1  0  0  0  0
  8 22  1  0  0  0  0
  8 23  1  0  0  0  0
  8 24  1  0  0  0  0
  9 25  1  0  0  0  0
  9 26  1  0  0  0  0
  9 27  1  0  0  0  0
 10 28  1  0  0  0  0
 10 29  1  0  0  0  0
 10 30  1  0  0  0  0
 11 31  1  0  0  0  0
 11 32  1  0  0  0  0
 11 33  1  0  0  0  0
M  END
> <PUBCHEM_COMPOUND_CID>
20397491

> <PUBCHEM_CONFORMER_RMSD>
0.6

> <PUBCHEM_CONFORMER_DIVERSEORDER>
1
3
2
4
5

> <PUBCHEM_MMFF94_PARTIAL_CHARGES>
0

> <PUBCHEM_EFFECTIVE_ROTOR_COUNT>
2.2

> <PUBCHEM_PHARMACOPHORE_FEATURES>
2
4 2 8 9 10 hydrophobe
6 1 3 4 5 6 7 rings

> <PUBCHEM_HEAVY_ATOM_COUNT>
11

> <PUBCHEM_ATOM_DEF_STEREO_COUNT>
0

> <PUBCHEM_ATOM_UDEF_STEREO_COUNT>
2

> <PUBCHEM_BOND_DEF_STEREO_COUNT>
0

> <PUBCHEM_BOND_UDEF_STEREO_COUNT>
0

> <PUBCHEM_ISOTOPIC_ATOM_COUNT>
0

> <PUBCHEM_COMPONENT_COUNT>
1

> <PUBCHEM_CACTVS_TAUTO_COUNT>
1

> <PUBCHEM_CONFORMER_ID>
01373DB300000001

> <PUBCHEM_MMFF94_ENERGY>
27.067

> <PUBCHEM_FEATURE_SELFOVERLAP>
10.148

> <PUBCHEM_SHAPE_FINGERPRINT>
10857977 72 18341040917140050393
12524768 44 18272375247706822797
12716758 59 18266743484835542907
12897270 3 18411421704400640004
12932764 1 18337684030783475090
14128692 85 18339088210464678133
14252887 29 18057902426824309211
15219456 202 17989209226866518020
15775835 57 18190187784454768448
16945 1 18115316698995777043
193761 8 14736197002181986392
19973954 147 18340768156773471376
20201158 50 18262794202372534267
20871998 184 18201999936845994735
20871998 22 18270411614777295295
21040471 1 18049728412306243537
21501502 16 18411134697727682736
22802520 49 18057902246118756175
23402539 116 18268977847055892678
23552423 10 18114185198472887370
23557571 272 18272093824238025620
23559900 14 17839464389503066246
2748010 2 18411980247712353861
3248919 1 17489585610833591217
369184 2 18410289173090757105
5084963 1 17604998004990528060
8030462 33 18187091641225646070
81228 2 18409455760847370209

> <PUBCHEM_SHAPE_MULTIPOLES>
226.37
4.37
1.87
0.93
0.3
0.2
0.28
-1.06
-0.06
0.7
-0.15
-0.52
-0.1
-0.04

> <PUBCHEM_SHAPE_SELFOVERLAP>
439.232

> <PUBCHEM_SHAPE_VOLUME>
139.5

> <PUBCHEM_COORDINATE_TYPE>
2
5
10

$$$$
