141943
  -OEChem-11012401143D

 23 23  0     1  0  0  0  0  0999 V2000
    1.8540    0.0004   -0.0001 O   0  0  0  0  0  0  0  0  0  0  0  0
    1.5266   -1.9399   -1.1644 O   0  0  0  0  0  0  0  0  0  0  0  0
    1.5258    1.9404    1.1646 O   0  0  0  0  0  0  0  0  0  0  0  0
   -0.3604   -0.7159   -0.2607 C   0  0  2  0  0  0  0  0  0  0  0  0
   -0.3606    0.7157    0.2605 C   0  0  2  0  0  0  0  0  0  0  0  0
   -0.8528   -1.7157    0.7772 C   0  0  0  0  0  0  0  0  0  0  0  0
   -0.8535    1.7156   -0.7772 C   0  0  0  0  0  0  0  0  0  0  0  0
    1.0869   -0.9753   -0.5574 C   0  0  0  0  0  0  0  0  0  0  0  0
    1.0865    0.9755    0.5573 C   0  0  0  0  0  0  0  0  0  0  0  0
   -2.3261   -1.5180    1.0912 C   0  0  0  0  0  0  0  0  0  0  0  0
   -2.3265    1.5172   -1.0911 C   0  0  0  0  0  0  0  0  0  0  0  0
   -0.9168   -0.8283   -1.1960 H   0  0  0  0  0  0  0  0  0  0  0  0
   -0.9171    0.8277    1.1959 H   0  0  0  0  0  0  0  0  0  0  0  0
   -0.2671   -1.6423    1.7022 H   0  0  0  0  0  0  0  0  0  0  0  0
   -0.7055   -2.7364    0.4023 H   0  0  0  0  0  0  0  0  0  0  0  0
   -0.2677    1.6426   -1.7022 H   0  0  0  0  0  0  0  0  0  0  0  0
   -0.7066    2.7362   -0.4019 H   0  0  0  0  0  0  0  0  0  0  0  0
   -2.5236   -0.5671    1.5926 H   0  0  0  0  0  0  0  0  0  0  0  0
   -2.9318   -1.5604    0.1802 H   0  0  0  0  0  0  0  0  0  0  0  0
   -2.6728   -2.3141    1.7585 H   0  0  0  0  0  0  0  0  0  0  0  0
   -2.5236    0.5663   -1.5928 H   0  0  0  0  0  0  0  0  0  0  0  0
   -2.9322    1.5590   -0.1801 H   0  0  0  0  0  0  0  0  0  0  0  0
   -2.6735    2.3133   -1.7582 H   0  0  0  0  0  0  0  0  0  0  0  0
  1  8  1  0  0  0  0
  1  9  1  0  0  0  0
  2  8  2  0  0  0  0
  3  9  2  0  0  0  0
  4  5  1  0  0  0  0
  4  6  1  0  0  0  0
  4  8  1  0  0  0  0
  4 12  1  0  0  0  0
  5  7  1  0  0  0  0
  5  9  1  0  0  0  0
  5 13  1  0  0  0  0
  6 10  1  0  0  0  0
  6 14  1  0  0  0  0
  6 15  1  0  0  0  0
  7 11  1  0  0  0  0
  7 16  1  0  0  0  0
  7 17  1  0  0  0  0
 10 18  1  0  0  0  0
 10 19  1  0  0  0  0
 10 20  1  0  0  0  0
 11 21  1  0  0  0  0
 11 22  1  0  0  0  0
 11 23  1  0  0  0  0
M  END
> <PUBCHEM_COMPOUND_CID>
141943

> <PUBCHEM_CONFORMER_RMSD>
0.6

> <PUBCHEM_CONFORMER_DIVERSEORDER>
1
12
9
6
11
5
10
2
7
13
4
3
8
14

> <PUBCHEM_MMFF94_PARTIAL_CHARGES>
7
1 -0.3
2 -0.57
3 -0.57
4 0.06
5 0.06
8 0.66
9 0.66

> <PUBCHEM_EFFECTIVE_ROTOR_COUNT>
2.6

> <PUBCHEM_PHARMACOPHORE_FEATURES>
5
1 10 hydrophobe
1 11 hydrophobe
1 2 acceptor
1 3 acceptor
5 1 4 5 8 9 rings

> <PUBCHEM_HEAVY_ATOM_COUNT>
11

> <PUBCHEM_ATOM_DEF_STEREO_COUNT>
0

> <PUBCHEM_ATOM_UDEF_STEREO_COUNT>
2

> <PUBCHEM_BOND_DEF_STEREO_COUNT>
0

> <PUBCHEM_BOND_UDEF_STEREO_COUNT>
0

> <PUBCHEM_ISOTOPIC_ATOM_COUNT>
0

> <PUBCHEM_COMPONENT_COUNT>
1

> <PUBCHEM_CACTVS_TAUTO_COUNT>
3

> <PUBCHEM_CONFORMER_ID>
00022A7700000001

> <PUBCHEM_MMFF94_ENERGY>
7.184

> <PUBCHEM_FEATURE_SELFOVERLAP>
25.371

> <PUBCHEM_SHAPE_FINGERPRINT>
12138202 97 18187641362626905534
12423570 1 17482784010403004044
137420 1 15534680084725181280
14761567 1 17758690948693594383
161256 15 18339377360337060503
16945 1 18131070437089639554
18185500 45 15602008266634542860
20711978 78 17702965697869046855
21040471 1 17970061141336921093
21930827 45 18187641375664839877
23211744 25 17903914453174972813
241688 4 17266368086064555096
2748010 2 18269262629368612540
4369600 1 17619899565727726855

> <PUBCHEM_SHAPE_MULTIPOLES>
208.77
2.61
2.46
1.2
0.71
0
0
0
0
0.68
0
-0.06
0
1.51

> <PUBCHEM_SHAPE_SELFOVERLAP>
420.79

> <PUBCHEM_SHAPE_VOLUME>
124.6

> <PUBCHEM_COORDINATE_TYPE>
2
5
10

$$$$
