15687
  -OEChem-11012400343D

 18 18  0     0  0  0  0  0  0999 V2000
   -0.9811    1.2677   -0.3269 O   0  0  0  0  0  0  0  0  0  0  0  0
   -0.1226   -1.4203    0.6280 O   0  0  0  0  0  0  0  0  0  0  0  0
    1.4214   -0.1065   -0.6816 O   0  0  0  0  0  0  0  0  0  0  0  0
   -1.8264    0.1451   -0.0664 C   0  0  0  0  0  0  0  0  0  0  0  0
    0.0478    1.4518    0.6446 C   0  0  0  0  0  0  0  0  0  0  0  0
   -1.1426   -1.1915   -0.3428 C   0  0  0  0  0  0  0  0  0  0  0  0
    1.4044    1.1230    0.0349 C   0  0  0  0  0  0  0  0  0  0  0  0
    1.1989   -1.2693    0.1103 C   0  0  0  0  0  0  0  0  0  0  0  0
   -2.6907    0.2428   -0.7314 H   0  0  0  0  0  0  0  0  0  0  0  0
   -2.1954    0.1993    0.9645 H   0  0  0  0  0  0  0  0  0  0  0  0
   -0.1383    0.8708    1.5546 H   0  0  0  0  0  0  0  0  0  0  0  0
    0.0387    2.5059    0.9423 H   0  0  0  0  0  0  0  0  0  0  0  0
   -1.8772   -1.9954   -0.2300 H   0  0  0  0  0  0  0  0  0  0  0  0
   -0.7481   -1.2377   -1.3644 H   0  0  0  0  0  0  0  0  0  0  0  0
    1.6580    1.8980   -0.6966 H   0  0  0  0  0  0  0  0  0  0  0  0
    2.1905    1.1257    0.7980 H   0  0  0  0  0  0  0  0  0  0  0  0
    1.9038   -1.2898    0.9485 H   0  0  0  0  0  0  0  0  0  0  0  0
    1.4166   -2.1409   -0.5164 H   0  0  0  0  0  0  0  0  0  0  0  0
  1  4  1  0  0  0  0
  1  5  1  0  0  0  0
  2  6  1  0  0  0  0
  2  8  1  0  0  0  0
  3  7  1  0  0  0  0
  3  8  1  0  0  0  0
  4  6  1  0  0  0  0
  4  9  1  0  0  0  0
  4 10  1  0  0  0  0
  5  7  1  0  0  0  0
  5 11  1  0  0  0  0
  5 12  1  0  0  0  0
  6 13  1  0  0  0  0
  6 14  1  0  0  0  0
  7 15  1  0  0  0  0
  7 16  1  0  0  0  0
  8 17  1  0  0  0  0
  8 18  1  0  0  0  0
M  END
> <PUBCHEM_COMPOUND_CID>
15687

> <PUBCHEM_CONFORMER_RMSD>
0.4

> <PUBCHEM_CONFORMER_DIVERSEORDER>
1
2
3
6
7
4
5
8

> <PUBCHEM_MMFF94_PARTIAL_CHARGES>
8
1 -0.56
2 -0.56
3 -0.56
4 0.28
5 0.28
6 0.28
7 0.28
8 0.56

> <PUBCHEM_EFFECTIVE_ROTOR_COUNT>
1.6

> <PUBCHEM_PHARMACOPHORE_FEATURES>
3
1 1 acceptor
1 2 acceptor
1 3 acceptor

> <PUBCHEM_HEAVY_ATOM_COUNT>
8

> <PUBCHEM_ATOM_DEF_STEREO_COUNT>
0

> <PUBCHEM_ATOM_UDEF_STEREO_COUNT>
0

> <PUBCHEM_BOND_DEF_STEREO_COUNT>
0

> <PUBCHEM_BOND_UDEF_STEREO_COUNT>
0

> <PUBCHEM_ISOTOPIC_ATOM_COUNT>
0

> <PUBCHEM_COMPONENT_COUNT>
1

> <PUBCHEM_CACTVS_TAUTO_COUNT>
1

> <PUBCHEM_CONFORMER_ID>
00003D4700000001

> <PUBCHEM_MMFF94_ENERGY>
27.7733

> <PUBCHEM_FEATURE_SELFOVERLAP>
15.258

> <PUBCHEM_SHAPE_FINGERPRINT>
16714656 1 17256532344679428436
18185500 45 17760927346638180235
20096714 4 18337111155234661063
21040471 1 18336825423908358797
29004967 10 17131002012658532348

> <PUBCHEM_SHAPE_MULTIPOLES>
147.03
2.02
1.83
0.75
0.18
0.08
0.03
-0.11
-0.21
-0.1
0.18
-0.04
0.01
0.1

> <PUBCHEM_SHAPE_SELFOVERLAP>
278.416

> <PUBCHEM_SHAPE_VOLUME>
87.6

> <PUBCHEM_COORDINATE_TYPE>
2
5
10

$$$$
