140578
  -OEChem-11012401033D

 32 34  0     0  0  0  0  0  0999 V2000
   -1.3694    0.0000    0.0000 C   0  0  0  0  0  0  0  0  0  0  0  0
   -0.4417   -0.0005   -1.2592 C   0  0  0  0  0  0  0  0  0  0  0  0
   -0.4418    0.0005    1.2591 C   0  0  0  0  0  0  0  0  0  0  0  0
    1.3604    1.2573   -0.0005 C   0  0  0  0  0  0  0  0  0  0  0  0
    1.3604   -1.2572    0.0006 C   0  0  0  0  0  0  0  0  0  0  0  0
    0.4785    1.2429   -1.2619 C   0  0  0  0  0  0  0  0  0  0  0  0
    0.4784   -1.2440   -1.2609 C   0  0  0  0  0  0  0  0  0  0  0  0
    0.4783    1.2440    1.2609 C   0  0  0  0  0  0  0  0  0  0  0  0
    0.4784   -1.2429    1.2619 C   0  0  0  0  0  0  0  0  0  0  0  0
    2.2462    0.0000    0.0000 C   0  0  0  0  0  0  0  0  0  0  0  0
   -2.3139   -1.2274    0.0001 C   0  0  0  0  0  0  0  0  0  0  0  0
   -2.3137    1.2275   -0.0001 C   0  0  0  0  0  0  0  0  0  0  0  0
   -1.0487   -0.0008   -2.1726 H   0  0  0  0  0  0  0  0  0  0  0  0
   -1.0488    0.0008    2.1726 H   0  0  0  0  0  0  0  0  0  0  0  0
    1.9932    2.1517   -0.0008 H   0  0  0  0  0  0  0  0  0  0  0  0
    1.9933   -2.1516    0.0010 H   0  0  0  0  0  0  0  0  0  0  0  0
   -0.1052    2.1666   -1.3281 H   0  0  0  0  0  0  0  0  0  0  0  0
    1.1151    1.2276   -2.1561 H   0  0  0  0  0  0  0  0  0  0  0  0
    1.1150   -1.2294   -2.1551 H   0  0  0  0  0  0  0  0  0  0  0  0
   -0.1053   -2.1677   -1.3263 H   0  0  0  0  0  0  0  0  0  0  0  0
    1.1148    1.2293    2.1552 H   0  0  0  0  0  0  0  0  0  0  0  0
   -0.1054    2.1676    1.3264 H   0  0  0  0  0  0  0  0  0  0  0  0
   -0.1052   -2.1665    1.3281 H   0  0  0  0  0  0  0  0  0  0  0  0
    1.1149   -1.2275    2.1562 H   0  0  0  0  0  0  0  0  0  0  0  0
    2.9002   -0.0004   -0.8806 H   0  0  0  0  0  0  0  0  0  0  0  0
    2.9002    0.0004    0.8807 H   0  0  0  0  0  0  0  0  0  0  0  0
   -1.7934   -2.1870    0.0005 H   0  0  0  0  0  0  0  0  0  0  0  0
   -2.9616   -1.2177    0.8846 H   0  0  0  0  0  0  0  0  0  0  0  0
   -2.9611   -1.2182   -0.8848 H   0  0  0  0  0  0  0  0  0  0  0  0
   -2.9614    1.2178   -0.8846 H   0  0  0  0  0  0  0  0  0  0  0  0
   -2.9610    1.2183    0.8848 H   0  0  0  0  0  0  0  0  0  0  0  0
   -1.7931    2.1870   -0.0006 H   0  0  0  0  0  0  0  0  0  0  0  0
  1  2  1  0  0  0  0
  1  3  1  0  0  0  0
  1 11  1  0  0  0  0
  1 12  1  0  0  0  0
  2  6  1  0  0  0  0
  2  7  1  0  0  0  0
  2 13  1  0  0  0  0
  3  8  1  0  0  0  0
  3  9  1  0  0  0  0
  3 14  1  0  0  0  0
  4  6  1  0  0  0  0
  4  8  1  0  0  0  0
  4 10  1  0  0  0  0
  4 15  1  0  0  0  0
  5  7  1  0  0  0  0
  5  9  1  0  0  0  0
  5 10  1  0  0  0  0
  5 16  1  0  0  0  0
  6 17  1  0  0  0  0
  6 18  1  0  0  0  0
  7 19  1  0  0  0  0
  7 20  1  0  0  0  0
  8 21  1  0  0  0  0
  8 22  1  0  0  0  0
  9 23  1  0  0  0  0
  9 24  1  0  0  0  0
 10 25  1  0  0  0  0
 10 26  1  0  0  0  0
 11 27  1  0  0  0  0
 11 28  1  0  0  0  0
 11 29  1  0  0  0  0
 12 30  1  0  0  0  0
 12 31  1  0  0  0  0
 12 32  1  0  0  0  0
M  END
> <PUBCHEM_COMPOUND_CID>
140578

> <PUBCHEM_CONFORMER_RMSD>
0.4

> <PUBCHEM_CONFORMER_DIVERSEORDER>
1

> <PUBCHEM_MMFF94_PARTIAL_CHARGES>
0

> <PUBCHEM_EFFECTIVE_ROTOR_COUNT>
1.2

> <PUBCHEM_PHARMACOPHORE_FEATURES>
5
3 1 11 12 hydrophobe
6 1 2 3 4 6 8 rings
6 1 2 3 5 7 9 rings
6 2 4 5 6 7 10 rings
6 3 4 5 8 9 10 rings

> <PUBCHEM_HEAVY_ATOM_COUNT>
12

> <PUBCHEM_ATOM_DEF_STEREO_COUNT>
0

> <PUBCHEM_ATOM_UDEF_STEREO_COUNT>
0

> <PUBCHEM_BOND_DEF_STEREO_COUNT>
0

> <PUBCHEM_BOND_UDEF_STEREO_COUNT>
0

> <PUBCHEM_ISOTOPIC_ATOM_COUNT>
0

> <PUBCHEM_COMPONENT_COUNT>
1

> <PUBCHEM_CACTVS_TAUTO_COUNT>
1

> <PUBCHEM_CONFORMER_ID>
0002252200000001

> <PUBCHEM_MMFF94_ENERGY>
37.3547

> <PUBCHEM_FEATURE_SELFOVERLAP>
37.757

> <PUBCHEM_SHAPE_FINGERPRINT>
12423570 1 16016950593329765304
13024252 1 15796272717262134978
137420 1 13298265926072989686
15557651 10 18263905735608457932
16945 1 18410856559697811844
23419403 2 16331559962918568938
241688 4 17967807224030538305
5084963 1 18263644128970980581
528886 8 17968094200855034920
68250623 7 18408604755610394742

> <PUBCHEM_SHAPE_MULTIPOLES>
246.95
2.5
1.65
1.41
0.89
0
0
0
0
-0.02
0
-0.14
0
0

> <PUBCHEM_SHAPE_SELFOVERLAP>
530.4

> <PUBCHEM_SHAPE_VOLUME>
130.3

> <PUBCHEM_COORDINATE_TYPE>
2
5
10

$$$$
