136319
  -OEChem-11012400463D

 20 21  0     0  0  0  0  0  0999 V2000
    1.1508    1.4343    0.0483 O   0  0  0  0  0  0  0  0  0  0  0  0
    1.2924   -1.4944   -0.0791 C   0  0  0  0  0  0  0  0  0  0  0  0
    2.4556   -0.6140    0.3561 C   0  0  0  0  0  0  0  0  0  0  0  0
    0.0049   -0.7219   -0.0333 C   0  0  0  0  0  0  0  0  0  0  0  0
    2.3423    0.7374   -0.3310 C   0  0  0  0  0  0  0  0  0  0  0  0
    0.0061    0.6788    0.0154 C   0  0  0  0  0  0  0  0  0  0  0  0
   -1.2193   -1.4025   -0.0672 C   0  0  0  0  0  0  0  0  0  0  0  0
   -1.1992    1.3832    0.0696 C   0  0  0  0  0  0  0  0  0  0  0  0
   -2.4219   -0.6962   -0.0256 C   0  0  0  0  0  0  0  0  0  0  0  0
   -2.4117    0.6952    0.0468 C   0  0  0  0  0  0  0  0  0  0  0  0
    1.2376   -2.3729    0.5740 H   0  0  0  0  0  0  0  0  0  0  0  0
    1.4539   -1.8443   -1.1059 H   0  0  0  0  0  0  0  0  0  0  0  0
    2.4163   -0.4724    1.4437 H   0  0  0  0  0  0  0  0  0  0  0  0
    3.4082   -1.0971    0.1150 H   0  0  0  0  0  0  0  0  0  0  0  0
    3.1902    1.3677   -0.0429 H   0  0  0  0  0  0  0  0  0  0  0  0
    2.3662    0.6384   -1.4234 H   0  0  0  0  0  0  0  0  0  0  0  0
   -1.2419   -2.4880   -0.1208 H   0  0  0  0  0  0  0  0  0  0  0  0
   -1.2009    2.4688    0.1233 H   0  0  0  0  0  0  0  0  0  0  0  0
   -3.3665   -1.2318   -0.0473 H   0  0  0  0  0  0  0  0  0  0  0  0
   -3.3481    1.2442    0.0833 H   0  0  0  0  0  0  0  0  0  0  0  0
  1  5  1  0  0  0  0
  1  6  1  0  0  0  0
  2  3  1  0  0  0  0
  2  4  1  0  0  0  0
  2 11  1  0  0  0  0
  2 12  1  0  0  0  0
  3  5  1  0  0  0  0
  3 13  1  0  0  0  0
  3 14  1  0  0  0  0
  4  6  1  0  0  0  0
  4  7  2  0  0  0  0
  5 15  1  0  0  0  0
  5 16  1  0  0  0  0
  6  8  2  0  0  0  0
  7  9  1  0  0  0  0
  7 17  1  0  0  0  0
  8 10  1  0  0  0  0
  8 18  1  0  0  0  0
  9 10  2  0  0  0  0
  9 19  1  0  0  0  0
 10 20  1  0  0  0  0
M  END
> <PUBCHEM_COMPOUND_CID>
136319

> <PUBCHEM_CONFORMER_RMSD>
0.4

> <PUBCHEM_CONFORMER_DIVERSEORDER>
1

> <PUBCHEM_MMFF94_PARTIAL_CHARGES>
13
1 -0.36
10 -0.15
17 0.15
18 0.15
19 0.15
2 0.14
20 0.15
4 -0.14
5 0.28
6 0.08
7 -0.15
8 -0.15
9 -0.15

> <PUBCHEM_EFFECTIVE_ROTOR_COUNT>
0.8

> <PUBCHEM_PHARMACOPHORE_FEATURES>
3
1 1 acceptor
6 1 2 3 4 5 6 rings
6 4 6 7 8 9 10 rings

> <PUBCHEM_HEAVY_ATOM_COUNT>
10

> <PUBCHEM_ATOM_DEF_STEREO_COUNT>
0

> <PUBCHEM_ATOM_UDEF_STEREO_COUNT>
0

> <PUBCHEM_BOND_DEF_STEREO_COUNT>
0

> <PUBCHEM_BOND_UDEF_STEREO_COUNT>
0

> <PUBCHEM_ISOTOPIC_ATOM_COUNT>
0

> <PUBCHEM_COMPONENT_COUNT>
1

> <PUBCHEM_CACTVS_TAUTO_COUNT>
1

> <PUBCHEM_CONFORMER_ID>
0002147F00000001

> <PUBCHEM_MMFF94_ENERGY>
25.0062

> <PUBCHEM_FEATURE_SELFOVERLAP>
15.252

> <PUBCHEM_SHAPE_FINGERPRINT>
12524768 44 18268996388398086927
12897270 3 18410575127618039773
14325111 11 18410293613992125421
16945 1 18411700984606870799
18185500 45 18410572915731104646
193761 8 15384155731401228055
19973954 147 18410859828120464335
21040471 1 18339924822638224040
23402655 69 18268412557152624893
23552423 10 18261394476651505870
241688 4 17259348765104293874
2748010 2 18410855473023619847
29004967 10 18335706035129713114
369184 2 17095239211469631363
5084963 1 18272650121334643307
528886 8 18411133645186343099
66348 1 18194683902085358083

> <PUBCHEM_SHAPE_MULTIPOLES>
199.93
3.57
1.68
0.63
0.18
0.03
0
-0.02
-0.05
0
0.02
0.05
0.01
-0.13

> <PUBCHEM_SHAPE_SELFOVERLAP>
426.748

> <PUBCHEM_SHAPE_VOLUME>
111

> <PUBCHEM_COORDINATE_TYPE>
2
5
10

$$$$
