136112
  -OEChem-11012400413D

 23 24  0     0  0  0  0  0  0999 V2000
    1.7819   -0.0042   -0.0133 O   0  0  0  0  0  0  0  0  0  0  0  0
   -0.2847   -1.3720   -0.0196 C   0  0  0  0  0  0  0  0  0  0  0  0
   -0.2785    1.3732   -0.0192 C   0  0  0  0  0  0  0  0  0  0  0  0
   -0.5140    0.7690   -1.4104 C   0  0  0  0  0  0  0  0  0  0  0  0
   -0.5163   -0.7666   -1.4109 C   0  0  0  0  0  0  0  0  0  0  0  0
   -1.2634    0.7659    0.9869 C   0  0  0  0  0  0  0  0  0  0  0  0
   -1.2684   -0.7605    0.9853 C   0  0  0  0  0  0  0  0  0  0  0  0
    1.1686   -1.1994    0.4514 C   0  0  0  0  0  0  0  0  0  0  0  0
    1.1748    1.1946    0.4498 C   0  0  0  0  0  0  0  0  0  0  0  0
   -0.4896   -2.4498   -0.0572 H   0  0  0  0  0  0  0  0  0  0  0  0
   -0.4788    2.4518   -0.0565 H   0  0  0  0  0  0  0  0  0  0  0  0
   -1.4809    1.1197   -1.7937 H   0  0  0  0  0  0  0  0  0  0  0  0
    0.2403    1.1396   -2.1153 H   0  0  0  0  0  0  0  0  0  0  0  0
   -1.0512    1.1351    1.9978 H   0  0  0  0  0  0  0  0  0  0  0  0
   -2.2759    1.1186    0.7503 H   0  0  0  0  0  0  0  0  0  0  0  0
   -1.4836   -1.1143   -1.7960 H   0  0  0  0  0  0  0  0  0  0  0  0
    0.2381   -1.1390   -2.1147 H   0  0  0  0  0  0  0  0  0  0  0  0
   -1.0613   -1.1332    1.9959 H   0  0  0  0  0  0  0  0  0  0  0  0
   -2.2825   -1.1061    0.7451 H   0  0  0  0  0  0  0  0  0  0  0  0
    1.2612   -1.2656    1.5417 H   0  0  0  0  0  0  0  0  0  0  0  0
    1.7646   -2.0210    0.0378 H   0  0  0  0  0  0  0  0  0  0  0  0
    1.7740    2.0127    0.0338 H   0  0  0  0  0  0  0  0  0  0  0  0
    1.2694    1.2625    1.5399 H   0  0  0  0  0  0  0  0  0  0  0  0
  1  8  1  0  0  0  0
  1  9  1  0  0  0  0
  2  5  1  0  0  0  0
  2  7  1  0  0  0  0
  2  8  1  0  0  0  0
  2 10  1  0  0  0  0
  3  4  1  0  0  0  0
  3  6  1  0  0  0  0
  3  9  1  0  0  0  0
  3 11  1  0  0  0  0
  4  5  1  0  0  0  0
  4 12  1  0  0  0  0
  4 13  1  0  0  0  0
  5 16  1  0  0  0  0
  5 17  1  0  0  0  0
  6  7  1  0  0  0  0
  6 14  1  0  0  0  0
  6 15  1  0  0  0  0
  7 18  1  0  0  0  0
  7 19  1  0  0  0  0
  8 20  1  0  0  0  0
  8 21  1  0  0  0  0
  9 22  1  0  0  0  0
  9 23  1  0  0  0  0
M  END
> <PUBCHEM_COMPOUND_CID>
136112

> <PUBCHEM_CONFORMER_RMSD>
0.4

> <PUBCHEM_CONFORMER_DIVERSEORDER>
1

> <PUBCHEM_MMFF94_PARTIAL_CHARGES>
3
1 -0.56
8 0.28
9 0.28

> <PUBCHEM_EFFECTIVE_ROTOR_COUNT>
1.4

> <PUBCHEM_PHARMACOPHORE_FEATURES>
2
1 1 acceptor
9 1 2 3 4 5 6 7 8 9 rings

> <PUBCHEM_HEAVY_ATOM_COUNT>
9

> <PUBCHEM_ATOM_DEF_STEREO_COUNT>
0

> <PUBCHEM_ATOM_UDEF_STEREO_COUNT>
0

> <PUBCHEM_BOND_DEF_STEREO_COUNT>
0

> <PUBCHEM_BOND_UDEF_STEREO_COUNT>
0

> <PUBCHEM_ISOTOPIC_ATOM_COUNT>
0

> <PUBCHEM_COMPONENT_COUNT>
1

> <PUBCHEM_CACTVS_TAUTO_COUNT>
1

> <PUBCHEM_CONFORMER_ID>
000213B000000001

> <PUBCHEM_MMFF94_ENERGY>
27.3643

> <PUBCHEM_FEATURE_SELFOVERLAP>
10.148

> <PUBCHEM_SHAPE_FINGERPRINT>
12423570 1 8347941377157050277
13024252 1 14131265985584326312
137420 1 11948663725570607421
16945 1 18338814363107090835
18185500 45 17480021238351219226
29004967 10 16519892470529858665
5084963 1 17484230864631242971

> <PUBCHEM_SHAPE_MULTIPOLES>
179.35
1.64
1.63
1.33
0
0.46
0.4
0.07
-0.08
0.01
-0.41
-0.01
-0.44
-0.01

> <PUBCHEM_SHAPE_SELFOVERLAP>
366.558

> <PUBCHEM_SHAPE_VOLUME>
98

> <PUBCHEM_COORDINATE_TYPE>
2
5
10

$$$$
