79090
  -OEChem-11012401153D

 44 43  0     0  0  0  0  0  0999 V2000
   -1.9348   -0.6125   -1.3254 O   0  0  0  0  0  0  0  0  0  0  0  0
    1.7396    2.1127   -0.6450 O   0  0  0  0  0  0  0  0  0  0  0  0
    1.8822   -1.5106    1.1722 O   0  0  0  0  0  0  0  0  0  0  0  0
   -1.6487    1.4727    1.3353 O   0  0  0  0  0  0  0  0  0  0  0  0
   -0.0653   -1.0067   -2.6137 O   0  0  0  0  0  0  0  0  0  0  0  0
    2.3005    0.0657   -1.5435 O   0  0  0  0  0  0  0  0  0  0  0  0
   -0.1558   -2.5224    0.8077 O   0  0  0  0  0  0  0  0  0  0  0  0
   -2.0854   -0.7421    1.8008 O   0  0  0  0  0  0  0  0  0  0  0  0
    0.0584    0.4561   -0.6568 C   0  0  0  0  0  0  0  0  0  0  0  0
    0.0419   -0.0842    0.7968 C   0  0  0  0  0  0  0  0  0  0  0  0
   -0.6150   -0.4762   -1.6581 C   0  0  0  0  0  0  0  0  0  0  0  0
    1.4927    0.8211   -1.0201 C   0  0  0  0  0  0  0  0  0  0  0  0
    0.5387   -1.5210    0.9147 C   0  0  0  0  0  0  0  0  0  0  0  0
   -1.3482    0.1393    1.3801 C   0  0  0  0  0  0  0  0  0  0  0  0
   -2.7053   -1.4531   -2.1897 C   0  0  0  0  0  0  0  0  0  0  0  0
    3.0651    2.5873   -0.9014 C   0  0  0  0  0  0  0  0  0  0  0  0
    2.4912   -2.7966    1.3226 C   0  0  0  0  0  0  0  0  0  0  0  0
   -2.9426    1.8307    1.8304 C   0  0  0  0  0  0  0  0  0  0  0  0
   -4.1331   -1.4989   -1.6885 C   0  0  0  0  0  0  0  0  0  0  0  0
    3.1744    4.0224   -0.4319 C   0  0  0  0  0  0  0  0  0  0  0  0
    3.9679   -2.6132    1.6010 C   0  0  0  0  0  0  0  0  0  0  0  0
   -3.1183    3.3297    1.7123 C   0  0  0  0  0  0  0  0  0  0  0  0
   -0.5055    1.3953   -0.7517 H   0  0  0  0  0  0  0  0  0  0  0  0
    0.7020    0.5223    1.4353 H   0  0  0  0  0  0  0  0  0  0  0  0
   -2.6831   -1.0486   -3.2077 H   0  0  0  0  0  0  0  0  0  0  0  0
   -2.2806   -2.4630   -2.1895 H   0  0  0  0  0  0  0  0  0  0  0  0
    3.7864    1.9648   -0.3604 H   0  0  0  0  0  0  0  0  0  0  0  0
    3.2710    2.5325   -1.9762 H   0  0  0  0  0  0  0  0  0  0  0  0
    2.0204   -3.3286    2.1567 H   0  0  0  0  0  0  0  0  0  0  0  0
    2.3574   -3.3735    0.4007 H   0  0  0  0  0  0  0  0  0  0  0  0
   -3.7124    1.3202    1.2407 H   0  0  0  0  0  0  0  0  0  0  0  0
   -3.0284    1.5292    2.8802 H   0  0  0  0  0  0  0  0  0  0  0  0
   -4.1690   -1.8841   -0.6640 H   0  0  0  0  0  0  0  0  0  0  0  0
   -4.5653   -0.4931   -1.6644 H   0  0  0  0  0  0  0  0  0  0  0  0
   -4.7521   -2.1348   -2.3273 H   0  0  0  0  0  0  0  0  0  0  0  0
    2.4461    4.6542   -0.9510 H   0  0  0  0  0  0  0  0  0  0  0  0
    2.9530    4.0956    0.6380 H   0  0  0  0  0  0  0  0  0  0  0  0
    4.1778    4.4178   -0.6129 H   0  0  0  0  0  0  0  0  0  0  0  0
    4.4486   -2.0653    0.7837 H   0  0  0  0  0  0  0  0  0  0  0  0
    4.1180   -2.0226    2.5108 H   0  0  0  0  0  0  0  0  0  0  0  0
    4.4665   -3.5792    1.7204 H   0  0  0  0  0  0  0  0  0  0  0  0
   -2.3442    3.8544    2.2819 H   0  0  0  0  0  0  0  0  0  0  0  0
   -3.0164    3.6483    0.6697 H   0  0  0  0  0  0  0  0  0  0  0  0
   -4.0999    3.6389    2.0820 H   0  0  0  0  0  0  0  0  0  0  0  0
  1 11  1  0  0  0  0
  1 15  1  0  0  0  0
  2 12  1  0  0  0  0
  2 16  1  0  0  0  0
  3 13  1  0  0  0  0
  3 17  1  0  0  0  0
  4 14  1  0  0  0  0
  4 18  1  0  0  0  0
  5 11  2  0  0  0  0
  6 12  2  0  0  0  0
  7 13  2  0  0  0  0
  8 14  2  0  0  0  0
  9 10  1  0  0  0  0
  9 11  1  0  0  0  0
  9 12  1  0  0  0  0
  9 23  1  0  0  0  0
 10 13  1  0  0  0  0
 10 14  1  0  0  0  0
 10 24  1  0  0  0  0
 15 19  1  0  0  0  0
 15 25  1  0  0  0  0
 15 26  1  0  0  0  0
 16 20  1  0  0  0  0
 16 27  1  0  0  0  0
 16 28  1  0  0  0  0
 17 21  1  0  0  0  0
 17 29  1  0  0  0  0
 17 30  1  0  0  0  0
 18 22  1  0  0  0  0
 18 31  1  0  0  0  0
 18 32  1  0  0  0  0
 19 33  1  0  0  0  0
 19 34  1  0  0  0  0
 19 35  1  0  0  0  0
 20 36  1  0  0  0  0
 20 37  1  0  0  0  0
 20 38  1  0  0  0  0
 21 39  1  0  0  0  0
 21 40  1  0  0  0  0
 21 41  1  0  0  0  0
 22 42  1  0  0  0  0
 22 43  1  0  0  0  0
 22 44  1  0  0  0  0
M  END
> <PUBCHEM_COMPOUND_CID>
79090

> <PUBCHEM_CONFORMER_RMSD>
1

> <PUBCHEM_CONFORMER_DIVERSEORDER>
1
27
10
16
11
8
23
2
21
17
9
3
20
25
26
19
24
12
15
22
14
6
13
4
7
18
5

> <PUBCHEM_MMFF94_PARTIAL_CHARGES>
18
1 -0.43
10 0.12
11 0.66
12 0.66
13 0.66
14 0.66
15 0.28
16 0.28
17 0.28
18 0.28
2 -0.43
3 -0.43
4 -0.43
5 -0.57
6 -0.57
7 -0.57
8 -0.57
9 0.12

> <PUBCHEM_EFFECTIVE_ROTOR_COUNT>
13

> <PUBCHEM_PHARMACOPHORE_FEATURES>
6
1 10 anion
1 5 acceptor
1 6 acceptor
1 7 acceptor
1 8 acceptor
1 9 anion

> <PUBCHEM_HEAVY_ATOM_COUNT>
22

> <PUBCHEM_ATOM_DEF_STEREO_COUNT>
0

> <PUBCHEM_ATOM_UDEF_STEREO_COUNT>
0

> <PUBCHEM_BOND_DEF_STEREO_COUNT>
0

> <PUBCHEM_BOND_UDEF_STEREO_COUNT>
0

> <PUBCHEM_ISOTOPIC_ATOM_COUNT>
0

> <PUBCHEM_COMPONENT_COUNT>
1

> <PUBCHEM_CACTVS_TAUTO_COUNT>
1

> <PUBCHEM_CONFORMER_ID>
000134F200000001

> <PUBCHEM_MMFF94_ENERGY>
23.6992

> <PUBCHEM_FEATURE_SELFOVERLAP>
31.37

> <PUBCHEM_SHAPE_FINGERPRINT>
10756046 70 18268153045847114729
11578080 2 16588887675797789245
12173636 292 17904504118068016544
12788726 201 18059573637337940127
13583140 156 18189070745313630777
13994607 96 17332551453327053924
14817 1 16484966281910265950
15238133 3 18059557093725296743
16945 1 16604111836003022418
17876694 64 18125691596152390147
17980427 23 18053664677156525513
17980427 26 18190202185728201060
18915476 22 17968087685347793274
19765921 60 17906717451747981964
20602899 9 17683796988592115054
21524375 3 18055384459018086921
22182313 1 15719688575380917486
23352939 185 18118656912300209710
23419403 2 16950854582836319871
23558518 356 18121808241585106716
266924 1 18341887523976963013
2748010 2 16153712011516418435
3052486 1 17561359583218282055
394222 165 18195231433317333238
5939293 188 17762648112438162785
68419 9 18201719539710876823

> <PUBCHEM_SHAPE_MULTIPOLES>
405.8
5.92
4.23
2.61
0.21
3.35
0.46
0.46
-0.42
-3.21
-1.2
1.53
-0.53
-4.85

> <PUBCHEM_SHAPE_SELFOVERLAP>
790.449

> <PUBCHEM_SHAPE_VOLUME>
243.8

> <PUBCHEM_COORDINATE_TYPE>
2
5
10

$$$$
