142958
  -OEChem-11012400303D

 19 18  0     0  0  0  0  0  0999 V2000
    1.7934   -0.4374   -0.0001 O   0  0  0  0  0  0  0  0  0  0  0  0
    0.2779    1.3014    0.0176 O   0  0  0  0  0  0  0  0  0  0  0  0
    2.8727    0.5026   -0.0060 C   0  0  0  0  0  0  0  0  0  0  0  0
    4.1845   -0.2528   -0.0189 C   0  0  0  0  0  0  0  0  0  0  0  0
   -0.4748   -1.0118    0.0162 C   0  0  0  0  0  0  0  0  0  0  0  0
    0.5392    0.1060    0.0117 C   0  0  0  0  0  0  0  0  0  0  0  0
   -1.8531   -0.5074    0.0047 C   0  0  0  0  0  0  0  0  0  0  0  0
   -2.9826   -0.0994   -0.0058 C   0  0  0  0  0  0  0  0  0  0  0  0
   -4.3572    0.3988   -0.0194 C   0  0  0  0  0  0  0  0  0  0  0  0
    2.8011    1.1353   -0.8977 H   0  0  0  0  0  0  0  0  0  0  0  0
    2.8155    1.1298    0.8907 H   0  0  0  0  0  0  0  0  0  0  0  0
    5.0331    0.4370   -0.0237 H   0  0  0  0  0  0  0  0  0  0  0  0
    4.2629   -0.9040    0.8580 H   0  0  0  0  0  0  0  0  0  0  0  0
    4.2486   -0.8985   -0.9010 H   0  0  0  0  0  0  0  0  0  0  0  0
   -0.3132   -1.6193    0.9131 H   0  0  0  0  0  0  0  0  0  0  0  0
   -0.3056   -1.6342   -0.8691 H   0  0  0  0  0  0  0  0  0  0  0  0
   -4.3754    1.4918    0.0261 H   0  0  0  0  0  0  0  0  0  0  0  0
   -4.8746    0.0885   -0.9323 H   0  0  0  0  0  0  0  0  0  0  0  0
   -4.9193    0.0140    0.8369 H   0  0  0  0  0  0  0  0  0  0  0  0
  1  3  1  0  0  0  0
  1  6  1  0  0  0  0
  2  6  2  0  0  0  0
  3  4  1  0  0  0  0
  3 10  1  0  0  0  0
  3 11  1  0  0  0  0
  4 12  1  0  0  0  0
  4 13  1  0  0  0  0
  4 14  1  0  0  0  0
  5  6  1  0  0  0  0
  5  7  1  0  0  0  0
  5 15  1  0  0  0  0
  5 16  1  0  0  0  0
  7  8  3  0  0  0  0
  8  9  1  0  0  0  0
  9 17  1  0  0  0  0
  9 18  1  0  0  0  0
  9 19  1  0  0  0  0
M  END
> <PUBCHEM_COMPOUND_CID>
142958

> <PUBCHEM_CONFORMER_RMSD>
0.6

> <PUBCHEM_CONFORMER_DIVERSEORDER>
1
17
9
16
8
15
6
5
4
3
14
20
2
13
21
10
19
12
7
11
18

> <PUBCHEM_MMFF94_PARTIAL_CHARGES>
8
1 -0.43
2 -0.57
3 0.28
5 0.26
6 0.66
7 -0.2
8 -0.2
9 0.2

> <PUBCHEM_EFFECTIVE_ROTOR_COUNT>
3

> <PUBCHEM_PHARMACOPHORE_FEATURES>
2
1 2 acceptor
1 9 hydrophobe

> <PUBCHEM_HEAVY_ATOM_COUNT>
9

> <PUBCHEM_ATOM_DEF_STEREO_COUNT>
0

> <PUBCHEM_ATOM_UDEF_STEREO_COUNT>
0

> <PUBCHEM_BOND_DEF_STEREO_COUNT>
0

> <PUBCHEM_BOND_UDEF_STEREO_COUNT>
0

> <PUBCHEM_ISOTOPIC_ATOM_COUNT>
0

> <PUBCHEM_COMPONENT_COUNT>
1

> <PUBCHEM_CACTVS_TAUTO_COUNT>
1

> <PUBCHEM_CONFORMER_ID>
00022E6E00000001

> <PUBCHEM_MMFF94_ENERGY>
3.3593

> <PUBCHEM_FEATURE_SELFOVERLAP>
10.148

> <PUBCHEM_SHAPE_FINGERPRINT>
11062470 55 17632578257661716091
12932764 1 15502923242414542506
14325111 11 18410575127839735107
18342897 14 18334859403024299241
20719005 15 18410575093374430243
23402539 116 15769772434312490769
23402655 69 18270106921771787813

> <PUBCHEM_SHAPE_MULTIPOLES>
173.48
7.7
0.97
0.6
0.29
0.07
0
0.62
0.09
0.01
0
0.02
-0.01
0.01

> <PUBCHEM_SHAPE_SELFOVERLAP>
319.689

> <PUBCHEM_SHAPE_VOLUME>
109.1

> <PUBCHEM_COORDINATE_TYPE>
2
5
10

$$$$
