5708915
  -OEChem-11012400473D

 30 30  0     0  0  0  0  0  0999 V2000
   -2.5533   -0.4060   -0.7367 O   0  0  0  0  0  0  0  0  0  0  0  0
   -1.5169    2.1602   -0.4741 O   0  0  0  0  0  0  0  0  0  0  0  0
   -5.4075   -1.4483    1.1695 O   0  0  0  0  0  0  0  0  0  0  0  0
   -5.1914    0.1860   -0.4022 O   0  0  0  0  0  0  0  0  0  0  0  0
    6.0659   -1.3203   -0.1382 O   0  0  0  0  0  0  0  0  0  0  0  0
    5.7329    0.7811    0.6850 O   0  0  0  0  0  0  0  0  0  0  0  0
   -1.2234   -0.2160   -0.5108 C   0  0  0  0  0  0  0  0  0  0  0  0
   -0.7032    1.0715   -0.3792 C   0  0  0  0  0  0  0  0  0  0  0  0
    1.5039    0.1461   -0.0491 C   0  0  0  0  0  0  0  0  0  0  0  0
    0.6604    1.2526   -0.1484 C   0  0  0  0  0  0  0  0  0  0  0  0
   -0.3799   -1.3225   -0.4115 C   0  0  0  0  0  0  0  0  0  0  0  0
    0.9837   -1.1414   -0.1808 C   0  0  0  0  0  0  0  0  0  0  0  0
    2.9260    0.3350    0.1909 C   0  0  0  0  0  0  0  0  0  0  0  0
   -3.2737   -1.1639    0.2333 C   0  0  0  0  0  0  0  0  0  0  0  0
    3.8896   -0.5771   -0.0663 C   0  0  0  0  0  0  0  0  0  0  0  0
   -2.1099    2.6331    0.7336 C   0  0  0  0  0  0  0  0  0  0  0  0
   -4.7071   -0.7115    0.2708 C   0  0  0  0  0  0  0  0  0  0  0  0
    5.3040   -0.2586    0.2140 C   0  0  0  0  0  0  0  0  0  0  0  0
    1.0550    2.2617   -0.0495 H   0  0  0  0  0  0  0  0  0  0  0  0
   -0.7706   -2.3311   -0.5159 H   0  0  0  0  0  0  0  0  0  0  0  0
    1.5985   -2.0324   -0.0931 H   0  0  0  0  0  0  0  0  0  0  0  0
    3.2060    1.3033    0.6006 H   0  0  0  0  0  0  0  0  0  0  0  0
   -3.2455   -2.2201   -0.0533 H   0  0  0  0  0  0  0  0  0  0  0  0
   -2.8468   -1.0231    1.2336 H   0  0  0  0  0  0  0  0  0  0  0  0
    3.6807   -1.5494   -0.4977 H   0  0  0  0  0  0  0  0  0  0  0  0
   -1.3371    2.9566    1.4381 H   0  0  0  0  0  0  0  0  0  0  0  0
   -2.7324    1.8571    1.1897 H   0  0  0  0  0  0  0  0  0  0  0  0
   -2.7431    3.4909    0.4911 H   0  0  0  0  0  0  0  0  0  0  0  0
   -6.3482   -1.1736    1.2141 H   0  0  0  0  0  0  0  0  0  0  0  0
    7.0192   -1.1601    0.0290 H   0  0  0  0  0  0  0  0  0  0  0  0
  1  7  1  0  0  0  0
  1 14  1  0  0  0  0
  2  8  1  0  0  0  0
  2 16  1  0  0  0  0
  3 17  1  0  0  0  0
  3 29  1  0  0  0  0
  4 17  2  0  0  0  0
  5 18  1  0  0  0  0
  5 30  1  0  0  0  0
  6 18  2  0  0  0  0
  7  8  2  0  0  0  0
  7 11  1  0  0  0  0
  8 10  1  0  0  0  0
  9 10  2  0  0  0  0
  9 12  1  0  0  0  0
  9 13  1  0  0  0  0
 10 19  1  0  0  0  0
 11 12  2  0  0  0  0
 11 20  1  0  0  0  0
 12 21  1  0  0  0  0
 13 15  2  0  0  0  0
 13 22  1  0  0  0  0
 14 17  1  0  0  0  0
 14 23  1  0  0  0  0
 14 24  1  0  0  0  0
 15 18  1  0  0  0  0
 15 25  1  0  0  0  0
 16 26  1  0  0  0  0
 16 27  1  0  0  0  0
 16 28  1  0  0  0  0
M  END
> <PUBCHEM_COMPOUND_CID>
5708915

> <PUBCHEM_CONFORMER_RMSD>
0.8

> <PUBCHEM_CONFORMER_DIVERSEORDER>
1
19
8
14
16
2
6
17
12
11
7
20
9
15
3
10
5
18
13
4

> <PUBCHEM_MMFF94_PARTIAL_CHARGES>
25
1 -0.36
10 -0.15
11 -0.15
12 -0.15
13 -0.18
14 0.34
15 -0.14
16 0.28
17 0.66
18 0.71
19 0.15
2 -0.36
20 0.15
21 0.15
22 0.15
25 0.15
29 0.5
3 -0.65
30 0.5
4 -0.57
5 -0.65
6 -0.57
7 0.08
8 0.08
9 0.03

> <PUBCHEM_EFFECTIVE_ROTOR_COUNT>
6

> <PUBCHEM_PHARMACOPHORE_FEATURES>
9
1 1 acceptor
1 2 acceptor
1 3 acceptor
1 4 acceptor
1 5 acceptor
1 6 acceptor
3 3 4 17 anion
3 5 6 18 anion
6 7 8 9 10 11 12 rings

> <PUBCHEM_HEAVY_ATOM_COUNT>
18

> <PUBCHEM_ATOM_DEF_STEREO_COUNT>
0

> <PUBCHEM_ATOM_UDEF_STEREO_COUNT>
0

> <PUBCHEM_BOND_DEF_STEREO_COUNT>
1

> <PUBCHEM_BOND_UDEF_STEREO_COUNT>
0

> <PUBCHEM_ISOTOPIC_ATOM_COUNT>
0

> <PUBCHEM_COMPONENT_COUNT>
1

> <PUBCHEM_CACTVS_TAUTO_COUNT>
1

> <PUBCHEM_CONFORMER_ID>
00571C7300000001

> <PUBCHEM_MMFF94_ENERGY>
59.5198

> <PUBCHEM_FEATURE_SELFOVERLAP>
45.797

> <PUBCHEM_SHAPE_FINGERPRINT>
12236239 1 17676488337381472398
12390115 104 17988094287521529856
12916748 109 18410292515313739666
13073987 5 18339636747272654410
13140716 1 18196371652502903810
13288520 33 18334576828087451047
13533116 47 17240752957620941834
13740256 8 18114748247484980083
13862211 1 18411134766400083015
1420 363 18335422370147157082
15048467 5 16559036003575428818
19141452 34 17917428773830397862
200 152 14996283613052490276
20510252 161 18201436943974639912
21029758 27 18333731338063796444
21236236 1 18342458093302802089
21267235 1 18410297991518627702
21339142 126 18272927228651309029
22182313 1 18058737879319275556
2297311 6 18341339920379358556
23402539 116 18342731940370012207
23557571 272 18201728314851334796
23559900 14 18261386801634943536
23845131 108 17479469940966872041
26918003 58 18113899381658747851
350125 39 18412826906358490704
4463277 17 18409166627690529180
474229 33 18411418405860780710
5104073 3 18341322285597037114
59755656 215 18410857612345328966

> <PUBCHEM_SHAPE_MULTIPOLES>
335.22
12.32
1.92
0.79
7.72
1.19
0.07
-4.29
2.74
-1.4
0.22
-0.43
0
0.52

> <PUBCHEM_SHAPE_SELFOVERLAP>
694.222

> <PUBCHEM_SHAPE_VOLUME>
191.1

> <PUBCHEM_COORDINATE_TYPE>
2
5
10

$$$$
