119867
  -OEChem-11012400343D

 59 58  0     1  0  0  0  0  0999 V2000
    2.1288   -2.0686    0.1607 O   0  0  0  0  0  0  0  0  0  0  0  0
   -3.5156    1.2164    0.1490 C   0  0  1  0  0  0  0  0  0  0  0  0
    1.2045    3.2432   -0.5710 C   0  0  2  0  0  0  0  0  0  0  0  0
   -2.3823    1.5604   -0.8393 C   0  0  0  0  0  0  0  0  0  0  0  0
   -0.0623    2.5976   -1.1719 C   0  0  0  0  0  0  0  0  0  0  0  0
   -1.1893    2.2634   -0.1842 C   0  0  0  0  0  0  0  0  0  0  0  0
   -3.1361    0.1843    1.2329 C   0  0  0  0  0  0  0  0  0  0  0  0
    1.8702    2.3241    0.4786 C   0  0  0  0  0  0  0  0  0  0  0  0
   -2.5265   -1.1188    0.7050 C   0  0  0  0  0  0  0  0  0  0  0  0
    2.2063    0.9244   -0.0501 C   0  0  0  0  0  0  0  0  0  0  0  0
   -3.4740   -1.9054   -0.2111 C   0  0  0  0  0  0  0  0  0  0  0  0
   -4.0603    2.5045    0.7768 C   0  0  0  0  0  0  0  0  0  0  0  0
    0.8984    4.5973    0.0793 C   0  0  0  0  0  0  0  0  0  0  0  0
    2.8408    0.0567    1.0502 C   0  0  0  0  0  0  0  0  0  0  0  0
   -2.9488   -3.2600   -0.7232 C   0  0  0  0  0  0  0  0  0  0  0  0
    3.2868   -1.3407    0.5736 C   0  0  1  0  0  0  0  0  0  0  0  0
   -1.7350   -3.1079   -1.6402 C   0  0  0  0  0  0  0  0  0  0  0  0
   -2.5903   -4.1565    0.4656 C   0  0  0  0  0  0  0  0  0  0  0  0
    3.9342   -2.1026    1.7349 C   0  0  0  0  0  0  0  0  0  0  0  0
    4.2375   -1.2456   -0.5509 C   0  0  0  0  0  0  0  0  0  0  0  0
    5.0130   -1.1662   -1.4645 C   0  0  0  0  0  0  0  0  0  0  0  0
   -4.3349    0.7922   -0.4457 H   0  0  0  0  0  0  0  0  0  0  0  0
    1.9157    3.4111   -1.3898 H   0  0  0  0  0  0  0  0  0  0  0  0
   -2.7857    2.2142   -1.6238 H   0  0  0  0  0  0  0  0  0  0  0  0
   -2.0417    0.6562   -1.3556 H   0  0  0  0  0  0  0  0  0  0  0  0
    0.2096    1.6979   -1.7357 H   0  0  0  0  0  0  0  0  0  0  0  0
   -0.4678    3.2888   -1.9235 H   0  0  0  0  0  0  0  0  0  0  0  0
   -0.7954    1.6219    0.6093 H   0  0  0  0  0  0  0  0  0  0  0  0
   -1.5214    3.1936    0.2858 H   0  0  0  0  0  0  0  0  0  0  0  0
   -4.0322   -0.0557    1.8198 H   0  0  0  0  0  0  0  0  0  0  0  0
   -2.4275    0.6354    1.9384 H   0  0  0  0  0  0  0  0  0  0  0  0
    2.7981    2.8018    0.8201 H   0  0  0  0  0  0  0  0  0  0  0  0
    1.2322    2.2364    1.3664 H   0  0  0  0  0  0  0  0  0  0  0  0
   -2.2751   -1.7273    1.5809 H   0  0  0  0  0  0  0  0  0  0  0  0
   -1.5802   -0.9120    0.1956 H   0  0  0  0  0  0  0  0  0  0  0  0
    1.3039    0.4150   -0.4015 H   0  0  0  0  0  0  0  0  0  0  0  0
    2.8818    1.0278   -0.9058 H   0  0  0  0  0  0  0  0  0  0  0  0
   -3.7300   -1.2958   -1.0855 H   0  0  0  0  0  0  0  0  0  0  0  0
   -4.4158   -2.0784    0.3263 H   0  0  0  0  0  0  0  0  0  0  0  0
   -3.3633    2.9375    1.5009 H   0  0  0  0  0  0  0  0  0  0  0  0
   -4.2833    3.2570    0.0132 H   0  0  0  0  0  0  0  0  0  0  0  0
   -4.9920    2.2944    1.3140 H   0  0  0  0  0  0  0  0  0  0  0  0
    0.2639    4.4937    0.9652 H   0  0  0  0  0  0  0  0  0  0  0  0
    0.3927    5.2620   -0.6287 H   0  0  0  0  0  0  0  0  0  0  0  0
    1.8258    5.0891    0.3926 H   0  0  0  0  0  0  0  0  0  0  0  0
    3.7036    0.5936    1.4666 H   0  0  0  0  0  0  0  0  0  0  0  0
    2.1077   -0.0552    1.8601 H   0  0  0  0  0  0  0  0  0  0  0  0
   -3.7537   -3.7405   -1.2932 H   0  0  0  0  0  0  0  0  0  0  0  0
   -1.9644   -2.4428   -2.4792 H   0  0  0  0  0  0  0  0  0  0  0  0
   -0.8683   -2.7005   -1.1101 H   0  0  0  0  0  0  0  0  0  0  0  0
   -1.4434   -4.0793   -2.0541 H   0  0  0  0  0  0  0  0  0  0  0  0
   -3.4193   -4.2177    1.1783 H   0  0  0  0  0  0  0  0  0  0  0  0
   -2.3793   -5.1741    0.1178 H   0  0  0  0  0  0  0  0  0  0  0  0
   -1.6991   -3.8072    0.9968 H   0  0  0  0  0  0  0  0  0  0  0  0
    4.2296   -3.1133    1.4279 H   0  0  0  0  0  0  0  0  0  0  0  0
    4.8264   -1.5902    2.1115 H   0  0  0  0  0  0  0  0  0  0  0  0
    3.2268   -2.2245    2.5633 H   0  0  0  0  0  0  0  0  0  0  0  0
    2.4064   -2.9681   -0.0838 H   0  0  0  0  0  0  0  0  0  0  0  0
    5.7004   -1.0953   -2.2747 H   0  0  0  0  0  0  0  0  0  0  0  0
  1 16  1  0  0  0  0
  1 58  1  0  0  0  0
  2  4  1  0  0  0  0
  2  7  1  0  0  0  0
  2 12  1  0  0  0  0
  2 22  1  0  0  0  0
  3  5  1  0  0  0  0
  3  8  1  0  0  0  0
  3 13  1  0  0  0  0
  3 23  1  0  0  0  0
  4  6  1  0  0  0  0
  4 24  1  0  0  0  0
  4 25  1  0  0  0  0
  5  6  1  0  0  0  0
  5 26  1  0  0  0  0
  5 27  1  0  0  0  0
  6 28  1  0  0  0  0
  6 29  1  0  0  0  0
  7  9  1  0  0  0  0
  7 30  1  0  0  0  0
  7 31  1  0  0  0  0
  8 10  1  0  0  0  0
  8 32  1  0  0  0  0
  8 33  1  0  0  0  0
  9 11  1  0  0  0  0
  9 34  1  0  0  0  0
  9 35  1  0  0  0  0
 10 14  1  0  0  0  0
 10 36  1  0  0  0  0
 10 37  1  0  0  0  0
 11 15  1  0  0  0  0
 11 38  1  0  0  0  0
 11 39  1  0  0  0  0
 12 40  1  0  0  0  0
 12 41  1  0  0  0  0
 12 42  1  0  0  0  0
 13 43  1  0  0  0  0
 13 44  1  0  0  0  0
 13 45  1  0  0  0  0
 14 16  1  0  0  0  0
 14 46  1  0  0  0  0
 14 47  1  0  0  0  0
 15 17  1  0  0  0  0
 15 18  1  0  0  0  0
 15 48  1  0  0  0  0
 16 19  1  0  0  0  0
 16 20  1  0  0  0  0
 17 49  1  0  0  0  0
 17 50  1  0  0  0  0
 17 51  1  0  0  0  0
 18 52  1  0  0  0  0
 18 53  1  0  0  0  0
 18 54  1  0  0  0  0
 19 55  1  0  0  0  0
 19 56  1  0  0  0  0
 19 57  1  0  0  0  0
 20 21  3  0  0  0  0
 21 59  1  0  0  0  0
M  END
> <PUBCHEM_COMPOUND_CID>
119867

> <PUBCHEM_CONFORMER_RMSD>
1.4

> <PUBCHEM_CONFORMER_DIVERSEORDER>
3
63
485
248
21
402
114
194
70
466
460
530
348
203
142
256
358
44
190
1
28
46
64
389
423
82
125
11
437
464
411
508
339
40
241
305
2
414
109
431
186
31
417
147
119
211
452
516
53
361
212
293
71
351
407
152
312
41
295
26
95
87
441
159
333
25
347
29
394
343
191
298
462
149
528
88
244
229
319
405
318
113
18
420
133
457
6
527
49
20
314
511
421
307
43
145
24
131
120
60
369
500
204
32
196
207
275
121
331
160
478
144
356
171
83
146
301
4
317
468
501
503
366
5
33
85
67
74
277
495
58
36
413
27
380
253
467
42
226
7
12
182
166
489
161
531
287
284
192
48
428
290
240
134
493
8
497
310
242
235
377
487
91
153
187
322
129
355
427

> <PUBCHEM_MMFF94_PARTIAL_CHARGES>
6
1 -0.68
16 0.48
20 -0.2
21 -0.18
58 0.4
59 0.18

> <PUBCHEM_EFFECTIVE_ROTOR_COUNT>
12

> <PUBCHEM_PHARMACOPHORE_FEATURES>
6
1 1 acceptor
1 1 donor
1 12 hydrophobe
1 13 hydrophobe
1 21 hydrophobe
3 15 17 18 hydrophobe

> <PUBCHEM_HEAVY_ATOM_COUNT>
21

> <PUBCHEM_ATOM_DEF_STEREO_COUNT>
0

> <PUBCHEM_ATOM_UDEF_STEREO_COUNT>
3

> <PUBCHEM_BOND_DEF_STEREO_COUNT>
0

> <PUBCHEM_BOND_UDEF_STEREO_COUNT>
0

> <PUBCHEM_ISOTOPIC_ATOM_COUNT>
0

> <PUBCHEM_COMPONENT_COUNT>
1

> <PUBCHEM_CACTVS_TAUTO_COUNT>
1

> <PUBCHEM_CONFORMER_ID>
0001D43B00000003

> <PUBCHEM_MMFF94_ENERGY>
26.1734

> <PUBCHEM_FEATURE_SELFOVERLAP>
30.448

> <PUBCHEM_SHAPE_FINGERPRINT>
11014199 57 18195249051141916318
12054548 360 18335422327223740968
12553582 1 18265328417797905604
12633257 1 18339358544027093651
12788726 201 18045509603850611904
13533116 47 18340487885031552033
14251757 17 17537393601066068999
14251757 5 18266187127920782252
15537594 2 18042418957973432336
17492 89 18195249055610950399
19319366 153 17677340389820555914
19930381 70 17471009649972802451
20775530 9 18339923839207050451
21315764 21 15576648675206687611
22113638 7 18337950095665648865
238078 22 18337682893208511556
445580 102 16964077666334354699
5283178 26 18129667378711541839
7097593 13 18339082695795858873

> <PUBCHEM_SHAPE_MULTIPOLES>
426.3
9.01
6.14
1.37
4.47
1.12
-0.04
-5.73
0.54
-2.72
-0.75
0.57
-0.65
-1.06

> <PUBCHEM_SHAPE_SELFOVERLAP>
794.097

> <PUBCHEM_SHAPE_VOLUME>
267.6

> <PUBCHEM_COORDINATE_TYPE>
2
5
10

$$$$
