141358
  -OEChem-11012401243D

 47 49  0     0  0  0  0  0  0999 V2000
    0.4237    0.4207   -0.1652 C   0  0  0  0  0  0  0  0  0  0  0  0
   -0.4521    1.1569    0.8963 C   0  0  0  0  0  0  0  0  0  0  0  0
    0.2368   -1.0920   -0.1258 C   0  0  0  0  0  0  0  0  0  0  0  0
    1.9017    0.8001   -0.1333 C   0  0  0  0  0  0  0  0  0  0  0  0
   -1.8920    1.2622    0.5229 C   0  0  0  0  0  0  0  0  0  0  0  0
   -0.3213   -1.7209   -1.2180 C   0  0  0  0  0  0  0  0  0  0  0  0
    2.5975    0.8543   -1.3211 C   0  0  0  0  0  0  0  0  0  0  0  0
    0.6316   -1.7807    1.0013 C   0  0  0  0  0  0  0  0  0  0  0  0
    2.4891    1.0747    1.0824 C   0  0  0  0  0  0  0  0  0  0  0  0
   -2.3462    2.3647   -0.2007 C   0  0  0  0  0  0  0  0  0  0  0  0
   -2.7849    0.2581    0.8978 C   0  0  0  0  0  0  0  0  0  0  0  0
   -0.4926   -3.1047   -1.1817 C   0  0  0  0  0  0  0  0  0  0  0  0
    3.9485    1.2005   -1.2918 C   0  0  0  0  0  0  0  0  0  0  0  0
    0.4604   -3.1645    1.0375 C   0  0  0  0  0  0  0  0  0  0  0  0
    3.8399    1.4212    1.1116 C   0  0  0  0  0  0  0  0  0  0  0  0
   -0.1017   -3.8266   -0.0539 C   0  0  0  0  0  0  0  0  0  0  0  0
    4.5696    1.4842   -0.0755 C   0  0  0  0  0  0  0  0  0  0  0  0
   -3.6932    2.4633   -0.5494 C   0  0  0  0  0  0  0  0  0  0  0  0
   -4.1318    0.3566    0.5488 C   0  0  0  0  0  0  0  0  0  0  0  0
   -4.5860    1.4591   -0.1748 C   0  0  0  0  0  0  0  0  0  0  0  0
   -0.2848   -5.3060   -0.0152 C   0  0  0  0  0  0  0  0  0  0  0  0
    6.0138    1.8545   -0.0443 C   0  0  0  0  0  0  0  0  0  0  0  0
   -6.0261    1.5645   -0.5478 C   0  0  0  0  0  0  0  0  0  0  0  0
    0.0573    0.7800   -1.1399 H   0  0  0  0  0  0  0  0  0  0  0  0
   -0.0741    2.1804    1.0335 H   0  0  0  0  0  0  0  0  0  0  0  0
   -0.3664    0.6915    1.8870 H   0  0  0  0  0  0  0  0  0  0  0  0
   -0.6305   -1.1695   -2.1006 H   0  0  0  0  0  0  0  0  0  0  0  0
    2.1233    0.6329   -2.2724 H   0  0  0  0  0  0  0  0  0  0  0  0
    1.0619   -1.2871    1.8659 H   0  0  0  0  0  0  0  0  0  0  0  0
    1.9491    1.0256    2.0217 H   0  0  0  0  0  0  0  0  0  0  0  0
   -1.6607    3.1525   -0.5018 H   0  0  0  0  0  0  0  0  0  0  0  0
   -2.4468   -0.6049    1.4650 H   0  0  0  0  0  0  0  0  0  0  0  0
   -0.9338   -3.6088   -2.0374 H   0  0  0  0  0  0  0  0  0  0  0  0
    4.5069    1.2438   -2.2231 H   0  0  0  0  0  0  0  0  0  0  0  0
    0.7653   -3.7154    1.9234 H   0  0  0  0  0  0  0  0  0  0  0  0
    4.3137    1.6362    2.0658 H   0  0  0  0  0  0  0  0  0  0  0  0
   -4.0345    3.3260   -1.1154 H   0  0  0  0  0  0  0  0  0  0  0  0
   -4.8173   -0.4328    0.8455 H   0  0  0  0  0  0  0  0  0  0  0  0
   -1.2674   -5.5521    0.3991 H   0  0  0  0  0  0  0  0  0  0  0  0
   -0.2078   -5.7402   -1.0179 H   0  0  0  0  0  0  0  0  0  0  0  0
    0.4852   -5.7836    0.6002 H   0  0  0  0  0  0  0  0  0  0  0  0
    6.3091    2.3717   -0.9635 H   0  0  0  0  0  0  0  0  0  0  0  0
    6.2299    2.5329    0.7881 H   0  0  0  0  0  0  0  0  0  0  0  0
    6.6295    0.9564    0.0663 H   0  0  0  0  0  0  0  0  0  0  0  0
   -6.6639    1.0759    0.1966 H   0  0  0  0  0  0  0  0  0  0  0  0
   -6.3442    2.6111   -0.6043 H   0  0  0  0  0  0  0  0  0  0  0  0
   -6.1975    1.0928   -1.5205 H   0  0  0  0  0  0  0  0  0  0  0  0
  1  2  1  0  0  0  0
  1  3  1  0  0  0  0
  1  4  1  0  0  0  0
  1 24  1  0  0  0  0
  2  5  1  0  0  0  0
  2 25  1  0  0  0  0
  2 26  1  0  0  0  0
  3  6  2  0  0  0  0
  3  8  1  0  0  0  0
  4  7  2  0  0  0  0
  4  9  1  0  0  0  0
  5 10  2  0  0  0  0
  5 11  1  0  0  0  0
  6 12  1  0  0  0  0
  6 27  1  0  0  0  0
  7 13  1  0  0  0  0
  7 28  1  0  0  0  0
  8 14  2  0  0  0  0
  8 29  1  0  0  0  0
  9 15  2  0  0  0  0
  9 30  1  0  0  0  0
 10 18  1  0  0  0  0
 10 31  1  0  0  0  0
 11 19  2  0  0  0  0
 11 32  1  0  0  0  0
 12 16  2  0  0  0  0
 12 33  1  0  0  0  0
 13 17  2  0  0  0  0
 13 34  1  0  0  0  0
 14 16  1  0  0  0  0
 14 35  1  0  0  0  0
 15 17  1  0  0  0  0
 15 36  1  0  0  0  0
 16 21  1  0  0  0  0
 17 22  1  0  0  0  0
 18 20  2  0  0  0  0
 18 37  1  0  0  0  0
 19 20  1  0  0  0  0
 19 38  1  0  0  0  0
 20 23  1  0  0  0  0
 21 39  1  0  0  0  0
 21 40  1  0  0  0  0
 21 41  1  0  0  0  0
 22 42  1  0  0  0  0
 22 43  1  0  0  0  0
 22 44  1  0  0  0  0
 23 45  1  0  0  0  0
 23 46  1  0  0  0  0
 23 47  1  0  0  0  0
M  END
> <PUBCHEM_COMPOUND_CID>
141358

> <PUBCHEM_CONFORMER_RMSD>
0.6

> <PUBCHEM_CONFORMER_DIVERSEORDER>
1
14
6
13
5
11
9
4
7
3
8
2
12
10

> <PUBCHEM_MMFF94_PARTIAL_CHARGES>
35
1 0.29
10 -0.15
11 -0.15
12 -0.15
13 -0.15
14 -0.15
15 -0.15
16 -0.14
17 -0.14
18 -0.15
19 -0.15
2 0.14
20 -0.14
21 0.14
22 0.14
23 0.14
27 0.15
28 0.15
29 0.15
3 -0.14
30 0.15
31 0.15
32 0.15
33 0.15
34 0.15
35 0.15
36 0.15
37 0.15
38 0.15
4 -0.14
5 -0.14
6 -0.15
7 -0.15
8 -0.15
9 -0.15

> <PUBCHEM_EFFECTIVE_ROTOR_COUNT>
4

> <PUBCHEM_PHARMACOPHORE_FEATURES>
3
6 3 6 8 12 14 16 rings
6 4 7 9 13 15 17 rings
6 5 10 11 18 19 20 rings

> <PUBCHEM_HEAVY_ATOM_COUNT>
23

> <PUBCHEM_ATOM_DEF_STEREO_COUNT>
0

> <PUBCHEM_ATOM_UDEF_STEREO_COUNT>
0

> <PUBCHEM_BOND_DEF_STEREO_COUNT>
0

> <PUBCHEM_BOND_UDEF_STEREO_COUNT>
0

> <PUBCHEM_ISOTOPIC_ATOM_COUNT>
0

> <PUBCHEM_COMPONENT_COUNT>
1

> <PUBCHEM_CACTVS_TAUTO_COUNT>
1

> <PUBCHEM_CONFORMER_ID>
0002282E00000001

> <PUBCHEM_MMFF94_ENERGY>
69.4843

> <PUBCHEM_FEATURE_SELFOVERLAP>
15.223

> <PUBCHEM_SHAPE_FINGERPRINT>
10721379 63 17838064710377454489
10764073 3 15143741191817290612
10815517 723 17840600511221251819
11488393 25 17915479211060731775
121448 382 18271240620727050221
12160290 23 17905924652467309010
12236239 1 17531247296675751184
12293681 160 17989489610489415792
12293681 4 17836638991794666711
12532896 13 18341610447168017894
12730499 353 18339089181681363513
12788726 201 17756440613558728630
12839892 36 18336530643381396035
13052359 8 18339363096740133962
13083527 12 17976527330649549331
13149001 5 17844808281436769472
13257819 37 18263946443155294844
133893 2 17977403636895157464
13540713 5 17699286565340284929
13681431 1 17619355307556594698
13911987 19 18410296929955525509
13968360 50 18336538327162375231
14866123 147 18339073904208768362
14955137 171 18051404068518026562
15042514 8 18122072167114618410
15131766 46 14998273875861130524
15849732 13 18040155111372937940
15927050 60 18411418423658471510
16752209 62 18266173022963546962
17539 30 17981604085004454382
1813 80 8286199482815561928
18681886 176 18260550064849752296
19427546 20 18050012392024672972
20197701 30 18409731746607638302
20554085 129 18200294563956789544
20567600 347 18410295774640100783
20600515 1 17110391791607576236
21033648 29 18342166782994091024
21054139 6 18270949237725089669
21344244 181 17632309968409042311
21524375 3 18411705374221819864
21796203 349 17332845680573447611
22149856 69 18118993351160519489
22224240 67 18271818960002032625
22393880 68 18270403759355964461
22956985 138 17973721376865513827
23227448 37 18123472936734460028
23366157 5 17974296413056527857
23558518 356 17829607615156240632
23559900 14 17905881484088289121
23598288 3 17753909499189324738
3729539 64 18053685598374643758
3759504 43 18336829787668965060
404807 78 18116707612383469479
4409770 3 18192995039789195907
44802255 64 18043841816794414998
53917941 68 18340195414352579060
57359948 33 17823411601521004189
59755656 520 18411130355600220884
6138700 20 18050016493771324598
6669772 16 18272093764694475246
6673363 416 17188142193964564558
7364860 26 18123750850939890195
7495541 125 11167644521915705505
77188 2 17329427242444278295
81228 2 17909829073875715090
81539 233 18335702689566421685
8863177 126 11958858612807854813
9709674 26 18048036260470489635
9981440 41 18335426746650143689

> <PUBCHEM_SHAPE_MULTIPOLES>
473.33
9.76
5.01
1.21
0.28
9.72
-0.08
-12.92
-1.01
0.98
-0.29
-0.49
0.11
0.12

> <PUBCHEM_SHAPE_SELFOVERLAP>
1022.572

> <PUBCHEM_SHAPE_VOLUME>
249.7

> <PUBCHEM_COORDINATE_TYPE>
2
5
10

$$$$
