4168115
  -OEChem-10312420322D

 95 94  0     0  0  0  0  0  0999 V2000
    6.3301   -0.5801    0.0000 Si  0  0  0  0  0  0  0  0  0  0  0  0
    7.1962   -0.0801    0.0000 C   0  0  0  0  0  0  0  0  0  0  0  0
    5.4641   -1.0801    0.0000 C   0  0  0  0  0  0  0  0  0  0  0  0
    5.8301    0.2859    0.0000 C   0  0  0  0  0  0  0  0  0  0  0  0
    8.0622   -0.5801    0.0000 C   0  0  0  0  0  0  0  0  0  0  0  0
    5.4641   -2.0801    0.0000 C   0  0  0  0  0  0  0  0  0  0  0  0
    6.3301    1.1519    0.0000 C   0  0  0  0  0  0  0  0  0  0  0  0
    8.9282   -0.0801    0.0000 C   0  0  0  0  0  0  0  0  0  0  0  0
    4.5981   -2.5801    0.0000 C   0  0  0  0  0  0  0  0  0  0  0  0
    5.8301    2.0180    0.0000 C   0  0  0  0  0  0  0  0  0  0  0  0
    9.7942   -0.5801    0.0000 C   0  0  0  0  0  0  0  0  0  0  0  0
    4.5981   -3.5801    0.0000 C   0  0  0  0  0  0  0  0  0  0  0  0
    6.3301    2.8840    0.0000 C   0  0  0  0  0  0  0  0  0  0  0  0
   10.6603   -0.0801    0.0000 C   0  0  0  0  0  0  0  0  0  0  0  0
    3.7320   -4.0801    0.0000 C   0  0  0  0  0  0  0  0  0  0  0  0
    5.8301    3.7500    0.0000 C   0  0  0  0  0  0  0  0  0  0  0  0
   11.5263   -0.5801    0.0000 C   0  0  0  0  0  0  0  0  0  0  0  0
    3.7320   -5.0801    0.0000 C   0  0  0  0  0  0  0  0  0  0  0  0
    6.3301    4.6160    0.0000 C   0  0  0  0  0  0  0  0  0  0  0  0
   12.3923   -0.0801    0.0000 C   0  0  0  0  0  0  0  0  0  0  0  0
    2.8660   -5.5801    0.0000 C   0  0  0  0  0  0  0  0  0  0  0  0
    5.8301    5.4820    0.0000 C   0  0  0  0  0  0  0  0  0  0  0  0
   13.2583   -0.5801    0.0000 C   0  0  0  0  0  0  0  0  0  0  0  0
    2.8660   -6.5801    0.0000 C   0  0  0  0  0  0  0  0  0  0  0  0
    6.3301    6.3481    0.0000 C   0  0  0  0  0  0  0  0  0  0  0  0
   14.1244   -0.0801    0.0000 C   0  0  0  0  0  0  0  0  0  0  0  0
    2.0000   -7.0801    0.0000 C   0  0  0  0  0  0  0  0  0  0  0  0
    5.8301    7.2141    0.0000 C   0  0  0  0  0  0  0  0  0  0  0  0
   14.9904   -0.5801    0.0000 C   0  0  0  0  0  0  0  0  0  0  0  0
    2.0000   -8.0801    0.0000 C   0  0  0  0  0  0  0  0  0  0  0  0
    6.3301    8.0801    0.0000 C   0  0  0  0  0  0  0  0  0  0  0  0
    6.6401   -1.1171    0.0000 H   0  0  0  0  0  0  0  0  0  0  0  0
    7.5947    0.3948    0.0000 H   0  0  0  0  0  0  0  0  0  0  0  0
    6.7976    0.3948    0.0000 H   0  0  0  0  0  0  0  0  0  0  0  0
    5.2520   -0.4975    0.0000 H   0  0  0  0  0  0  0  0  0  0  0  0
    4.8535   -1.1878    0.0000 H   0  0  0  0  0  0  0  0  0  0  0  0
    5.3552    0.6844    0.0000 H   0  0  0  0  0  0  0  0  0  0  0  0
    5.3552   -0.1126    0.0000 H   0  0  0  0  0  0  0  0  0  0  0  0
    7.6636   -1.0551    0.0000 H   0  0  0  0  0  0  0  0  0  0  0  0
    8.4607   -1.0551    0.0000 H   0  0  0  0  0  0  0  0  0  0  0  0
    5.6762   -2.6627    0.0000 H   0  0  0  0  0  0  0  0  0  0  0  0
    6.0747   -1.9725    0.0000 H   0  0  0  0  0  0  0  0  0  0  0  0
    6.8051    0.7534    0.0000 H   0  0  0  0  0  0  0  0  0  0  0  0
    6.8051    1.5505    0.0000 H   0  0  0  0  0  0  0  0  0  0  0  0
    9.3267    0.3948    0.0000 H   0  0  0  0  0  0  0  0  0  0  0  0
    8.5297    0.3948    0.0000 H   0  0  0  0  0  0  0  0  0  0  0  0
    4.3860   -1.9975    0.0000 H   0  0  0  0  0  0  0  0  0  0  0  0
    3.9875   -2.6878    0.0000 H   0  0  0  0  0  0  0  0  0  0  0  0
    5.3552    2.4165    0.0000 H   0  0  0  0  0  0  0  0  0  0  0  0
    5.3552    1.6194    0.0000 H   0  0  0  0  0  0  0  0  0  0  0  0
    9.3957   -1.0551    0.0000 H   0  0  0  0  0  0  0  0  0  0  0  0
   10.1928   -1.0551    0.0000 H   0  0  0  0  0  0  0  0  0  0  0  0
    4.8101   -4.1627    0.0000 H   0  0  0  0  0  0  0  0  0  0  0  0
    5.2087   -3.4725    0.0000 H   0  0  0  0  0  0  0  0  0  0  0  0
    6.8051    2.4854    0.0000 H   0  0  0  0  0  0  0  0  0  0  0  0
    6.8051    3.2825    0.0000 H   0  0  0  0  0  0  0  0  0  0  0  0
   11.0588    0.3948    0.0000 H   0  0  0  0  0  0  0  0  0  0  0  0
   10.2617    0.3948    0.0000 H   0  0  0  0  0  0  0  0  0  0  0  0
    3.5200   -3.4975    0.0000 H   0  0  0  0  0  0  0  0  0  0  0  0
    3.1215   -4.1878    0.0000 H   0  0  0  0  0  0  0  0  0  0  0  0
    5.3552    4.1485    0.0000 H   0  0  0  0  0  0  0  0  0  0  0  0
    5.3552    3.3515    0.0000 H   0  0  0  0  0  0  0  0  0  0  0  0
   11.1278   -1.0551    0.0000 H   0  0  0  0  0  0  0  0  0  0  0  0
   11.9248   -1.0551    0.0000 H   0  0  0  0  0  0  0  0  0  0  0  0
    3.9441   -5.6627    0.0000 H   0  0  0  0  0  0  0  0  0  0  0  0
    4.3426   -4.9725    0.0000 H   0  0  0  0  0  0  0  0  0  0  0  0
    6.8051    4.2175    0.0000 H   0  0  0  0  0  0  0  0  0  0  0  0
    6.8051    5.0146    0.0000 H   0  0  0  0  0  0  0  0  0  0  0  0
   12.7908    0.3948    0.0000 H   0  0  0  0  0  0  0  0  0  0  0  0
   11.9938    0.3948    0.0000 H   0  0  0  0  0  0  0  0  0  0  0  0
    2.6540   -4.9975    0.0000 H   0  0  0  0  0  0  0  0  0  0  0  0
    2.2554   -5.6878    0.0000 H   0  0  0  0  0  0  0  0  0  0  0  0
    5.3552    5.8806    0.0000 H   0  0  0  0  0  0  0  0  0  0  0  0
    5.3552    5.0835    0.0000 H   0  0  0  0  0  0  0  0  0  0  0  0
   12.8598   -1.0551    0.0000 H   0  0  0  0  0  0  0  0  0  0  0  0
   13.6569   -1.0551    0.0000 H   0  0  0  0  0  0  0  0  0  0  0  0
    3.0781   -7.1627    0.0000 H   0  0  0  0  0  0  0  0  0  0  0  0
    3.4766   -6.4725    0.0000 H   0  0  0  0  0  0  0  0  0  0  0  0
    6.8051    5.9496    0.0000 H   0  0  0  0  0  0  0  0  0  0  0  0
    6.8051    6.7466    0.0000 H   0  0  0  0  0  0  0  0  0  0  0  0
   14.5229    0.3948    0.0000 H   0  0  0  0  0  0  0  0  0  0  0  0
   13.7258    0.3948    0.0000 H   0  0  0  0  0  0  0  0  0  0  0  0
    1.7880   -6.4975    0.0000 H   0  0  0  0  0  0  0  0  0  0  0  0
    1.3894   -7.1878    0.0000 H   0  0  0  0  0  0  0  0  0  0  0  0
    5.3552    7.6126    0.0000 H   0  0  0  0  0  0  0  0  0  0  0  0
    5.3552    6.8156    0.0000 H   0  0  0  0  0  0  0  0  0  0  0  0
   14.6804   -1.1171    0.0000 H   0  0  0  0  0  0  0  0  0  0  0  0
   15.5273   -0.8901    0.0000 H   0  0  0  0  0  0  0  0  0  0  0  0
   15.3004   -0.0432    0.0000 H   0  0  0  0  0  0  0  0  0  0  0  0
    1.3800   -8.0801    0.0000 H   0  0  0  0  0  0  0  0  0  0  0  0
    2.0000   -8.7001    0.0000 H   0  0  0  0  0  0  0  0  0  0  0  0
    2.6200   -8.0801    0.0000 H   0  0  0  0  0  0  0  0  0  0  0  0
    6.8671    7.7701    0.0000 H   0  0  0  0  0  0  0  0  0  0  0  0
    6.6401    8.6171    0.0000 H   0  0  0  0  0  0  0  0  0  0  0  0
    5.7932    8.3901    0.0000 H   0  0  0  0  0  0  0  0  0  0  0  0
  1  2  1  0  0  0  0
  1  3  1  0  0  0  0
  1  4  1  0  0  0  0
  1 32  1  0  0  0  0
  2  5  1  0  0  0  0
  2 33  1  0  0  0  0
  2 34  1  0  0  0  0
  3  6  1  0  0  0  0
  3 35  1  0  0  0  0
  3 36  1  0  0  0  0
  4  7  1  0  0  0  0
  4 37  1  0  0  0  0
  4 38  1  0  0  0  0
  5  8  1  0  0  0  0
  5 39  1  0  0  0  0
  5 40  1  0  0  0  0
  6  9  1  0  0  0  0
  6 41  1  0  0  0  0
  6 42  1  0  0  0  0
  7 10  1  0  0  0  0
  7 43  1  0  0  0  0
  7 44  1  0  0  0  0
  8 11  1  0  0  0  0
  8 45  1  0  0  0  0
  8 46  1  0  0  0  0
  9 12  1  0  0  0  0
  9 47  1  0  0  0  0
  9 48  1  0  0  0  0
 10 13  1  0  0  0  0
 10 49  1  0  0  0  0
 10 50  1  0  0  0  0
 11 14  1  0  0  0  0
 11 51  1  0  0  0  0
 11 52  1  0  0  0  0
 12 15  1  0  0  0  0
 12 53  1  0  0  0  0
 12 54  1  0  0  0  0
 13 16  1  0  0  0  0
 13 55  1  0  0  0  0
 13 56  1  0  0  0  0
 14 17  1  0  0  0  0
 14 57  1  0  0  0  0
 14 58  1  0  0  0  0
 15 18  1  0  0  0  0
 15 59  1  0  0  0  0
 15 60  1  0  0  0  0
 16 19  1  0  0  0  0
 16 61  1  0  0  0  0
 16 62  1  0  0  0  0
 17 20  1  0  0  0  0
 17 63  1  0  0  0  0
 17 64  1  0  0  0  0
 18 21  1  0  0  0  0
 18 65  1  0  0  0  0
 18 66  1  0  0  0  0
 19 22  1  0  0  0  0
 19 67  1  0  0  0  0
 19 68  1  0  0  0  0
 20 23  1  0  0  0  0
 20 69  1  0  0  0  0
 20 70  1  0  0  0  0
 21 24  1  0  0  0  0
 21 71  1  0  0  0  0
 21 72  1  0  0  0  0
 22 25  1  0  0  0  0
 22 73  1  0  0  0  0
 22 74  1  0  0  0  0
 23 26  1  0  0  0  0
 23 75  1  0  0  0  0
 23 76  1  0  0  0  0
 24 27  1  0  0  0  0
 24 77  1  0  0  0  0
 24 78  1  0  0  0  0
 25 28  1  0  0  0  0
 25 79  1  0  0  0  0
 25 80  1  0  0  0  0
 26 29  1  0  0  0  0
 26 81  1  0  0  0  0
 26 82  1  0  0  0  0
 27 30  1  0  0  0  0
 27 83  1  0  0  0  0
 27 84  1  0  0  0  0
 28 31  1  0  0  0  0
 28 85  1  0  0  0  0
 28 86  1  0  0  0  0
 29 87  1  0  0  0  0
 29 88  1  0  0  0  0
 29 89  1  0  0  0  0
 30 90  1  0  0  0  0
 30 91  1  0  0  0  0
 30 92  1  0  0  0  0
 31 93  1  0  0  0  0
 31 94  1  0  0  0  0
 31 95  1  0  0  0  0
M  END
> <PUBCHEM_COMPOUND_CID>
4168115

> <PUBCHEM_COMPOUND_CANONICALIZED>
1

> <PUBCHEM_CACTVS_COMPLEXITY>
253

> <PUBCHEM_CACTVS_HBOND_ACCEPTOR>
0

> <PUBCHEM_CACTVS_HBOND_DONOR>
0

> <PUBCHEM_CACTVS_ROTATABLE_BOND>
27

> <PUBCHEM_CACTVS_SUBSKEYS>
AAADcfB4AAgAAAAAAAAAAAAAAAAAAAAAAAAAAAAAAAAAAAAAAAAAGBAAAACACACAIABCAAAAAAEAAAAAAAAAAAAAAAAAAAAAAAAAAAIAAAAAAAAAAAAAAAEAgIAAAAAAAAAAAAAAAAAAAAAAAAAAAAAAAA==

> <PUBCHEM_IUPAC_OPENEYE_NAME>
tris-decylsilane

> <PUBCHEM_IUPAC_CAS_NAME>
tris-decylsilane

> <PUBCHEM_IUPAC_NAME_MARKUP>
tris-decylsilane

> <PUBCHEM_IUPAC_NAME>
tris-decylsilane

> <PUBCHEM_IUPAC_SYSTEMATIC_NAME>
tris-decylsilane

> <PUBCHEM_IUPAC_TRADITIONAL_NAME>
tris-decylsilane

> <PUBCHEM_IUPAC_INCHI>
InChI=1S/C30H64Si/c1-4-7-10-13-16-19-22-25-28-31(29-26-23-20-17-14-11-8-5-2)30-27-24-21-18-15-12-9-6-3/h31H,4-30H2,1-3H3

> <PUBCHEM_IUPAC_INCHIKEY>
UBOKAQVLIKXDOL-UHFFFAOYSA-N

> <PUBCHEM_EXACT_MASS>
452.47772858

> <PUBCHEM_MOLECULAR_FORMULA>
C30H64Si

> <PUBCHEM_MOLECULAR_WEIGHT>
452.9

> <PUBCHEM_OPENEYE_CAN_SMILES>
CCCCCCCCCC[SiH](CCCCCCCCCC)CCCCCCCCCC

> <PUBCHEM_OPENEYE_ISO_SMILES>
CCCCCCCCCC[SiH](CCCCCCCCCC)CCCCCCCCCC

> <PUBCHEM_CACTVS_TPSA>
0

> <PUBCHEM_MONOISOTOPIC_WEIGHT>
452.47772858

> <PUBCHEM_TOTAL_CHARGE>
0

> <PUBCHEM_HEAVY_ATOM_COUNT>
31

> <PUBCHEM_ATOM_DEF_STEREO_COUNT>
0

> <PUBCHEM_ATOM_UDEF_STEREO_COUNT>
0

> <PUBCHEM_BOND_DEF_STEREO_COUNT>
0

> <PUBCHEM_BOND_UDEF_STEREO_COUNT>
0

> <PUBCHEM_ISOTOPIC_ATOM_COUNT>
0

> <PUBCHEM_COMPONENT_COUNT>
1

> <PUBCHEM_CACTVS_TAUTO_COUNT>
-1

> <PUBCHEM_COORDINATE_TYPE>
1
5
255

$$$$
