3870337
  -OEChem-11012401233D

 15 15  0     0  0  0  0  0  0999 V2000
    3.4001    0.6986   -0.0609 O   0  5  0  0  0  0  0  0  0  0  0  0
    2.2112   -1.1516    0.0232 O   0  0  0  0  0  0  0  0  0  0  0  0
   -1.6781   -1.1112   -0.0179 N   0  0  0  0  0  0  0  0  0  0  0  0
   -1.1867    1.0178    0.0198 N   0  0  0  0  0  0  0  0  0  0  0  0
   -0.3367   -1.1059    0.0054 N   0  0  0  0  0  0  0  0  0  0  0  0
    1.1416    0.7796    0.0575 N   0  0  0  0  0  0  0  0  0  0  0  0
    2.3330    0.0775   -0.0165 N   0  3  0  0  0  0  0  0  0  0  0  0
   -2.1755    0.1547   -0.0090 C   0  0  0  0  0  0  0  0  0  0  0  0
   -0.0891    0.2054    0.0280 C   0  0  0  0  0  0  0  0  0  0  0  0
   -3.6199    0.4349   -0.0295 C   0  0  0  0  0  0  0  0  0  0  0  0
   -2.1699   -1.9968   -0.0386 H   0  0  0  0  0  0  0  0  0  0  0  0
   -4.0828    0.0221   -0.9313 H   0  0  0  0  0  0  0  0  0  0  0  0
   -4.1127   -0.0021    0.8446 H   0  0  0  0  0  0  0  0  0  0  0  0
   -3.8049    1.5135   -0.0180 H   0  0  0  0  0  0  0  0  0  0  0  0
    1.1688    1.7974    0.0815 H   0  0  0  0  0  0  0  0  0  0  0  0
  1  7  1  0  0  0  0
  2  7  2  0  0  0  0
  3  5  1  0  0  0  0
  3  8  1  0  0  0  0
  3 11  1  0  0  0  0
  4  8  2  0  0  0  0
  4  9  1  0  0  0  0
  5  9  2  0  0  0  0
  6  7  1  0  0  0  0
  6  9  1  0  0  0  0
  6 15  1  0  0  0  0
  8 10  1  0  0  0  0
 10 12  1  0  0  0  0
 10 13  1  0  0  0  0
 10 14  1  0  0  0  0
M  CHG  2   1  -1   7   1
M  END
> <PUBCHEM_COMPOUND_CID>
3870337

> <PUBCHEM_CONFORMER_RMSD>
0.4

> <PUBCHEM_CONFORMER_DIVERSEORDER>
1
8
13
9
5
16
4
12
15
2
7
10
11
3
14
6

> <PUBCHEM_MMFF94_PARTIAL_CHARGES>
12
1 -0.52
10 0.18
11 0.27
15 0.4
2 -0.52
3 0.3
4 -0.57
5 -0.71
6 -0.49
7 1.04
8 0.01
9 0.6

> <PUBCHEM_EFFECTIVE_ROTOR_COUNT>
2

> <PUBCHEM_PHARMACOPHORE_FEATURES>
6
1 1 acceptor
1 2 acceptor
1 3 donor
1 6 donor
4 4 5 6 9 cation
5 3 4 5 8 9 rings

> <PUBCHEM_HEAVY_ATOM_COUNT>
10

> <PUBCHEM_ATOM_DEF_STEREO_COUNT>
0

> <PUBCHEM_ATOM_UDEF_STEREO_COUNT>
0

> <PUBCHEM_BOND_DEF_STEREO_COUNT>
0

> <PUBCHEM_BOND_UDEF_STEREO_COUNT>
0

> <PUBCHEM_ISOTOPIC_ATOM_COUNT>
0

> <PUBCHEM_COMPONENT_COUNT>
1

> <PUBCHEM_CACTVS_TAUTO_COUNT>
5

> <PUBCHEM_CONFORMER_ID>
003B0E8100000001

> <PUBCHEM_MMFF94_ENERGY>
14.8934

> <PUBCHEM_FEATURE_SELFOVERLAP>
30.526

> <PUBCHEM_SHAPE_FINGERPRINT>
11062470 55 17561363984842413521
12932764 1 16917057850309031065
14325111 11 18410573963972104705
14390081 3 18343299284011556552
23235685 24 18411132537121749341
23402655 69 18196072363094093997
23552423 10 18189334730766364886
29004967 10 15574432111356912944
369184 2 18342174466431015771
5460574 1 9223232944407557576

> <PUBCHEM_SHAPE_MULTIPOLES>
169.15
5.13
1.11
0.55
0.58
0.21
0
-0.84
0.11
0.1
0
-0.08
-0.01
-0.01

> <PUBCHEM_SHAPE_SELFOVERLAP>
347.577

> <PUBCHEM_SHAPE_VOLUME>
98.5

> <PUBCHEM_COORDINATE_TYPE>
2
5
10

$$$$
