137006
  -OEChem-11012401003D

 38 38  0     1  0  0  0  0  0999 V2000
    0.0258   -2.6858   -0.9555 O   0  0  0  0  0  0  0  0  0  0  0  0
   -0.0258    2.6856   -0.9557 O   0  0  0  0  0  0  0  0  0  0  0  0
   -1.1383   -0.7126   -0.9952 N   0  0  0  0  0  0  0  0  0  0  0  0
    1.1383    0.7124   -0.9955 N   0  0  0  0  0  0  0  0  0  0  0  0
   -1.2735    0.6703   -0.5772 C   0  0  1  0  0  0  0  0  0  0  0  0
    1.2735   -0.6705   -0.5772 C   0  0  1  0  0  0  0  0  0  0  0  0
   -1.7054    0.8022    0.8740 C   0  0  0  0  0  0  0  0  0  0  0  0
    1.7053   -0.8020    0.8740 C   0  0  0  0  0  0  0  0  0  0  0  0
   -3.0253    0.0775    1.1936 C   0  0  0  0  0  0  0  0  0  0  0  0
    3.0253   -0.0772    1.1936 C   0  0  0  0  0  0  0  0  0  0  0  0
    0.0140   -1.4569   -0.8816 C   0  0  0  0  0  0  0  0  0  0  0  0
   -0.0140    1.4568   -0.8817 C   0  0  0  0  0  0  0  0  0  0  0  0
   -4.1814    0.5601    0.3165 C   0  0  0  0  0  0  0  0  0  0  0  0
   -2.8444   -1.4330    1.0257 C   0  0  0  0  0  0  0  0  0  0  0  0
    4.1814   -0.5601    0.3168 C   0  0  0  0  0  0  0  0  0  0  0  0
    2.8445    1.4332    1.0254 C   0  0  0  0  0  0  0  0  0  0  0  0
   -2.0394    1.0958   -1.2363 H   0  0  0  0  0  0  0  0  0  0  0  0
    2.0394   -1.0961   -1.2362 H   0  0  0  0  0  0  0  0  0  0  0  0
   -0.9308    0.4418    1.5551 H   0  0  0  0  0  0  0  0  0  0  0  0
   -1.8262    1.8675    1.1123 H   0  0  0  0  0  0  0  0  0  0  0  0
    0.9306   -0.4414    1.5551 H   0  0  0  0  0  0  0  0  0  0  0  0
    1.8260   -1.8672    1.1127 H   0  0  0  0  0  0  0  0  0  0  0  0
   -3.2694    0.2865    2.2428 H   0  0  0  0  0  0  0  0  0  0  0  0
    3.2692   -0.2861    2.2429 H   0  0  0  0  0  0  0  0  0  0  0  0
   -1.9642   -1.1870   -1.3414 H   0  0  0  0  0  0  0  0  0  0  0  0
    1.9642    1.1868   -1.3419 H   0  0  0  0  0  0  0  0  0  0  0  0
   -4.0637    0.2737   -0.7330 H   0  0  0  0  0  0  0  0  0  0  0  0
   -4.2786    1.6496    0.3669 H   0  0  0  0  0  0  0  0  0  0  0  0
   -5.1250    0.1264    0.6661 H   0  0  0  0  0  0  0  0  0  0  0  0
   -3.1230   -1.8151    0.0417 H   0  0  0  0  0  0  0  0  0  0  0  0
   -3.5416   -1.9332    1.7115 H   0  0  0  0  0  0  0  0  0  0  0  0
   -1.8484   -1.7792    1.3180 H   0  0  0  0  0  0  0  0  0  0  0  0
    4.2785   -1.6496    0.3675 H   0  0  0  0  0  0  0  0  0  0  0  0
    5.1249   -0.1264    0.6664 H   0  0  0  0  0  0  0  0  0  0  0  0
    4.0637   -0.2739   -0.7328 H   0  0  0  0  0  0  0  0  0  0  0  0
    3.5417    1.9336    1.7111 H   0  0  0  0  0  0  0  0  0  0  0  0
    1.8485    1.7796    1.3177 H   0  0  0  0  0  0  0  0  0  0  0  0
    3.1231    1.8152    0.0413 H   0  0  0  0  0  0  0  0  0  0  0  0
  1 11  2  0  0  0  0
  2 12  2  0  0  0  0
  3  5  1  0  0  0  0
  3 11  1  0  0  0  0
  3 25  1  0  0  0  0
  4  6  1  0  0  0  0
  4 12  1  0  0  0  0
  4 26  1  0  0  0  0
  5  7  1  0  0  0  0
  5 12  1  0  0  0  0
  5 17  1  0  0  0  0
  6  8  1  0  0  0  0
  6 11  1  0  0  0  0
  6 18  1  0  0  0  0
  7  9  1  0  0  0  0
  7 19  1  0  0  0  0
  7 20  1  0  0  0  0
  8 10  1  0  0  0  0
  8 21  1  0  0  0  0
  8 22  1  0  0  0  0
  9 13  1  0  0  0  0
  9 14  1  0  0  0  0
  9 23  1  0  0  0  0
 10 15  1  0  0  0  0
 10 16  1  0  0  0  0
 10 24  1  0  0  0  0
 13 27  1  0  0  0  0
 13 28  1  0  0  0  0
 13 29  1  0  0  0  0
 14 30  1  0  0  0  0
 14 31  1  0  0  0  0
 14 32  1  0  0  0  0
 15 33  1  0  0  0  0
 15 34  1  0  0  0  0
 15 35  1  0  0  0  0
 16 36  1  0  0  0  0
 16 37  1  0  0  0  0
 16 38  1  0  0  0  0
M  END
> <PUBCHEM_COMPOUND_CID>
137006

> <PUBCHEM_CONFORMER_RMSD>
0.6

> <PUBCHEM_CONFORMER_DIVERSEORDER>
1
7
18
10
8
6
15
9
16
11
17
3
12
13
2
4
14
5

> <PUBCHEM_MMFF94_PARTIAL_CHARGES>
10
1 -0.57
11 0.57
12 0.57
2 -0.57
25 0.37
26 0.37
3 -0.73
4 -0.73
5 0.36
6 0.36

> <PUBCHEM_EFFECTIVE_ROTOR_COUNT>
4.8

> <PUBCHEM_PHARMACOPHORE_FEATURES>
7
1 1 acceptor
1 2 acceptor
1 3 donor
1 4 donor
3 10 15 16 hydrophobe
3 9 13 14 hydrophobe
6 3 4 5 6 11 12 rings

> <PUBCHEM_HEAVY_ATOM_COUNT>
16

> <PUBCHEM_ATOM_DEF_STEREO_COUNT>
0

> <PUBCHEM_ATOM_UDEF_STEREO_COUNT>
2

> <PUBCHEM_BOND_DEF_STEREO_COUNT>
0

> <PUBCHEM_BOND_UDEF_STEREO_COUNT>
0

> <PUBCHEM_ISOTOPIC_ATOM_COUNT>
0

> <PUBCHEM_COMPONENT_COUNT>
1

> <PUBCHEM_CACTVS_TAUTO_COUNT>
3

> <PUBCHEM_CONFORMER_ID>
0002172E00000001

> <PUBCHEM_MMFF94_ENERGY>
59.1481

> <PUBCHEM_FEATURE_SELFOVERLAP>
35.528

> <PUBCHEM_SHAPE_FINGERPRINT>
10610426 29 15719385165815873745
11132069 177 18410297999343612787
11680611 10 18048329034847169247
12011746 2 18410573937906810925
12251169 10 18410293601117532969
12382932 28 18335426746597194379
124424 183 17603304847821398229
12491281 212 14117526449581244739
12633257 1 17834394518846178208
13172582 1 18410574015216222445
14178342 30 18269014041372985411
14943859 89 15051725391719312026
15309172 13 18271233942042498098
15375462 189 17022904549059764482
15375462 478 18040434360954832084
15775835 57 15913322468499329475
16945 1 18412263904458572005
17834072 14 18334007281676283565
17844478 74 18335134255203579112
18175812 5 18410856555350097297
200 152 12324237252966082514
20653085 51 14261058939554776586
20671657 53 14345798227619364122
20871998 184 18263636277871165972
21524375 3 17131829858851371498
22112679 90 18267304424770702446
22959321 45 18338795731966403904
231179 274 16343426098474358729
232386 152 17313399923649773763
23402539 116 18260540101200177021
23526113 38 16754653089538145119
24859131 72 18335981961056312587
2748010 2 18050567335319700143
3250762 1 17545882629063049423
568465 68 18271817825545103859
81228 2 17910643756611412014

> <PUBCHEM_SHAPE_MULTIPOLES>
307.57
5.98
2.08
1.37
0
0
-0.07
0
-3.05
0
0.7
0
0
0.28

> <PUBCHEM_SHAPE_SELFOVERLAP>
609.365

> <PUBCHEM_SHAPE_VOLUME>
182.5

> <PUBCHEM_COORDINATE_TYPE>
2
5
10

$$$$
