137296
  -OEChem-11012400453D

 36 35  0     0  0  0  0  0  0999 V2000
   -2.5127    0.3736   -1.3442 O   0  0  0  0  0  0  0  0  0  0  0  0
    2.5309    0.3435    1.3270 O   0  0  0  0  0  0  0  0  0  0  0  0
   -2.0723    0.0207   -0.0327 C   0  0  0  0  0  0  0  0  0  0  0  0
    2.0803   -0.0075    0.0126 C   0  0  0  0  0  0  0  0  0  0  0  0
   -2.6190    1.0567    0.9754 C   0  0  0  0  0  0  0  0  0  0  0  0
   -2.6216   -1.3802    0.3200 C   0  0  0  0  0  0  0  0  0  0  0  0
    2.6508    1.0317   -0.9747 C   0  0  0  0  0  0  0  0  0  0  0  0
    2.6117   -1.4287   -0.2809 C   0  0  0  0  0  0  0  0  0  0  0  0
   -0.5972    0.0136   -0.0134 C   0  0  0  0  0  0  0  0  0  0  0  0
    0.6041    0.0057   -0.0018 C   0  0  0  0  0  0  0  0  0  0  0  0
   -2.1797    2.4933    0.7017 C   0  0  0  0  0  0  0  0  0  0  0  0
   -2.2395   -2.4744   -0.6742 C   0  0  0  0  0  0  0  0  0  0  0  0
    2.2375    2.4727   -0.6794 C   0  0  0  0  0  0  0  0  0  0  0  0
    2.1268   -2.5209    0.6646 C   0  0  0  0  0  0  0  0  0  0  0  0
   -3.7163    1.0409    0.9491 H   0  0  0  0  0  0  0  0  0  0  0  0
   -2.3173    0.7877    1.9957 H   0  0  0  0  0  0  0  0  0  0  0  0
   -2.2825   -1.6793    1.3202 H   0  0  0  0  0  0  0  0  0  0  0  0
   -3.7182   -1.3401    0.3510 H   0  0  0  0  0  0  0  0  0  0  0  0
    3.7473    0.9921   -0.9466 H   0  0  0  0  0  0  0  0  0  0  0  0
    2.3448    0.7819   -1.9985 H   0  0  0  0  0  0  0  0  0  0  0  0
    3.7082   -1.4139   -0.2281 H   0  0  0  0  0  0  0  0  0  0  0  0
    2.3458   -1.7173   -1.3061 H   0  0  0  0  0  0  0  0  0  0  0  0
   -1.0969    2.6111    0.8031 H   0  0  0  0  0  0  0  0  0  0  0  0
   -2.4717    2.8153   -0.3025 H   0  0  0  0  0  0  0  0  0  0  0  0
   -2.6535    3.1700    1.4205 H   0  0  0  0  0  0  0  0  0  0  0  0
   -2.6889   -3.4257   -0.3709 H   0  0  0  0  0  0  0  0  0  0  0  0
   -2.6005   -2.2415   -1.6808 H   0  0  0  0  0  0  0  0  0  0  0  0
   -1.1565   -2.6197   -0.7205 H   0  0  0  0  0  0  0  0  0  0  0  0
    2.6747    3.1411   -1.4288 H   0  0  0  0  0  0  0  0  0  0  0  0
    2.5948    2.8034    0.3003 H   0  0  0  0  0  0  0  0  0  0  0  0
    1.1521    2.6020   -0.7182 H   0  0  0  0  0  0  0  0  0  0  0  0
    2.5977   -3.4747    0.4052 H   0  0  0  0  0  0  0  0  0  0  0  0
    2.3861   -2.2918    1.7029 H   0  0  0  0  0  0  0  0  0  0  0  0
    1.0439   -2.6604    0.6020 H   0  0  0  0  0  0  0  0  0  0  0  0
   -3.4852    0.3732   -1.3435 H   0  0  0  0  0  0  0  0  0  0  0  0
    2.0650    1.1473    1.6132 H   0  0  0  0  0  0  0  0  0  0  0  0
  1  3  1  0  0  0  0
  1 35  1  0  0  0  0
  2  4  1  0  0  0  0
  2 36  1  0  0  0  0
  3  5  1  0  0  0  0
  3  6  1  0  0  0  0
  3  9  1  0  0  0  0
  4  7  1  0  0  0  0
  4  8  1  0  0  0  0
  4 10  1  0  0  0  0
  5 11  1  0  0  0  0
  5 15  1  0  0  0  0
  5 16  1  0  0  0  0
  6 12  1  0  0  0  0
  6 17  1  0  0  0  0
  6 18  1  0  0  0  0
  7 13  1  0  0  0  0
  7 19  1  0  0  0  0
  7 20  1  0  0  0  0
  8 14  1  0  0  0  0
  8 21  1  0  0  0  0
  8 22  1  0  0  0  0
  9 10  3  0  0  0  0
 11 23  1  0  0  0  0
 11 24  1  0  0  0  0
 11 25  1  0  0  0  0
 12 26  1  0  0  0  0
 12 27  1  0  0  0  0
 12 28  1  0  0  0  0
 13 29  1  0  0  0  0
 13 30  1  0  0  0  0
 13 31  1  0  0  0  0
 14 32  1  0  0  0  0
 14 33  1  0  0  0  0
 14 34  1  0  0  0  0
M  END
> <PUBCHEM_COMPOUND_CID>
137296

> <PUBCHEM_CONFORMER_RMSD>
0.6

> <PUBCHEM_CONFORMER_DIVERSEORDER>
1
9
10
12
11
7
5
6
3
8
2
4

> <PUBCHEM_MMFF94_PARTIAL_CHARGES>
8
1 -0.68
10 -0.2
2 -0.68
3 0.48
35 0.4
36 0.4
4 0.48
9 -0.2

> <PUBCHEM_EFFECTIVE_ROTOR_COUNT>
4

> <PUBCHEM_PHARMACOPHORE_FEATURES>
8
1 1 acceptor
1 1 donor
1 11 hydrophobe
1 12 hydrophobe
1 13 hydrophobe
1 14 hydrophobe
1 2 acceptor
1 2 donor

> <PUBCHEM_HEAVY_ATOM_COUNT>
14

> <PUBCHEM_ATOM_DEF_STEREO_COUNT>
0

> <PUBCHEM_ATOM_UDEF_STEREO_COUNT>
0

> <PUBCHEM_BOND_DEF_STEREO_COUNT>
0

> <PUBCHEM_BOND_UDEF_STEREO_COUNT>
0

> <PUBCHEM_ISOTOPIC_ATOM_COUNT>
0

> <PUBCHEM_COMPONENT_COUNT>
1

> <PUBCHEM_CACTVS_TAUTO_COUNT>
1

> <PUBCHEM_CONFORMER_ID>
0002185000000001

> <PUBCHEM_MMFF94_ENERGY>
14.4468

> <PUBCHEM_FEATURE_SELFOVERLAP>
40.598

> <PUBCHEM_SHAPE_FINGERPRINT>
12500047 106 18198617744431335168
12553582 1 17982450704969095975
12932764 1 18410866455244452551
14144814 61 18339362946358035626
14178342 30 18410564068314941610
14965852 173 18341896247071488778
15279307 12 18410867559051352935
15279308 51 18337671901822458246
15442244 35 18265901246128186688
16945 1 18410572881344921024
19973954 147 18410859858180226984
20082192 1 18114728378580873931
20559304 39 18410298003649233576
20645476 183 18269289983999327593
20671657 1 18337403642744895532
21501502 16 18410863161015293899
21524375 3 17608658541773168132
22094290 62 18193283978980976801
23552423 10 18408605872270386098
23557571 272 17917706963040724961
23598291 2 18337399253135364518
25610 137 18122353642396822689
2748010 2 16969141436870325903
3248919 1 18410567388081690980
58051976 100 18335428924188071191
58051976 378 18268432510974309982
6992083 37 18121501254280923472
7364860 26 18410015442372532804
74978 22 18337111163755829061
7832392 63 18337964376405846092
8030462 33 18273492381580126541
9939556 21 18338241470283325514

> <PUBCHEM_SHAPE_MULTIPOLES>
276.37
5.47
2.92
1.08
0.01
0.19
0
-0.07
0.03
0.01
-0.03
-0.02
-0.13
-1.22

> <PUBCHEM_SHAPE_SELFOVERLAP>
521.94

> <PUBCHEM_SHAPE_VOLUME>
171.4

> <PUBCHEM_COORDINATE_TYPE>
2
5
10

$$$$
