267670
  -OEChem-11012401163D

 29 28  0     0  0  0  0  0  0999 V2000
   -0.0001    1.1109    0.0000 Si  0  0  0  0  0  0  0  0  0  0  0  0
   -1.3920    0.0284    0.6379 C   0  0  0  0  0  0  0  0  0  0  0  0
    1.3920    0.0284   -0.6379 C   0  0  0  0  0  0  0  0  0  0  0  0
    0.6383    2.1935    1.3919 C   0  0  0  0  0  0  0  0  0  0  0  0
   -0.6380    2.1938   -1.3918 C   0  0  0  0  0  0  0  0  0  0  0  0
   -1.9757   -0.9569   -0.3787 C   0  0  0  0  0  0  0  0  0  0  0  0
    1.9757   -0.9571    0.3786 C   0  0  0  0  0  0  0  0  0  0  0  0
   -3.0625   -1.8205    0.2443 C   0  0  0  0  0  0  0  0  0  0  0  0
    3.0624   -1.8206   -0.2444 C   0  0  0  0  0  0  0  0  0  0  0  0
   -2.1931    0.6812    1.0055 H   0  0  0  0  0  0  0  0  0  0  0  0
   -1.0225   -0.5280    1.5075 H   0  0  0  0  0  0  0  0  0  0  0  0
    2.1931    0.6812   -1.0054 H   0  0  0  0  0  0  0  0  0  0  0  0
    1.0225   -0.5280   -1.5076 H   0  0  0  0  0  0  0  0  0  0  0  0
    0.9879    1.5838    2.2302 H   0  0  0  0  0  0  0  0  0  0  0  0
    1.4715    2.8135    1.0480 H   0  0  0  0  0  0  0  0  0  0  0  0
   -0.1520    2.8554    1.7584 H   0  0  0  0  0  0  0  0  0  0  0  0
   -1.4711    2.8139   -1.0479 H   0  0  0  0  0  0  0  0  0  0  0  0
    0.1525    2.8556   -1.7581 H   0  0  0  0  0  0  0  0  0  0  0  0
   -0.9877    1.5843   -2.2301 H   0  0  0  0  0  0  0  0  0  0  0  0
   -2.3978   -0.4161   -1.2344 H   0  0  0  0  0  0  0  0  0  0  0  0
   -1.1901   -1.6131   -0.7720 H   0  0  0  0  0  0  0  0  0  0  0  0
    2.3978   -0.4164    1.2344 H   0  0  0  0  0  0  0  0  0  0  0  0
    1.1899   -1.6133    0.7719 H   0  0  0  0  0  0  0  0  0  0  0  0
   -3.4673   -2.5147   -0.4988 H   0  0  0  0  0  0  0  0  0  0  0  0
   -2.6664   -2.4087    1.0782 H   0  0  0  0  0  0  0  0  0  0  0  0
   -3.8866   -1.2044    0.6181 H   0  0  0  0  0  0  0  0  0  0  0  0
    3.4670   -2.5150    0.4986 H   0  0  0  0  0  0  0  0  0  0  0  0
    2.6662   -2.4088   -1.0782 H   0  0  0  0  0  0  0  0  0  0  0  0
    3.8864   -1.2046   -0.6181 H   0  0  0  0  0  0  0  0  0  0  0  0
  1  2  1  0  0  0  0
  1  3  1  0  0  0  0
  1  4  1  0  0  0  0
  1  5  1  0  0  0  0
  2  6  1  0  0  0  0
  2 10  1  0  0  0  0
  2 11  1  0  0  0  0
  3  7  1  0  0  0  0
  3 12  1  0  0  0  0
  3 13  1  0  0  0  0
  4 14  1  0  0  0  0
  4 15  1  0  0  0  0
  4 16  1  0  0  0  0
  5 17  1  0  0  0  0
  5 18  1  0  0  0  0
  5 19  1  0  0  0  0
  6  8  1  0  0  0  0
  6 20  1  0  0  0  0
  6 21  1  0  0  0  0
  7  9  1  0  0  0  0
  7 22  1  0  0  0  0
  7 23  1  0  0  0  0
  8 24  1  0  0  0  0
  8 25  1  0  0  0  0
  8 26  1  0  0  0  0
  9 27  1  0  0  0  0
  9 28  1  0  0  0  0
  9 29  1  0  0  0  0
M  END
> <PUBCHEM_COMPOUND_CID>
267670

> <PUBCHEM_CONFORMER_RMSD>
0.6

> <PUBCHEM_CONFORMER_DIVERSEORDER>
1
4
14
18
10
16
13
17
15
2
19
7
9
3
8
5
12
6
11

> <PUBCHEM_MMFF94_PARTIAL_CHARGES>
5
1 0.32
2 -0.08
3 -0.08
4 -0.08
5 -0.08

> <PUBCHEM_EFFECTIVE_ROTOR_COUNT>
4

> <PUBCHEM_PHARMACOPHORE_FEATURES>
2
1 8 hydrophobe
1 9 hydrophobe

> <PUBCHEM_HEAVY_ATOM_COUNT>
9

> <PUBCHEM_ATOM_DEF_STEREO_COUNT>
0

> <PUBCHEM_ATOM_UDEF_STEREO_COUNT>
0

> <PUBCHEM_BOND_DEF_STEREO_COUNT>
0

> <PUBCHEM_BOND_UDEF_STEREO_COUNT>
0

> <PUBCHEM_ISOTOPIC_ATOM_COUNT>
0

> <PUBCHEM_COMPONENT_COUNT>
1

> <PUBCHEM_CACTVS_TAUTO_COUNT>
1

> <PUBCHEM_CONFORMER_ID>
0004159600000001

> <PUBCHEM_MMFF94_ENERGY>
-3.388

> <PUBCHEM_FEATURE_SELFOVERLAP>
10.149

> <PUBCHEM_SHAPE_FINGERPRINT>
13024252 1 14709779375730786516
14128692 85 18334023774034137326
14817 1 17484832349063152517
20653091 64 18127707121367729529
20711978 78 18057586853848716149
20711985 344 18042393652020933729
21061003 4 17917985066784508938
23418878 81 17029118091126768149
23552423 10 17977112571794602919
23552449 11 18059015128248658763
241688 4 18260828198267345817
3250762 1 18338779170103687620
528862 383 17700970200186539481

> <PUBCHEM_SHAPE_MULTIPOLES>
203.43
3.84
2.73
1.19
0
0.57
0
-4.27
0
0
0
0
0.82
0.52

> <PUBCHEM_SHAPE_SELFOVERLAP>
342.477

> <PUBCHEM_SHAPE_VOLUME>
138.1

> <PUBCHEM_COORDINATE_TYPE>
2
5
10

$$$$
