97417
  -OEChem-11012401153D

 26 25  0     1  0  0  0  0  0999 V2000
   -1.3609   -1.9596    0.8956 O   0  0  0  0  0  0  0  0  0  0  0  0
   -2.7921   -1.3565   -0.7417 O   0  0  0  0  0  0  0  0  0  0  0  0
    1.8672   -0.3825   -1.4121 O   0  0  0  0  0  0  0  0  0  0  0  0
    0.4015   -0.0956    0.3665 N   0  0  0  0  0  0  0  0  0  0  0  0
    3.9906    0.0799    0.2664 N   0  0  0  0  0  0  0  0  0  0  0  0
   -1.4517    1.4032   -0.1760 C   0  0  0  0  0  0  0  0  0  0  0  0
   -0.8158    0.0151   -0.4048 C   0  0  2  0  0  0  0  0  0  0  0  0
   -0.5006    2.5442   -0.5473 C   0  0  0  0  0  0  0  0  0  0  0  0
   -1.9809    1.5970    1.2484 C   0  0  0  0  0  0  0  0  0  0  0  0
   -1.7486   -1.1607   -0.1289 C   0  0  0  0  0  0  0  0  0  0  0  0
    1.6507   -0.2866   -0.2061 C   0  0  0  0  0  0  0  0  0  0  0  0
    2.7407   -0.3980    0.8400 C   0  0  0  0  0  0  0  0  0  0  0  0
   -2.3208    1.4740   -0.8445 H   0  0  0  0  0  0  0  0  0  0  0  0
   -0.5504   -0.0750   -1.4659 H   0  0  0  0  0  0  0  0  0  0  0  0
   -1.0220    3.5067   -0.5058 H   0  0  0  0  0  0  0  0  0  0  0  0
   -0.1191    2.4172   -1.5659 H   0  0  0  0  0  0  0  0  0  0  0  0
    0.3541    2.6021    0.1346 H   0  0  0  0  0  0  0  0  0  0  0  0
   -1.1739    1.5692    1.9877 H   0  0  0  0  0  0  0  0  0  0  0  0
   -2.4822    2.5667    1.3418 H   0  0  0  0  0  0  0  0  0  0  0  0
   -2.7112    0.8252    1.5109 H   0  0  0  0  0  0  0  0  0  0  0  0
    0.3200   -0.0944    1.3791 H   0  0  0  0  0  0  0  0  0  0  0  0
    2.8294   -1.4450    1.1458 H   0  0  0  0  0  0  0  0  0  0  0  0
    2.4918    0.2064    1.7178 H   0  0  0  0  0  0  0  0  0  0  0  0
   -1.9994   -2.6870    1.0548 H   0  0  0  0  0  0  0  0  0  0  0  0
    4.2647   -0.5239   -0.5080 H   0  0  0  0  0  0  0  0  0  0  0  0
    4.7321   -0.0006    0.9611 H   0  0  0  0  0  0  0  0  0  0  0  0
  1 10  1  0  0  0  0
  1 24  1  0  0  0  0
  2 10  2  0  0  0  0
  3 11  2  0  0  0  0
  4  7  1  0  0  0  0
  4 11  1  0  0  0  0
  4 21  1  0  0  0  0
  5 12  1  0  0  0  0
  5 25  1  0  0  0  0
  5 26  1  0  0  0  0
  6  7  1  0  0  0  0
  6  8  1  0  0  0  0
  6  9  1  0  0  0  0
  6 13  1  0  0  0  0
  7 10  1  0  0  0  0
  7 14  1  0  0  0  0
  8 15  1  0  0  0  0
  8 16  1  0  0  0  0
  8 17  1  0  0  0  0
  9 18  1  0  0  0  0
  9 19  1  0  0  0  0
  9 20  1  0  0  0  0
 11 12  1  0  0  0  0
 12 22  1  0  0  0  0
 12 23  1  0  0  0  0
M  END
> <PUBCHEM_COMPOUND_CID>
97417

> <PUBCHEM_CONFORMER_RMSD>
0.6

> <PUBCHEM_CONFORMER_DIVERSEORDER>
2
30
31
10
27
26
22
18
16
28
29
25
21
8
3
17
19
7
24
23
9
1
11
13
12
5
20
14
6
15
4

> <PUBCHEM_MMFF94_PARTIAL_CHARGES>
13
1 -0.65
10 0.66
11 0.57
12 0.33
2 -0.57
21 0.37
24 0.5
25 0.36
26 0.36
3 -0.57
4 -0.73
5 -0.99
7 0.36

> <PUBCHEM_EFFECTIVE_ROTOR_COUNT>
5

> <PUBCHEM_PHARMACOPHORE_FEATURES>
8
1 1 acceptor
1 2 acceptor
1 3 acceptor
1 4 donor
1 5 cation
1 5 donor
3 1 2 10 anion
3 6 8 9 hydrophobe

> <PUBCHEM_HEAVY_ATOM_COUNT>
12

> <PUBCHEM_ATOM_DEF_STEREO_COUNT>
0

> <PUBCHEM_ATOM_UDEF_STEREO_COUNT>
1

> <PUBCHEM_BOND_DEF_STEREO_COUNT>
0

> <PUBCHEM_BOND_UDEF_STEREO_COUNT>
0

> <PUBCHEM_ISOTOPIC_ATOM_COUNT>
0

> <PUBCHEM_COMPONENT_COUNT>
1

> <PUBCHEM_CACTVS_TAUTO_COUNT>
2

> <PUBCHEM_CONFORMER_ID>
00017C8900000002

> <PUBCHEM_MMFF94_ENERGY>
16.1491

> <PUBCHEM_FEATURE_SELFOVERLAP>
40.658

> <PUBCHEM_SHAPE_FINGERPRINT>
1 1 17328301347016519269
12716758 59 18196094339591927286
12932764 1 18189337875299513120
13024252 1 16805325457472928545
15490181 7 17833553396993815895
15775835 57 18265331694646761232
20645464 45 18058732373329515272
20653085 51 15409217170664032345
20711985 344 18339657654181752319
20871998 184 18343584031763889935
21930827 45 18129393591657764684
23402539 116 18270102604527925415
23419403 2 17696711740535048749
54338 74 18334853939583201593
6333449 129 18201152170157012573
75552 356 18408037429254051898
81228 2 18411991247360943329

> <PUBCHEM_SHAPE_MULTIPOLES>
219.38
4.51
2.13
1.08
4.68
0.62
0.04
-0.53
0.54
-1.97
0
-0.04
0.06
-0.28

> <PUBCHEM_SHAPE_SELFOVERLAP>
416.386

> <PUBCHEM_SHAPE_VOLUME>
135.1

> <PUBCHEM_COORDINATE_TYPE>
2
5
10

$$$$
