70896
  -OEChem-11012400473D

 49 52  0     0  0  0  0  0  0999 V2000
   -0.0034    0.0000   -0.0001 Si  0  0  0  0  0  0  0  0  0  0  0  0
    1.2527   -0.5361   -0.9643 O   0  0  0  0  0  0  0  0  0  0  0  0
   -0.5362   -1.2481    0.9654 O   0  0  0  0  0  0  0  0  0  0  0  0
   -1.2511    0.5332   -0.9658 O   0  0  0  0  0  0  0  0  0  0  0  0
    0.5293    1.2477    0.9658 O   0  0  0  0  0  0  0  0  0  0  0  0
    2.4828   -1.0582   -0.7075 C   0  0  0  0  0  0  0  0  0  0  0  0
   -1.0631   -2.4858    0.7067 C   0  0  0  0  0  0  0  0  0  0  0  0
   -2.4881    1.0614   -0.7071 C   0  0  0  0  0  0  0  0  0  0  0  0
    1.0589    2.4843    0.7070 C   0  0  0  0  0  0  0  0  0  0  0  0
    2.9048   -1.2342    0.6103 C   0  0  0  0  0  0  0  0  0  0  0  0
   -1.2371   -2.8987   -0.6097 C   0  0  0  0  0  0  0  0  0  0  0  0
   -2.9005    1.2371    0.6091 C   0  0  0  0  0  0  0  0  0  0  0  0
    1.2368    2.8955   -0.6093 C   0  0  0  0  0  0  0  0  0  0  0  0
    3.3221   -1.4168   -1.7624 C   0  0  0  0  0  0  0  0  0  0  0  0
   -1.4191   -3.3170    1.7629 C   0  0  0  0  0  0  0  0  0  0  0  0
   -3.3196    1.4165   -1.7635 C   0  0  0  0  0  0  0  0  0  0  0  0
    1.4139    3.3158    1.7633 C   0  0  0  0  0  0  0  0  0  0  0  0
    4.1662   -1.7686    0.8733 C   0  0  0  0  0  0  0  0  0  0  0  0
   -1.7742   -4.1587   -0.8731 C   0  0  0  0  0  0  0  0  0  0  0  0
   -4.1605    1.7742    0.8723 C   0  0  0  0  0  0  0  0  0  0  0  0
    1.7767    4.1544   -0.8727 C   0  0  0  0  0  0  0  0  0  0  0  0
    4.5834   -1.9514   -1.4993 C   0  0  0  0  0  0  0  0  0  0  0  0
   -1.9560   -4.5771    1.4995 C   0  0  0  0  0  0  0  0  0  0  0  0
   -4.5796    1.9539   -1.5002 C   0  0  0  0  0  0  0  0  0  0  0  0
    1.9538    4.5748    1.4998 C   0  0  0  0  0  0  0  0  0  0  0  0
    5.0053   -2.1272   -0.1813 C   0  0  0  0  0  0  0  0  0  0  0  0
   -2.1336   -4.9979    0.1814 C   0  0  0  0  0  0  0  0  0  0  0  0
   -5.0000    2.1327   -0.1823 C   0  0  0  0  0  0  0  0  0  0  0  0
    2.1351    4.9940    0.1817 C   0  0  0  0  0  0  0  0  0  0  0  0
    2.2885   -0.9707    1.4636 H   0  0  0  0  0  0  0  0  0  0  0  0
   -0.9730   -2.2822   -1.4621 H   0  0  0  0  0  0  0  0  0  0  0  0
   -2.2838    0.9737    1.4617 H   0  0  0  0  0  0  0  0  0  0  0  0
    0.9735    2.2787   -1.4618 H   0  0  0  0  0  0  0  0  0  0  0  0
    2.9989   -1.2819   -2.7909 H   0  0  0  0  0  0  0  0  0  0  0  0
   -1.2826   -2.9929    2.7907 H   0  0  0  0  0  0  0  0  0  0  0  0
   -2.9961    1.2788   -2.7914 H   0  0  0  0  0  0  0  0  0  0  0  0
    1.2744    2.9932    2.7911 H   0  0  0  0  0  0  0  0  0  0  0  0
    4.4953   -1.9057    1.8992 H   0  0  0  0  0  0  0  0  0  0  0  0
   -1.9127   -4.4870   -1.8991 H   0  0  0  0  0  0  0  0  0  0  0  0
   -4.4885    1.9137    1.8983 H   0  0  0  0  0  0  0  0  0  0  0  0
    1.9181    4.4814   -1.8987 H   0  0  0  0  0  0  0  0  0  0  0  0
    5.2369   -2.2306   -2.3205 H   0  0  0  0  0  0  0  0  0  0  0  0
   -2.2359   -5.2306    2.3205 H   0  0  0  0  0  0  0  0  0  0  0  0
   -5.2333    2.2330   -2.3214 H   0  0  0  0  0  0  0  0  0  0  0  0
    2.2329    5.2287    2.3208 H   0  0  0  0  0  0  0  0  0  0  0  0
    5.9874   -2.5434    0.0234 H   0  0  0  0  0  0  0  0  0  0  0  0
   -2.5517   -5.9790   -0.0236 H   0  0  0  0  0  0  0  0  0  0  0  0
   -5.9811    2.5511    0.0227 H   0  0  0  0  0  0  0  0  0  0  0  0
    2.5555    5.9742   -0.0234 H   0  0  0  0  0  0  0  0  0  0  0  0
  1  2  1  0  0  0  0
  1  3  1  0  0  0  0
  1  4  1  0  0  0  0
  1  5  1  0  0  0  0
  2  6  1  0  0  0  0
  3  7  1  0  0  0  0
  4  8  1  0  0  0  0
  5  9  1  0  0  0  0
  6 10  2  0  0  0  0
  6 14  1  0  0  0  0
  7 11  2  0  0  0  0
  7 15  1  0  0  0  0
  8 12  2  0  0  0  0
  8 16  1  0  0  0  0
  9 13  2  0  0  0  0
  9 17  1  0  0  0  0
 10 18  1  0  0  0  0
 10 30  1  0  0  0  0
 11 19  1  0  0  0  0
 11 31  1  0  0  0  0
 12 20  1  0  0  0  0
 12 32  1  0  0  0  0
 13 21  1  0  0  0  0
 13 33  1  0  0  0  0
 14 22  2  0  0  0  0
 14 34  1  0  0  0  0
 15 23  2  0  0  0  0
 15 35  1  0  0  0  0
 16 24  2  0  0  0  0
 16 36  1  0  0  0  0
 17 25  2  0  0  0  0
 17 37  1  0  0  0  0
 18 26  2  0  0  0  0
 18 38  1  0  0  0  0
 19 27  2  0  0  0  0
 19 39  1  0  0  0  0
 20 28  2  0  0  0  0
 20 40  1  0  0  0  0
 21 29  2  0  0  0  0
 21 41  1  0  0  0  0
 22 26  1  0  0  0  0
 22 42  1  0  0  0  0
 23 27  1  0  0  0  0
 23 43  1  0  0  0  0
 24 28  1  0  0  0  0
 24 44  1  0  0  0  0
 25 29  1  0  0  0  0
 25 45  1  0  0  0  0
 26 46  1  0  0  0  0
 27 47  1  0  0  0  0
 28 48  1  0  0  0  0
 29 49  1  0  0  0  0
M  END
> <PUBCHEM_COMPOUND_CID>
70896

> <PUBCHEM_CONFORMER_RMSD>
1

> <PUBCHEM_CONFORMER_DIVERSEORDER>
1
4
16
12
9
11
14
15
2
13
6
5
7
10
8
3

> <PUBCHEM_MMFF94_PARTIAL_CHARGES>
49
1 1.19
10 -0.15
11 -0.15
12 -0.15
13 -0.15
14 -0.15
15 -0.15
16 -0.15
17 -0.15
18 -0.15
19 -0.15
2 -0.38
20 -0.15
21 -0.15
22 -0.15
23 -0.15
24 -0.15
25 -0.15
26 -0.15
27 -0.15
28 -0.15
29 -0.15
3 -0.38
30 0.15
31 0.15
32 0.15
33 0.15
34 0.15
35 0.15
36 0.15
37 0.15
38 0.15
39 0.15
4 -0.38
40 0.15
41 0.15
42 0.15
43 0.15
44 0.15
45 0.15
46 0.15
47 0.15
48 0.15
49 0.15
5 -0.38
6 0.08
7 0.08
8 0.08
9 0.08

> <PUBCHEM_EFFECTIVE_ROTOR_COUNT>
8

> <PUBCHEM_PHARMACOPHORE_FEATURES>
4
6 6 10 14 18 22 26 rings
6 7 11 15 19 23 27 rings
6 8 12 16 20 24 28 rings
6 9 13 17 21 25 29 rings

> <PUBCHEM_HEAVY_ATOM_COUNT>
29

> <PUBCHEM_ATOM_DEF_STEREO_COUNT>
0

> <PUBCHEM_ATOM_UDEF_STEREO_COUNT>
0

> <PUBCHEM_BOND_DEF_STEREO_COUNT>
0

> <PUBCHEM_BOND_UDEF_STEREO_COUNT>
0

> <PUBCHEM_ISOTOPIC_ATOM_COUNT>
0

> <PUBCHEM_COMPONENT_COUNT>
1

> <PUBCHEM_CACTVS_TAUTO_COUNT>
1

> <PUBCHEM_CONFORMER_ID>
000114F000000001

> <PUBCHEM_MMFF94_ENERGY>
81.0415

> <PUBCHEM_FEATURE_SELFOVERLAP>
20.3

> <PUBCHEM_SHAPE_FINGERPRINT>
10190108 129 17399547969556168355
102385 1 18266458904455058919
10305334 12 17687693490344897554
10906281 52 18202008677410351468
10930396 42 18049971482613705466
1100329 8 18410856538164953169
11421498 54 17834113048518141377
11445158 3 17539180212713987137
11578080 2 18121238703020088409
12058002 1 17477708806457784034
12788726 201 18051133593104787982
13149001 5 18411138038916748796
13911987 19 18118419357579505174
14955137 171 18269284465087535169
15439362 3 18339913891879046809
15775530 1 18266740379426488325
1813 80 18128814140720197356
20600515 1 18270970037998534952
20642791 239 18117305656082039900
20775438 99 17980449542335242479
22956985 138 17975125763369337186
23558518 356 18267848648988609287
266924 87 17833828652705070205
283562 15 17907298745923539848
3178227 256 18337966576061877465
3380486 77 18191029993524530620
3383291 50 17834111949176565978
469060 322 17906469735431093504
5171179 24 18196660816056526362
9981440 41 17411021313278689425

> <PUBCHEM_SHAPE_MULTIPOLES>
591.54
8.04
8.02
1.7
0.04
0.02
0
0
2.29
-0.02
-2.28
0
0
2.44

> <PUBCHEM_SHAPE_SELFOVERLAP>
1276.605

> <PUBCHEM_SHAPE_VOLUME>
323.2

> <PUBCHEM_COORDINATE_TYPE>
2
5
10

$$$$
