818085
  -OEChem-11012400433D

 33 34  0     0  0  0  0  0  0999 V2000
    1.6242   -1.7280   -0.3754 O   0  0  0  0  0  0  0  0  0  0  0  0
   -1.0699   -2.0410    0.8295 O   0  0  0  0  0  0  0  0  0  0  0  0
   -1.1081   -1.7371   -1.4214 O   0  0  0  0  0  0  0  0  0  0  0  0
    0.7998    0.3937    0.1007 N   0  0  0  0  0  0  0  0  0  0  0  0
   -2.9442    0.7601    0.1700 C   0  0  0  0  0  0  0  0  0  0  0  0
    3.1915   -0.0244   -0.0195 C   0  0  0  0  0  0  0  0  0  0  0  0
   -0.5327    0.0952    0.0353 C   0  0  0  0  0  0  0  0  0  0  0  0
   -1.5123    1.0065    0.2404 C   0  0  0  0  0  0  0  0  0  0  0  0
    1.8012   -0.5416   -0.1098 C   0  0  0  0  0  0  0  0  0  0  0  0
   -3.6241    0.9393   -1.0347 C   0  0  0  0  0  0  0  0  0  0  0  0
   -3.6371    0.3441    1.3067 C   0  0  0  0  0  0  0  0  0  0  0  0
    4.2014   -0.8900    0.3453 C   0  0  0  0  0  0  0  0  0  0  0  0
    3.4267    1.3045   -0.3031 C   0  0  0  0  0  0  0  0  0  0  0  0
   -4.9971    0.7026   -1.1025 C   0  0  0  0  0  0  0  0  0  0  0  0
   -5.0100    0.1072    1.2390 C   0  0  0  0  0  0  0  0  0  0  0  0
    5.5062   -0.4044    0.4303 C   0  0  0  0  0  0  0  0  0  0  0  0
    4.7316    1.7902   -0.2182 C   0  0  0  0  0  0  0  0  0  0  0  0
   -5.6901    0.2865    0.0343 C   0  0  0  0  0  0  0  0  0  0  0  0
    5.7713    0.9357    0.1485 C   0  0  0  0  0  0  0  0  0  0  0  0
   -0.9281   -1.2993   -0.2954 C   0  0  0  0  0  0  0  0  0  0  0  0
   -1.2426    2.0342    0.4764 H   0  0  0  0  0  0  0  0  0  0  0  0
    1.0291    1.3492    0.3572 H   0  0  0  0  0  0  0  0  0  0  0  0
   -3.0980    1.2630   -1.9296 H   0  0  0  0  0  0  0  0  0  0  0  0
   -3.1214    0.1999    2.2532 H   0  0  0  0  0  0  0  0  0  0  0  0
    4.0104   -1.9344    0.5729 H   0  0  0  0  0  0  0  0  0  0  0  0
    2.6548    1.9939   -0.6285 H   0  0  0  0  0  0  0  0  0  0  0  0
   -5.5267    0.8418   -2.0404 H   0  0  0  0  0  0  0  0  0  0  0  0
   -5.5497   -0.2170    2.1240 H   0  0  0  0  0  0  0  0  0  0  0  0
    6.3157   -1.0693    0.7167 H   0  0  0  0  0  0  0  0  0  0  0  0
    4.9401    2.8316   -0.4460 H   0  0  0  0  0  0  0  0  0  0  0  0
   -6.7591    0.1020   -0.0185 H   0  0  0  0  0  0  0  0  0  0  0  0
    6.7875    1.3134    0.2130 H   0  0  0  0  0  0  0  0  0  0  0  0
   -1.3331   -2.9645    0.6291 H   0  0  0  0  0  0  0  0  0  0  0  0
  1  9  2  0  0  0  0
  2 20  1  0  0  0  0
  2 33  1  0  0  0  0
  3 20  2  0  0  0  0
  4  7  1  0  0  0  0
  4  9  1  0  0  0  0
  4 22  1  0  0  0  0
  5  8  1  0  0  0  0
  5 10  2  0  0  0  0
  5 11  1  0  0  0  0
  6  9  1  0  0  0  0
  6 12  2  0  0  0  0
  6 13  1  0  0  0  0
  7  8  2  0  0  0  0
  7 20  1  0  0  0  0
  8 21  1  0  0  0  0
 10 14  1  0  0  0  0
 10 23  1  0  0  0  0
 11 15  2  0  0  0  0
 11 24  1  0  0  0  0
 12 16  1  0  0  0  0
 12 25  1  0  0  0  0
 13 17  2  0  0  0  0
 13 26  1  0  0  0  0
 14 18  2  0  0  0  0
 14 27  1  0  0  0  0
 15 18  1  0  0  0  0
 15 28  1  0  0  0  0
 16 19  2  0  0  0  0
 16 29  1  0  0  0  0
 17 19  1  0  0  0  0
 17 30  1  0  0  0  0
 18 31  1  0  0  0  0
 19 32  1  0  0  0  0
M  END
> <PUBCHEM_COMPOUND_CID>
818085

> <PUBCHEM_CONFORMER_RMSD>
0.8

> <PUBCHEM_CONFORMER_DIVERSEORDER>
1
3
5
4
2

> <PUBCHEM_MMFF94_PARTIAL_CHARGES>
33
1 -0.57
10 -0.15
11 -0.15
12 -0.15
13 -0.15
14 -0.15
15 -0.15
16 -0.15
17 -0.15
18 -0.15
19 -0.15
2 -0.65
20 0.71
21 0.15
22 0.37
23 0.15
24 0.15
25 0.15
26 0.15
27 0.15
28 0.15
29 0.15
3 -0.57
30 0.15
31 0.15
32 0.15
33 0.5
4 -0.54
5 0.03
6 0.09
7 0.12
8 -0.18
9 0.54

> <PUBCHEM_EFFECTIVE_ROTOR_COUNT>
5

> <PUBCHEM_PHARMACOPHORE_FEATURES>
7
1 1 acceptor
1 2 acceptor
1 3 acceptor
1 4 donor
3 2 3 20 anion
6 5 10 11 14 15 18 rings
6 6 12 13 16 17 19 rings

> <PUBCHEM_HEAVY_ATOM_COUNT>
20

> <PUBCHEM_ATOM_DEF_STEREO_COUNT>
0

> <PUBCHEM_ATOM_UDEF_STEREO_COUNT>
0

> <PUBCHEM_BOND_DEF_STEREO_COUNT>
1

> <PUBCHEM_BOND_UDEF_STEREO_COUNT>
0

> <PUBCHEM_ISOTOPIC_ATOM_COUNT>
0

> <PUBCHEM_COMPONENT_COUNT>
1

> <PUBCHEM_CACTVS_TAUTO_COUNT>
2

> <PUBCHEM_CONFORMER_ID>
000C7BA500000001

> <PUBCHEM_MMFF94_ENERGY>
67.9528

> <PUBCHEM_FEATURE_SELFOVERLAP>
35.582

> <PUBCHEM_SHAPE_FINGERPRINT>
10 15 17895190052411923624
10670039 82 18266758921639829428
11045977 3 17531252780873806024
11089746 13 17561079229117344040
11287383 113 18186523210857044921
12236239 1 17704071772317685841
12596602 18 15936411165112135540
13533116 47 17632579297851254598
13583140 156 17749108893909629073
13631057 29 18058720446860112215
13675066 3 17676209074070254384
14251764 18 18260823822486669594
14787075 74 18413107273333209827
15183329 4 12175634944603958275
15188451 53 15719680973599559691
19489759 90 16370724820925240785
19784866 140 11167949043111498172
20197701 30 17748825202856810203
204376 136 18412829079527137183
20645477 56 18260263075192244100
21033648 144 18200016473731052604
21033648 29 18188191161412325461
21033650 10 16270552718754748304
21236236 1 18340205310295306743
21267235 1 18337959996150633674
22079108 93 17676488375788271386
22224240 67 18410300212053565499
23198884 109 16630531738744970344
23227448 37 18261958564750129421
23402539 116 18335977627623994101
23559900 14 17023754377238661155
300161 21 18410850002100603856
314173 85 12612753488623156575
335352 9 18411138031450557646
351380 180 17894911819354585165
3545911 37 18409169922421036004
4325135 7 18341891918361418967
4340502 62 17603309232629755579
474229 33 18411700989339889355
5104073 3 18336821022389677626
542803 24 17346599672966045552
633830 44 18128264389432787487

> <PUBCHEM_SHAPE_MULTIPOLES>
389
14.03
1.61
1.03
3.17
0.4
0.01
-4.46
-1.28
0.94
0.21
-1.26
0.08
0.06

> <PUBCHEM_SHAPE_SELFOVERLAP>
840.628

> <PUBCHEM_SHAPE_VOLUME>
212

> <PUBCHEM_COORDINATE_TYPE>
2
5
10

$$$$
