69132
  -OEChem-11012400593D

 18 18  0     0  0  0  0  0  0999 V2000
   -0.1796    2.8844   -0.2952 I   0  0  0  0  0  0  0  0  0  0  0  0
    2.0530   -0.7436   -0.6340 O   0  0  0  0  0  0  0  0  0  0  0  0
    1.9167    0.6798    1.1699 O   0  0  0  0  0  0  0  0  0  0  0  0
   -0.0676   -0.1537    0.1440 C   0  0  0  0  0  0  0  0  0  0  0  0
   -0.9081    0.9302   -0.1104 C   0  0  0  0  0  0  0  0  0  0  0  0
   -0.6009   -1.4373    0.2612 C   0  0  0  0  0  0  0  0  0  0  0  0
   -2.2818    0.7303   -0.2476 C   0  0  0  0  0  0  0  0  0  0  0  0
   -1.9747   -1.6370    0.1240 C   0  0  0  0  0  0  0  0  0  0  0  0
   -2.8151   -0.5533   -0.1303 C   0  0  0  0  0  0  0  0  0  0  0  0
    1.3753   -0.0124    0.3009 C   0  0  0  0  0  0  0  0  0  0  0  0
    3.4827   -0.6875   -0.5824 C   0  0  0  0  0  0  0  0  0  0  0  0
    0.0381   -2.2932    0.4646 H   0  0  0  0  0  0  0  0  0  0  0  0
   -2.9577    1.5585   -0.4455 H   0  0  0  0  0  0  0  0  0  0  0  0
   -2.3902   -2.6361    0.2167 H   0  0  0  0  0  0  0  0  0  0  0  0
   -3.8846   -0.7091   -0.2366 H   0  0  0  0  0  0  0  0  0  0  0  0
    3.8407   -1.0739    0.3765 H   0  0  0  0  0  0  0  0  0  0  0  0
    3.8254    0.3397   -0.7377 H   0  0  0  0  0  0  0  0  0  0  0  0
    3.8773   -1.3158   -1.3850 H   0  0  0  0  0  0  0  0  0  0  0  0
  1  5  1  0  0  0  0
  2 10  1  0  0  0  0
  2 11  1  0  0  0  0
  3 10  2  0  0  0  0
  4  5  1  0  0  0  0
  4  6  2  0  0  0  0
  4 10  1  0  0  0  0
  5  7  2  0  0  0  0
  6  8  1  0  0  0  0
  6 12  1  0  0  0  0
  7  9  1  0  0  0  0
  7 13  1  0  0  0  0
  8  9  2  0  0  0  0
  8 14  1  0  0  0  0
  9 15  1  0  0  0  0
 11 16  1  0  0  0  0
 11 17  1  0  0  0  0
 11 18  1  0  0  0  0
M  END
> <PUBCHEM_COMPOUND_CID>
69132

> <PUBCHEM_CONFORMER_RMSD>
0.4

> <PUBCHEM_CONFORMER_DIVERSEORDER>
2
1
3
4

> <PUBCHEM_MMFF94_PARTIAL_CHARGES>
15
1 -0.08
10 0.63
11 0.28
12 0.15
13 0.15
14 0.15
15 0.15
2 -0.43
3 -0.57
4 0.09
5 0.08
6 -0.15
7 -0.15
8 -0.15
9 -0.15

> <PUBCHEM_EFFECTIVE_ROTOR_COUNT>
2

> <PUBCHEM_PHARMACOPHORE_FEATURES>
3
1 1 hydrophobe
1 3 acceptor
6 4 5 6 7 8 9 rings

> <PUBCHEM_HEAVY_ATOM_COUNT>
11

> <PUBCHEM_ATOM_DEF_STEREO_COUNT>
0

> <PUBCHEM_ATOM_UDEF_STEREO_COUNT>
0

> <PUBCHEM_BOND_DEF_STEREO_COUNT>
0

> <PUBCHEM_BOND_UDEF_STEREO_COUNT>
0

> <PUBCHEM_ISOTOPIC_ATOM_COUNT>
0

> <PUBCHEM_COMPONENT_COUNT>
1

> <PUBCHEM_CACTVS_TAUTO_COUNT>
1

> <PUBCHEM_CONFORMER_ID>
00010E0C00000002

> <PUBCHEM_MMFF94_ENERGY>
33.5302

> <PUBCHEM_FEATURE_SELFOVERLAP>
15.223

> <PUBCHEM_SHAPE_FINGERPRINT>
12423570 1 15098652792621447693
12524768 44 18269263715736472881
12716758 59 18052257293661431362
13024252 1 17385735672691531027
15219456 202 18201995573217153272
16945 1 18261383464698165803
17990270 104 18122060068249325921
193761 8 17832427870944365207
20201158 50 18131635543386084846
20711985 344 18338230445086647472
21040471 1 18048024173667718433
22213442 358 18266745868632082652
22802520 49 18271528580919761382
23402539 116 18340196397673093862
23552423 10 18190458461915286951
23557571 272 18341624694028395028
23559900 14 18269834212934214646
241688 4 18410576167142797241
2748010 2 18338788017925584861
369184 2 16128372696697017779
5084963 1 18343585126911822545
7364860 26 17979922927351457149
81228 2 18337391530594547952

> <PUBCHEM_SHAPE_MULTIPOLES>
226.57
4.06
2.5
0.81
2.28
2.26
0.07
-1.81
-0.64
-0.65
-0.16
0.32
0.09
0.33

> <PUBCHEM_SHAPE_SELFOVERLAP>
448.349

> <PUBCHEM_SHAPE_VOLUME>
138.6

> <PUBCHEM_COORDINATE_TYPE>
2
5
10

$$$$
