57347109
  -OEChem-10312421012D

 19 18  0     0  0  0  0  0  0999 V2000
    1.2266    0.0000    0.0000 V   0  0  0  0  0  0  0  0  0  0  0  0
    1.4766    4.9750    0.0000 C   0  0  0  0  0  0  0  0  0  0  0  0
    0.6106    4.4750    0.0000 C   0  0  0  0  0  0  0  0  0  0  0  0
    2.3426    4.4750    0.0000 C   0  0  0  0  0  0  0  0  0  0  0  0
    0.6106    3.4750    0.0000 C   0  0  0  0  0  0  0  0  0  0  0  0
    2.3426    3.4750    0.0000 C   0  0  0  0  0  0  0  0  0  0  0  0
    1.4766    2.9750    0.0000 C   0  0  0  0  0  0  0  0  0  0  0  0
    1.8751    5.4499    0.0000 H   0  0  0  0  0  0  0  0  0  0  0  0
    1.0781    5.4499    0.0000 H   0  0  0  0  0  0  0  0  0  0  0  0
    0.3985    5.0576    0.0000 H   0  0  0  0  0  0  0  0  0  0  0  0
    0.0000    4.3673    0.0000 H   0  0  0  0  0  0  0  0  0  0  0  0
    2.9532    4.3673    0.0000 H   0  0  0  0  0  0  0  0  0  0  0  0
    2.5547    5.0576    0.0000 H   0  0  0  0  0  0  0  0  0  0  0  0
    0.0000    3.5826    0.0000 H   0  0  0  0  0  0  0  0  0  0  0  0
    0.3985    2.8923    0.0000 H   0  0  0  0  0  0  0  0  0  0  0  0
    2.5547    2.8923    0.0000 H   0  0  0  0  0  0  0  0  0  0  0  0
    2.9532    3.5826    0.0000 H   0  0  0  0  0  0  0  0  0  0  0  0
    1.0781    2.5000    0.0000 H   0  0  0  0  0  0  0  0  0  0  0  0
    1.8751    2.5000    0.0000 H   0  0  0  0  0  0  0  0  0  0  0  0
  2  3  1  0  0  0  0
  2  4  1  0  0  0  0
  2  8  1  0  0  0  0
  2  9  1  0  0  0  0
  3  5  1  0  0  0  0
  3 10  1  0  0  0  0
  3 11  1  0  0  0  0
  4  6  1  0  0  0  0
  4 12  1  0  0  0  0
  4 13  1  0  0  0  0
  5  7  1  0  0  0  0
  5 14  1  0  0  0  0
  5 15  1  0  0  0  0
  6  7  1  0  0  0  0
  6 16  1  0  0  0  0
  6 17  1  0  0  0  0
  7 18  1  0  0  0  0
  7 19  1  0  0  0  0
M  END
> <PUBCHEM_COMPOUND_CID>
57347109

> <PUBCHEM_COMPOUND_CANONICALIZED>
1

> <PUBCHEM_CACTVS_COMPLEXITY>
15.5

> <PUBCHEM_CACTVS_HBOND_ACCEPTOR>
0

> <PUBCHEM_CACTVS_HBOND_DONOR>
0

> <PUBCHEM_CACTVS_ROTATABLE_BOND>
0

> <PUBCHEM_CACTVS_SUBSKEYS>
AAADccBgAAAAAAEAAAAAAAAAAAAAAAAAAAAwAAAAAAAAAAAAAAAAGAAAAAAACACAAAAAAAAAAAAAAAAAAAAAAAAAAAAAAAAAAAAAAAIAAAAAAAAAAAAAAAEAAAAAAAAAAAAAAAAAAAAAAAAAAAAAAAAAAA==

> <PUBCHEM_IUPAC_OPENEYE_NAME>
cyclohexane;vanadium

> <PUBCHEM_IUPAC_CAS_NAME>
cyclohexane;vanadium

> <PUBCHEM_IUPAC_NAME_MARKUP>
cyclohexane;vanadium

> <PUBCHEM_IUPAC_NAME>
cyclohexane;vanadium

> <PUBCHEM_IUPAC_SYSTEMATIC_NAME>
cyclohexane;vanadium

> <PUBCHEM_IUPAC_TRADITIONAL_NAME>
cyclohexane;vanadium

> <PUBCHEM_IUPAC_INCHI>
InChI=1S/C6H12.V/c1-2-4-6-5-3-1;/h1-6H2;

> <PUBCHEM_IUPAC_INCHIKEY>
MOOOZOQCKRBKHM-UHFFFAOYSA-N

> <PUBCHEM_EXACT_MASS>
135.037858

> <PUBCHEM_MOLECULAR_FORMULA>
C6H12V

> <PUBCHEM_MOLECULAR_WEIGHT>
135.10

> <PUBCHEM_OPENEYE_CAN_SMILES>
C1CCCCC1.[V]

> <PUBCHEM_OPENEYE_ISO_SMILES>
C1CCCCC1.[V]

> <PUBCHEM_CACTVS_TPSA>
0

> <PUBCHEM_MONOISOTOPIC_WEIGHT>
135.037858

> <PUBCHEM_TOTAL_CHARGE>
0

> <PUBCHEM_HEAVY_ATOM_COUNT>
7

> <PUBCHEM_ATOM_DEF_STEREO_COUNT>
0

> <PUBCHEM_ATOM_UDEF_STEREO_COUNT>
0

> <PUBCHEM_BOND_DEF_STEREO_COUNT>
0

> <PUBCHEM_BOND_UDEF_STEREO_COUNT>
0

> <PUBCHEM_ISOTOPIC_ATOM_COUNT>
0

> <PUBCHEM_COMPONENT_COUNT>
2

> <PUBCHEM_CACTVS_TAUTO_COUNT>
-1

> <PUBCHEM_COORDINATE_TYPE>
1
5
255

$$$$
