137294
  -OEChem-11012400313D

 36 36  0     0  0  0  0  0  0999 V2000
    0.9696    2.9189   -0.6872 C   0  0  0  0  0  0  0  0  0  0  0  0
    0.0046    2.6144    0.1951 C   0  0  0  0  0  0  0  0  0  0  0  0
    2.3364    3.2110   -0.3105 C   0  0  0  0  0  0  0  0  0  0  0  0
   -1.3373    2.2468   -0.1953 C   0  0  0  0  0  0  0  0  0  0  0  0
    3.1838    2.3732    0.3107 C   0  0  0  0  0  0  0  0  0  0  0  0
   -2.3223    2.0158    0.6872 C   0  0  0  0  0  0  0  0  0  0  0  0
    2.9070    1.0031    0.6872 C   0  0  0  0  0  0  0  0  0  0  0  0
   -3.6471    1.5706    0.3106 C   0  0  0  0  0  0  0  0  0  0  0  0
    2.6149    0.0347   -0.1954 C   0  0  0  0  0  0  0  0  0  0  0  0
   -3.9493    0.4177   -0.3103 C   0  0  0  0  0  0  0  0  0  0  0  0
    2.2621   -1.3113    0.1950 C   0  0  0  0  0  0  0  0  0  0  0  0
   -3.0133   -0.6202   -0.6871 C   0  0  0  0  0  0  0  0  0  0  0  0
    2.0431   -2.2992   -0.6872 C   0  0  0  0  0  0  0  0  0  0  0  0
   -2.2663   -1.3028    0.1950 C   0  0  0  0  0  0  0  0  0  0  0  0
    1.6128   -3.6288   -0.3104 C   0  0  0  0  0  0  0  0  0  0  0  0
   -1.2773   -2.2816   -0.1954 C   0  0  0  0  0  0  0  0  0  0  0  0
    0.4634   -3.9436    0.3109 C   0  0  0  0  0  0  0  0  0  0  0  0
   -0.5847   -3.0187    0.6871 C   0  0  0  0  0  0  0  0  0  0  0  0
    0.7553    2.9736   -1.7513 H   0  0  0  0  0  0  0  0  0  0  0  0
    0.2266    2.6029    1.2601 H   0  0  0  0  0  0  0  0  0  0  0  0
    2.6887    4.2034   -0.5811 H   0  0  0  0  0  0  0  0  0  0  0  0
   -1.5228    2.1247   -1.2603 H   0  0  0  0  0  0  0  0  0  0  0  0
    4.1721    2.7367    0.5815 H   0  0  0  0  0  0  0  0  0  0  0  0
   -2.1653    2.1711    1.7514 H   0  0  0  0  0  0  0  0  0  0  0  0
    2.9628    0.7896    1.7514 H   0  0  0  0  0  0  0  0  0  0  0  0
   -4.4560    2.2449    0.5814 H   0  0  0  0  0  0  0  0  0  0  0  0
    2.6022    0.2562   -1.2604 H   0  0  0  0  0  0  0  0  0  0  0  0
   -4.9850    0.2268   -0.5808 H   0  0  0  0  0  0  0  0  0  0  0  0
    2.1411   -1.4977    1.2600 H   0  0  0  0  0  0  0  0  0  0  0  0
   -2.9545   -0.8340   -1.7511 H   0  0  0  0  0  0  0  0  0  0  0  0
    2.1976   -2.1409   -1.7513 H   0  0  0  0  0  0  0  0  0  0  0  0
   -2.3663   -1.1041    1.2599 H   0  0  0  0  0  0  0  0  0  0  0  0
    2.2960   -4.4301   -0.5809 H   0  0  0  0  0  0  0  0  0  0  0  0
   -1.0792   -2.3815   -1.2605 H   0  0  0  0  0  0  0  0  0  0  0  0
    0.2839   -4.9811    0.5819 H   0  0  0  0  0  0  0  0  0  0  0  0
   -0.7974   -2.9600    1.7514 H   0  0  0  0  0  0  0  0  0  0  0  0
  1  2  2  0  0  0  0
  1  3  1  0  0  0  0
  1 19  1  0  0  0  0
  2  4  1  0  0  0  0
  2 20  1  0  0  0  0
  3  5  2  0  0  0  0
  3 21  1  0  0  0  0
  4  6  2  0  0  0  0
  4 22  1  0  0  0  0
  5  7  1  0  0  0  0
  5 23  1  0  0  0  0
  6  8  1  0  0  0  0
  6 24  1  0  0  0  0
  7  9  2  0  0  0  0
  7 25  1  0  0  0  0
  8 10  2  0  0  0  0
  8 26  1  0  0  0  0
  9 11  1  0  0  0  0
  9 27  1  0  0  0  0
 10 12  1  0  0  0  0
 10 28  1  0  0  0  0
 11 13  2  0  0  0  0
 11 29  1  0  0  0  0
 12 14  2  0  0  0  0
 12 30  1  0  0  0  0
 13 15  1  0  0  0  0
 13 31  1  0  0  0  0
 14 16  1  0  0  0  0
 14 32  1  0  0  0  0
 15 17  2  0  0  0  0
 15 33  1  0  0  0  0
 16 18  2  0  0  0  0
 16 34  1  0  0  0  0
 17 18  1  0  0  0  0
 17 35  1  0  0  0  0
 18 36  1  0  0  0  0
M  END
> <PUBCHEM_COMPOUND_CID>
137294

> <PUBCHEM_CONFORMER_RMSD>
0.4

> <PUBCHEM_CONFORMER_DIVERSEORDER>
1

> <PUBCHEM_MMFF94_PARTIAL_CHARGES>
36
1 -0.15
10 -0.15
11 -0.15
12 -0.15
13 -0.15
14 -0.15
15 -0.15
16 -0.15
17 -0.15
18 -0.15
19 0.15
2 -0.15
20 0.15
21 0.15
22 0.15
23 0.15
24 0.15
25 0.15
26 0.15
27 0.15
28 0.15
29 0.15
3 -0.15
30 0.15
31 0.15
32 0.15
33 0.15
34 0.15
35 0.15
36 0.15
4 -0.15
5 -0.15
6 -0.15
7 -0.15
8 -0.15
9 -0.15

> <PUBCHEM_EFFECTIVE_ROTOR_COUNT>
0

> <PUBCHEM_PHARMACOPHORE_FEATURES>
0

> <PUBCHEM_HEAVY_ATOM_COUNT>
18

> <PUBCHEM_ATOM_DEF_STEREO_COUNT>
0

> <PUBCHEM_ATOM_UDEF_STEREO_COUNT>
0

> <PUBCHEM_BOND_DEF_STEREO_COUNT>
0

> <PUBCHEM_BOND_UDEF_STEREO_COUNT>
0

> <PUBCHEM_ISOTOPIC_ATOM_COUNT>
0

> <PUBCHEM_COMPONENT_COUNT>
1

> <PUBCHEM_CACTVS_TAUTO_COUNT>
1

> <PUBCHEM_CONFORMER_ID>
0002184E00000001

> <PUBCHEM_MMFF94_ENERGY>
45.7775

> <PUBCHEM_FEATURE_SELFOVERLAP>
0

> <PUBCHEM_SHAPE_FINGERPRINT>
10616163 171 18048880993778852353
10708813 3 18055362327225222849
11370993 70 18339070618104865625
12038231 1 18410855442948292630
12054548 360 17474109800115774266
12539773 59 17631727158858938217
12553582 1 17690281512634865264
13122387 1 18122623847062934976
138480 1 18122344575367381003
14251757 5 17183084959881786316
14765038 42 17553781559826646264
14916288 52 17258496643740291444
15006816 218 18411136926826349605
19930381 70 18409729552196030003
20621476 13 18336818680999673349
20621476 7 17039522855728855595
3014063 31 17545317476097750117

> <PUBCHEM_SHAPE_MULTIPOLES>
370.43
5.96
5.96
0.82
2.9
2.95
0
-2.95
0
-2.9
0
0
0
0

> <PUBCHEM_SHAPE_SELFOVERLAP>
745.597

> <PUBCHEM_SHAPE_VOLUME>
209.2

> <PUBCHEM_COORDINATE_TYPE>
2
5
10

$$$$
