227085
  -OEChem-11012400423D

 17 17  0     0  0  0  0  0  0999 V2000
   -2.0514   -0.7875   -0.0002 O   0  0  0  0  0  0  0  0  0  0  0  0
   -1.8774    1.5078    0.0008 O   0  0  0  0  0  0  0  0  0  0  0  0
    2.8442   -0.2952   -0.0001 N   0  0  0  0  0  0  0  0  0  0  0  0
    0.0850    0.1539   -0.0001 C   0  0  0  0  0  0  0  0  0  0  0  0
    0.9672    1.2287   -0.0006 C   0  0  0  0  0  0  0  0  0  0  0  0
    0.5808   -1.1452    0.0005 C   0  0  0  0  0  0  0  0  0  0  0  0
   -1.3499    0.3874    0.0006 C   0  0  0  0  0  0  0  0  0  0  0  0
    2.3252    0.9532   -0.0004 C   0  0  0  0  0  0  0  0  0  0  0  0
    1.9560   -1.3145    0.0004 C   0  0  0  0  0  0  0  0  0  0  0  0
   -3.4797   -0.6887   -0.0008 C   0  0  0  0  0  0  0  0  0  0  0  0
    0.6233    2.2575   -0.0009 H   0  0  0  0  0  0  0  0  0  0  0  0
   -0.0509   -2.0264    0.0011 H   0  0  0  0  0  0  0  0  0  0  0  0
    3.0549    1.7563   -0.0008 H   0  0  0  0  0  0  0  0  0  0  0  0
    2.3937   -2.3074    0.0009 H   0  0  0  0  0  0  0  0  0  0  0  0
   -3.8220   -0.1694    0.8991 H   0  0  0  0  0  0  0  0  0  0  0  0
   -3.8912   -1.7015   -0.0015 H   0  0  0  0  0  0  0  0  0  0  0  0
   -3.8211   -0.1686   -0.9007 H   0  0  0  0  0  0  0  0  0  0  0  0
  1  7  1  0  0  0  0
  1 10  1  0  0  0  0
  2  7  2  0  0  0  0
  3  8  2  0  0  0  0
  3  9  1  0  0  0  0
  4  5  2  0  0  0  0
  4  6  1  0  0  0  0
  4  7  1  0  0  0  0
  5  8  1  0  0  0  0
  5 11  1  0  0  0  0
  6  9  2  0  0  0  0
  6 12  1  0  0  0  0
  8 13  1  0  0  0  0
  9 14  1  0  0  0  0
 10 15  1  0  0  0  0
 10 16  1  0  0  0  0
 10 17  1  0  0  0  0
M  END
> <PUBCHEM_COMPOUND_CID>
227085

> <PUBCHEM_CONFORMER_RMSD>
0.4

> <PUBCHEM_CONFORMER_DIVERSEORDER>
1
2

> <PUBCHEM_MMFF94_PARTIAL_CHARGES>
14
1 -0.43
10 0.28
11 0.15
12 0.15
13 0.15
14 0.15
2 -0.57
3 -0.62
4 0.09
5 -0.15
6 -0.15
7 0.63
8 0.16
9 0.16

> <PUBCHEM_EFFECTIVE_ROTOR_COUNT>
2

> <PUBCHEM_PHARMACOPHORE_FEATURES>
3
1 2 acceptor
1 3 acceptor
6 3 4 5 6 8 9 rings

> <PUBCHEM_HEAVY_ATOM_COUNT>
10

> <PUBCHEM_ATOM_DEF_STEREO_COUNT>
0

> <PUBCHEM_ATOM_UDEF_STEREO_COUNT>
0

> <PUBCHEM_BOND_DEF_STEREO_COUNT>
0

> <PUBCHEM_BOND_UDEF_STEREO_COUNT>
0

> <PUBCHEM_ISOTOPIC_ATOM_COUNT>
0

> <PUBCHEM_COMPONENT_COUNT>
1

> <PUBCHEM_CACTVS_TAUTO_COUNT>
1

> <PUBCHEM_CONFORMER_ID>
0003770D00000001

> <PUBCHEM_MMFF94_ENERGY>
27.8767

> <PUBCHEM_FEATURE_SELFOVERLAP>
15.223

> <PUBCHEM_SHAPE_FINGERPRINT>
10857977 72 18339630192255748850
12897270 3 18409165536710716263
12932764 1 17489860553143991005
14325111 11 18410856568235161312
16945 1 18410575136313514726
19973954 147 18410576145525600605
20201158 50 18335138708831704291
20645477 70 18411131425374612143
20653091 64 18334293137245206448
21040471 1 18338516447470395936
21501925 9 18336251371807505426
23402655 69 18340191996007193125
23552423 10 18261396602681390366
2748010 2 18339358552680305916
29004967 10 18411419475539440762
5084963 1 18342740732078194688

> <PUBCHEM_SHAPE_MULTIPOLES>
189.08
4.52
1.48
0.59
2.39
0.1
0
-0.67
0
-0.23
0
-0.01
-0.01
0

> <PUBCHEM_SHAPE_SELFOVERLAP>
391.312

> <PUBCHEM_SHAPE_VOLUME>
107.7

> <PUBCHEM_COORDINATE_TYPE>
2
5
10

$$$$
