5377203
  -OEChem-11012401273D

 35 36  0     0  0  0  0  0  0999 V2000
    5.0246    0.0256    0.0493 N   0  0  0  0  0  0  0  0  0  0  0  0
   -0.7683   -1.5789   -2.2471 N   0  0  0  0  0  0  0  0  0  0  0  0
    3.6238    0.1230    0.1819 C   0  0  0  0  0  0  0  0  0  0  0  0
    0.8530    0.3150    0.4434 C   0  0  0  0  0  0  0  0  0  0  0  0
    2.9296   -0.8101    0.9520 C   0  0  0  0  0  0  0  0  0  0  0  0
    2.9326    1.1521   -0.4573 C   0  0  0  0  0  0  0  0  0  0  0  0
    1.5441   -0.7142    1.0826 C   0  0  0  0  0  0  0  0  0  0  0  0
    1.5472    1.2482   -0.3266 C   0  0  0  0  0  0  0  0  0  0  0  0
   -0.5916    0.4151    0.5795 C   0  0  0  0  0  0  0  0  0  0  0  0
   -1.5277   -0.1498   -0.2251 C   0  0  0  0  0  0  0  0  0  0  0  0
   -2.9761    0.0107    0.0085 C   0  0  0  0  0  0  0  0  0  0  0  0
    5.6793   -1.2661    0.1071 C   0  0  0  0  0  0  0  0  0  0  0  0
    5.8263    1.2148   -0.1606 C   0  0  0  0  0  0  0  0  0  0  0  0
   -3.6364   -0.9019    0.8134 C   0  0  0  0  0  0  0  0  0  0  0  0
   -3.6431    1.0704   -0.5820 C   0  0  0  0  0  0  0  0  0  0  0  0
   -5.0053   -0.7501    1.0347 C   0  0  0  0  0  0  0  0  0  0  0  0
   -5.0119    1.2223   -0.3606 C   0  0  0  0  0  0  0  0  0  0  0  0
   -5.6929    0.3120    0.4477 C   0  0  0  0  0  0  0  0  0  0  0  0
   -1.1070   -0.9381   -1.3408 C   0  0  0  0  0  0  0  0  0  0  0  0
    3.4387   -1.6164    1.4723 H   0  0  0  0  0  0  0  0  0  0  0  0
    3.4408    1.8879   -1.0741 H   0  0  0  0  0  0  0  0  0  0  0  0
    1.0173   -1.4476    1.6886 H   0  0  0  0  0  0  0  0  0  0  0  0
    1.0220    2.0547   -0.8328 H   0  0  0  0  0  0  0  0  0  0  0  0
   -0.9161    1.0128    1.4302 H   0  0  0  0  0  0  0  0  0  0  0  0
    5.7894   -1.5994    1.1444 H   0  0  0  0  0  0  0  0  0  0  0  0
    6.6822   -1.2213   -0.3322 H   0  0  0  0  0  0  0  0  0  0  0  0
    5.1226   -2.0235   -0.4564 H   0  0  0  0  0  0  0  0  0  0  0  0
    6.8776    1.0312    0.0880 H   0  0  0  0  0  0  0  0  0  0  0  0
    5.4927    2.0417    0.4767 H   0  0  0  0  0  0  0  0  0  0  0  0
    5.7861    1.5301   -1.2086 H   0  0  0  0  0  0  0  0  0  0  0  0
   -3.1120   -1.7335    1.2767 H   0  0  0  0  0  0  0  0  0  0  0  0
   -3.1239    1.7865   -1.2134 H   0  0  0  0  0  0  0  0  0  0  0  0
   -5.5357   -1.4588    1.6641 H   0  0  0  0  0  0  0  0  0  0  0  0
   -5.5476    2.0493   -0.8175 H   0  0  0  0  0  0  0  0  0  0  0  0
   -6.7587    0.4303    0.6200 H   0  0  0  0  0  0  0  0  0  0  0  0
  1  3  1  0  0  0  0
  1 12  1  0  0  0  0
  1 13  1  0  0  0  0
  2 19  3  0  0  0  0
  3  5  2  0  0  0  0
  3  6  1  0  0  0  0
  4  7  2  0  0  0  0
  4  8  1  0  0  0  0
  4  9  1  0  0  0  0
  5  7  1  0  0  0  0
  5 20  1  0  0  0  0
  6  8  2  0  0  0  0
  6 21  1  0  0  0  0
  7 22  1  0  0  0  0
  8 23  1  0  0  0  0
  9 10  2  0  0  0  0
  9 24  1  0  0  0  0
 10 11  1  0  0  0  0
 10 19  1  0  0  0  0
 11 14  2  0  0  0  0
 11 15  1  0  0  0  0
 12 25  1  0  0  0  0
 12 26  1  0  0  0  0
 12 27  1  0  0  0  0
 13 28  1  0  0  0  0
 13 29  1  0  0  0  0
 13 30  1  0  0  0  0
 14 16  1  0  0  0  0
 14 31  1  0  0  0  0
 15 17  2  0  0  0  0
 15 32  1  0  0  0  0
 16 18  2  0  0  0  0
 16 33  1  0  0  0  0
 17 18  1  0  0  0  0
 17 34  1  0  0  0  0
 18 35  1  0  0  0  0
M  END
> <PUBCHEM_COMPOUND_CID>
5377203

> <PUBCHEM_CONFORMER_RMSD>
0.6

> <PUBCHEM_CONFORMER_DIVERSEORDER>
1
3
4
5
2
6

> <PUBCHEM_MMFF94_PARTIAL_CHARGES>
29
1 -0.84
10 0.04
11 0.03
12 0.37
13 0.37
14 -0.15
15 -0.15
16 -0.15
17 -0.15
18 -0.15
19 0.49
2 -0.56
20 0.15
21 0.15
22 0.15
23 0.15
24 0.15
3 0.1
31 0.15
32 0.15
33 0.15
34 0.15
35 0.15
4 0.03
5 -0.15
6 -0.15
7 -0.15
8 -0.15
9 -0.18

> <PUBCHEM_EFFECTIVE_ROTOR_COUNT>
3

> <PUBCHEM_PHARMACOPHORE_FEATURES>
4
1 1 cation
1 2 acceptor
6 11 14 15 16 17 18 rings
6 3 4 5 6 7 8 rings

> <PUBCHEM_HEAVY_ATOM_COUNT>
19

> <PUBCHEM_ATOM_DEF_STEREO_COUNT>
0

> <PUBCHEM_ATOM_UDEF_STEREO_COUNT>
0

> <PUBCHEM_BOND_DEF_STEREO_COUNT>
1

> <PUBCHEM_BOND_UDEF_STEREO_COUNT>
0

> <PUBCHEM_ISOTOPIC_ATOM_COUNT>
0

> <PUBCHEM_COMPONENT_COUNT>
1

> <PUBCHEM_CACTVS_TAUTO_COUNT>
1

> <PUBCHEM_CONFORMER_ID>
00520CB300000001

> <PUBCHEM_MMFF94_ENERGY>
72.8887

> <PUBCHEM_FEATURE_SELFOVERLAP>
20.297

> <PUBCHEM_SHAPE_FINGERPRINT>
10366900 7 14056719058292276612
11796584 16 17060339647980366510
12107183 9 17319842855772808945
12236239 1 18412545409610992400
12596602 18 18409732876004903921
128620 24 12107784090601618507
13533116 47 15697729104003404254
13675066 3 18412258463019974456
14115302 16 17418094360190025192
14251764 18 18410296921934458737
14341114 176 18041003933806008569
15048467 5 17530682091668904853
15099037 51 17561080315016004429
15788980 27 18272649056161661197
17834072 33 18040719181505428961
17844677 252 18187653491683536708
1813 80 14851608748036589551
187816 3 16128657453049685779
200 152 18334858320286411057
20344682 1 15864069866697928866
20681677 155 18059851813864241422
21033648 29 17703208647147758529
21267235 1 18114189622215225961
21618674 57 15697999630654984402
23402539 116 15554446288657123513
23536379 177 18333732403431781720
23557571 272 15430312482448708966
23559900 14 17895192259692596497
300161 21 17385434415227226609
3004659 81 17895195464112596394
3545911 37 18040152907785520697
4073 2 17168153368078541610
4214541 1 18040434382788631073
4325135 7 16370729231782755406
4463277 17 18260550026294662856
465052 167 18340215201736559435
5104073 3 17417238965718663218
5385378 56 17274274842111222615
542803 24 15913329104266194504
69090 78 13830129494943667781
7226269 152 16343705421614379835
77779 3 17967814946803749369
8272917 22 18335702672539890819

> <PUBCHEM_SHAPE_MULTIPOLES>
381.05
13.75
1.39
1.19
3.15
0.12
-0.79
0.86
2.02
0.33
-0.03
-0.49
-0.45
0.18

> <PUBCHEM_SHAPE_SELFOVERLAP>
812.086

> <PUBCHEM_SHAPE_VOLUME>
209.7

> <PUBCHEM_COORDINATE_TYPE>
2
5
10

$$$$
