137484
  -OEChem-11012400433D

 28 28  0     0  0  0  0  0  0999 V2000
   -1.9611    0.3059   -0.1625 O   0  0  0  0  0  0  0  0  0  0  0  0
   -1.4896   -1.7705    0.6873 O   0  0  0  0  0  0  0  0  0  0  0  0
    2.4866   -0.5462   -0.2391 N   0  0  0  0  0  0  0  0  0  0  0  0
    0.8908    0.9461    0.1593 C   0  0  0  0  0  0  0  0  0  0  0  0
    0.2996   -0.3395    0.0873 C   0  0  0  0  0  0  0  0  0  0  0  0
    2.2438    0.7887   -0.0460 C   0  0  0  0  0  0  0  0  0  0  0  0
    1.3092   -1.2433   -0.1594 C   0  0  0  0  0  0  0  0  0  0  0  0
    0.1899    2.2226    0.4097 C   0  0  0  0  0  0  0  0  0  0  0  0
    3.3412    1.7746   -0.0796 C   0  0  0  0  0  0  0  0  0  0  0  0
    1.2828   -2.7094   -0.3298 C   0  0  0  0  0  0  0  0  0  0  0  0
   -1.0865   -0.6839    0.2383 C   0  0  0  0  0  0  0  0  0  0  0  0
   -3.3605    0.0280   -0.0392 C   0  0  0  0  0  0  0  0  0  0  0  0
   -4.1462    1.2269   -0.5263 C   0  0  0  0  0  0  0  0  0  0  0  0
    3.3952   -0.9544   -0.4125 H   0  0  0  0  0  0  0  0  0  0  0  0
    0.8892    3.0281    0.6562 H   0  0  0  0  0  0  0  0  0  0  0  0
   -0.3737    2.5321   -0.4763 H   0  0  0  0  0  0  0  0  0  0  0  0
   -0.5046    2.1310    1.2513 H   0  0  0  0  0  0  0  0  0  0  0  0
    4.2908    1.3196   -0.3803 H   0  0  0  0  0  0  0  0  0  0  0  0
    3.1166    2.5761   -0.7909 H   0  0  0  0  0  0  0  0  0  0  0  0
    3.4818    2.2231    0.9090 H   0  0  0  0  0  0  0  0  0  0  0  0
    0.5139   -3.0016   -1.0523 H   0  0  0  0  0  0  0  0  0  0  0  0
    2.2411   -3.0943   -0.6942 H   0  0  0  0  0  0  0  0  0  0  0  0
    1.0644   -3.2013    0.6234 H   0  0  0  0  0  0  0  0  0  0  0  0
   -3.6111   -0.8508   -0.6432 H   0  0  0  0  0  0  0  0  0  0  0  0
   -3.6000   -0.1710    1.0111 H   0  0  0  0  0  0  0  0  0  0  0  0
   -5.2221    1.0489   -0.4451 H   0  0  0  0  0  0  0  0  0  0  0  0
   -3.8896    2.1179    0.0562 H   0  0  0  0  0  0  0  0  0  0  0  0
   -3.9020    1.4490   -1.5703 H   0  0  0  0  0  0  0  0  0  0  0  0
  1 11  1  0  0  0  0
  1 12  1  0  0  0  0
  2 11  2  0  0  0  0
  3  6  1  0  0  0  0
  3  7  1  0  0  0  0
  3 14  1  0  0  0  0
  4  5  1  0  0  0  0
  4  6  2  0  0  0  0
  4  8  1  0  0  0  0
  5  7  2  0  0  0  0
  5 11  1  0  0  0  0
  6  9  1  0  0  0  0
  7 10  1  0  0  0  0
  8 15  1  0  0  0  0
  8 16  1  0  0  0  0
  8 17  1  0  0  0  0
  9 18  1  0  0  0  0
  9 19  1  0  0  0  0
  9 20  1  0  0  0  0
 10 21  1  0  0  0  0
 10 22  1  0  0  0  0
 10 23  1  0  0  0  0
 12 13  1  0  0  0  0
 12 24  1  0  0  0  0
 12 25  1  0  0  0  0
 13 26  1  0  0  0  0
 13 27  1  0  0  0  0
 13 28  1  0  0  0  0
M  END
> <PUBCHEM_COMPOUND_CID>
137484

> <PUBCHEM_CONFORMER_RMSD>
0.6

> <PUBCHEM_CONFORMER_DIVERSEORDER>
2
3
16
7
4
15
1
9
5
6
8
10
11
13
12
14

> <PUBCHEM_MMFF94_PARTIAL_CHARGES>
13
1 -0.43
10 0.18
11 0.81
12 0.28
14 0.27
2 -0.57
3 0.03
4 -0.18
5 -0.09
6 -0.33
7 -0.33
8 0.18
9 0.18

> <PUBCHEM_EFFECTIVE_ROTOR_COUNT>
3

> <PUBCHEM_PHARMACOPHORE_FEATURES>
4
1 2 acceptor
1 3 cation
1 3 donor
5 3 4 5 6 7 rings

> <PUBCHEM_HEAVY_ATOM_COUNT>
13

> <PUBCHEM_ATOM_DEF_STEREO_COUNT>
0

> <PUBCHEM_ATOM_UDEF_STEREO_COUNT>
0

> <PUBCHEM_BOND_DEF_STEREO_COUNT>
0

> <PUBCHEM_BOND_UDEF_STEREO_COUNT>
0

> <PUBCHEM_ISOTOPIC_ATOM_COUNT>
0

> <PUBCHEM_COMPONENT_COUNT>
1

> <PUBCHEM_CACTVS_TAUTO_COUNT>
2

> <PUBCHEM_CONFORMER_ID>
0002190C00000002

> <PUBCHEM_MMFF94_ENERGY>
13.2389

> <PUBCHEM_FEATURE_SELFOVERLAP>
20.297

> <PUBCHEM_SHAPE_FINGERPRINT>
10608611 8 18335701667506759965
10980938 120 18411979148417042805
11031198 65 18411423925041150501
11471102 20 18411696560917371005
116883 192 17553485778044976981
12654215 9 18410007710925231636
13380535 76 18336261327240984507
14617773 55 17630050356134234665
14648413 74 18263646323889406953
14897335 6 18411132567291995975
15219456 202 18335708264360294379
15442244 35 17909833132952229529
16945 1 18267598926583746458
18186145 218 18336549296619554005
193761 8 18051699841371760928
20201158 50 18410293571147895551
20588541 1 18408041822921303645
20606313 2 18339636733807445117
20645477 70 18271523092373816983
21040471 1 18124035891092793258
21501502 16 18336537313349925415
21947302 44 18410289173217383507
2334 1 18267872863892956498
23402655 69 18343013385793641653
23419403 2 17407354128656646096
23559900 14 18057055820979576220
241688 4 17474672745948340778
25 1 18409727361419733237
2748010 2 18267880534715070678
528886 8 18340484568730717512
53812653 166 18269835474773573360
63268167 104 18341614780990603145
7364860 26 18341611456606813974

> <PUBCHEM_SHAPE_MULTIPOLES>
250.81
5.45
2.49
0.68
4.84
0.72
0.01
-2.53
-0.93
-1.28
0.02
0.11
0.01
0.42

> <PUBCHEM_SHAPE_SELFOVERLAP>
511.988

> <PUBCHEM_SHAPE_VOLUME>
148.5

> <PUBCHEM_COORDINATE_TYPE>
2
5
10

$$$$
