69051
  -OEChem-11012400553D

 23 23  0     0  0  0  0  0  0999 V2000
    2.6223    1.0981    0.0016 O   0  5  0  0  0  0  0  0  0  0  0  0
    2.6230   -1.0972    0.0005 O   0  0  0  0  0  0  0  0  0  0  0  0
    2.0193    0.0003    0.0002 N   0  3  0  0  0  0  0  0  0  0  0  0
   -0.1029    1.2078   -0.0013 C   0  0  0  0  0  0  0  0  0  0  0  0
   -0.1027   -1.2081   -0.0009 C   0  0  0  0  0  0  0  0  0  0  0  0
    0.5946   -0.0001   -0.0013 C   0  0  0  0  0  0  0  0  0  0  0  0
   -2.1951   -0.0003   -0.0004 C   0  0  0  0  0  0  0  0  0  0  0  0
   -1.4978    1.2077   -0.0007 C   0  0  0  0  0  0  0  0  0  0  0  0
   -1.4976   -1.2083   -0.0005 C   0  0  0  0  0  0  0  0  0  0  0  0
    0.6114    2.5210    0.0002 C   0  0  0  0  0  0  0  0  0  0  0  0
    0.6123   -2.5211    0.0004 C   0  0  0  0  0  0  0  0  0  0  0  0
   -3.6866    0.0002    0.0023 C   0  0  0  0  0  0  0  0  0  0  0  0
   -2.0482    2.1457   -0.0020 H   0  0  0  0  0  0  0  0  0  0  0  0
   -2.0478   -2.1464   -0.0018 H   0  0  0  0  0  0  0  0  0  0  0  0
    1.1970    2.6720    0.9132 H   0  0  0  0  0  0  0  0  0  0  0  0
    1.1995    2.6728   -0.9111 H   0  0  0  0  0  0  0  0  0  0  0  0
   -0.1146    3.3451   -0.0006 H   0  0  0  0  0  0  0  0  0  0  0  0
   -0.1134   -3.3454    0.0004 H   0  0  0  0  0  0  0  0  0  0  0  0
    1.1986   -2.6716    0.9131 H   0  0  0  0  0  0  0  0  0  0  0  0
    1.1998   -2.6728   -0.9113 H   0  0  0  0  0  0  0  0  0  0  0  0
   -4.0818   -0.8846    0.5129 H   0  0  0  0  0  0  0  0  0  0  0  0
   -4.0806    0.8758    0.5294 H   0  0  0  0  0  0  0  0  0  0  0  0
   -4.0639    0.0097   -1.0250 H   0  0  0  0  0  0  0  0  0  0  0  0
  1  3  1  0  0  0  0
  2  3  2  0  0  0  0
  3  6  1  0  0  0  0
  4  6  2  0  0  0  0
  4  8  1  0  0  0  0
  4 10  1  0  0  0  0
  5  6  1  0  0  0  0
  5  9  2  0  0  0  0
  5 11  1  0  0  0  0
  7  8  2  0  0  0  0
  7  9  1  0  0  0  0
  7 12  1  0  0  0  0
  8 13  1  0  0  0  0
  9 14  1  0  0  0  0
 10 15  1  0  0  0  0
 10 16  1  0  0  0  0
 10 17  1  0  0  0  0
 11 18  1  0  0  0  0
 11 19  1  0  0  0  0
 11 20  1  0  0  0  0
 12 21  1  0  0  0  0
 12 22  1  0  0  0  0
 12 23  1  0  0  0  0
M  CHG  2   1  -1   3   1
M  END
> <PUBCHEM_COMPOUND_CID>
69051

> <PUBCHEM_CONFORMER_RMSD>
0.4

> <PUBCHEM_CONFORMER_DIVERSEORDER>
1

> <PUBCHEM_MMFF94_PARTIAL_CHARGES>
14
1 -0.52
10 0.14
11 0.14
12 0.14
13 0.15
14 0.15
2 -0.52
3 0.91
4 -0.14
5 -0.14
6 0.13
7 -0.14
8 -0.15
9 -0.15

> <PUBCHEM_EFFECTIVE_ROTOR_COUNT>
1

> <PUBCHEM_PHARMACOPHORE_FEATURES>
4
1 1 acceptor
1 1 anion
1 2 acceptor
6 4 5 6 7 8 9 rings

> <PUBCHEM_HEAVY_ATOM_COUNT>
12

> <PUBCHEM_ATOM_DEF_STEREO_COUNT>
0

> <PUBCHEM_ATOM_UDEF_STEREO_COUNT>
0

> <PUBCHEM_BOND_DEF_STEREO_COUNT>
0

> <PUBCHEM_BOND_UDEF_STEREO_COUNT>
0

> <PUBCHEM_ISOTOPIC_ATOM_COUNT>
0

> <PUBCHEM_COMPONENT_COUNT>
1

> <PUBCHEM_CACTVS_TAUTO_COUNT>
1

> <PUBCHEM_CONFORMER_ID>
00010DBB00000001

> <PUBCHEM_MMFF94_ENERGY>
51.291

> <PUBCHEM_FEATURE_SELFOVERLAP>
20.379

> <PUBCHEM_SHAPE_FINGERPRINT>
10219947 1 18410577284039742915
10967382 1 18410574006657955623
11471102 20 18410288108492755677
12032990 46 18410582747111926087
12423570 1 8324712549153459215
12524768 44 18413393120148914206
13380535 76 18051685847967403400
14251717 144 18411693314359834751
14325111 11 18410856577141509569
161256 15 18197223533427579638
16945 1 18410573985467936263
193761 8 17690279309395757189
20201158 50 18335701603124481035
20588541 1 18335144176456765363
20645476 183 17751095788846736078
21040471 1 17978510072268813253
21501502 16 17978231552060680315
2334 1 17978228593123456525
23402655 69 18267849607436593421
23463225 33 18335980870203119530
23552423 10 18118973494212802207
23559900 14 18053681441147605132
241688 4 17905893578346955619
2748010 2 18410293639819724230
5084963 1 18202282480916036635
528886 8 18411132580071351003
53812653 166 18270396225656279376
63268167 104 18412266155290596857
66348 1 18410856533891091354

> <PUBCHEM_SHAPE_MULTIPOLES>
230.23
3.86
2.41
0.59
1.54
0
0
0
0
-0.94
0
0.06
0
0

> <PUBCHEM_SHAPE_SELFOVERLAP>
483.256

> <PUBCHEM_SHAPE_VOLUME>
132.7

> <PUBCHEM_COORDINATE_TYPE>
2
5
10

$$$$
