252324
  -OEChem-11012400443D

 19 19  0     0  0  0  0  0  0999 V2000
    0.1697    0.3573   -0.3299 C   0  0  0  0  0  0  0  0  0  0  0  0
   -0.7277    1.2952    0.1804 C   0  0  0  0  0  0  0  0  0  0  0  0
   -0.2430   -0.9576   -0.5451 C   0  0  0  0  0  0  0  0  0  0  0  0
    1.5354    0.7495   -0.6398 C   0  0  0  0  0  0  0  0  0  0  0  0
   -2.0380    0.9183    0.4753 C   0  0  0  0  0  0  0  0  0  0  0  0
   -1.5532   -1.3345   -0.2503 C   0  0  0  0  0  0  0  0  0  0  0  0
   -2.4508   -0.3966    0.2599 C   0  0  0  0  0  0  0  0  0  0  0  0
    2.6547    0.2257   -0.0900 C   0  0  0  0  0  0  0  0  0  0  0  0
    2.6530   -0.8572    0.9396 C   0  0  0  0  0  0  0  0  0  0  0  0
   -0.4211    2.3239    0.3540 H   0  0  0  0  0  0  0  0  0  0  0  0
    0.4371   -1.7026   -0.9515 H   0  0  0  0  0  0  0  0  0  0  0  0
    1.6413    1.5560   -1.3615 H   0  0  0  0  0  0  0  0  0  0  0  0
   -2.7369    1.6486    0.8725 H   0  0  0  0  0  0  0  0  0  0  0  0
   -1.8754   -2.3578   -0.4200 H   0  0  0  0  0  0  0  0  0  0  0  0
   -3.4711   -0.6899    0.4889 H   0  0  0  0  0  0  0  0  0  0  0  0
    3.6203    0.6077   -0.4099 H   0  0  0  0  0  0  0  0  0  0  0  0
    2.9566   -1.8059    0.4866 H   0  0  0  0  0  0  0  0  0  0  0  0
    3.3812   -0.6099    1.7196 H   0  0  0  0  0  0  0  0  0  0  0  0
    1.6925   -0.9951    1.4419 H   0  0  0  0  0  0  0  0  0  0  0  0
  1  2  2  0  0  0  0
  1  3  1  0  0  0  0
  1  4  1  0  0  0  0
  2  5  1  0  0  0  0
  2 10  1  0  0  0  0
  3  6  2  0  0  0  0
  3 11  1  0  0  0  0
  4  8  2  0  0  0  0
  4 12  1  0  0  0  0
  5  7  2  0  0  0  0
  5 13  1  0  0  0  0
  6  7  1  0  0  0  0
  6 14  1  0  0  0  0
  7 15  1  0  0  0  0
  8  9  1  0  0  0  0
  8 16  1  0  0  0  0
  9 17  1  0  0  0  0
  9 18  1  0  0  0  0
  9 19  1  0  0  0  0
M  END
> <PUBCHEM_COMPOUND_CID>
252324

> <PUBCHEM_CONFORMER_RMSD>
0.4

> <PUBCHEM_CONFORMER_DIVERSEORDER>
1
2

> <PUBCHEM_MMFF94_PARTIAL_CHARGES>
16
1 0.03
10 0.15
11 0.15
12 0.15
13 0.15
14 0.15
15 0.15
16 0.15
2 -0.15
3 -0.15
4 -0.18
5 -0.15
6 -0.15
7 -0.15
8 -0.29
9 0.14

> <PUBCHEM_EFFECTIVE_ROTOR_COUNT>
1

> <PUBCHEM_PHARMACOPHORE_FEATURES>
2
1 9 hydrophobe
6 1 2 3 5 6 7 rings

> <PUBCHEM_HEAVY_ATOM_COUNT>
9

> <PUBCHEM_ATOM_DEF_STEREO_COUNT>
0

> <PUBCHEM_ATOM_UDEF_STEREO_COUNT>
0

> <PUBCHEM_BOND_DEF_STEREO_COUNT>
1

> <PUBCHEM_BOND_UDEF_STEREO_COUNT>
0

> <PUBCHEM_ISOTOPIC_ATOM_COUNT>
0

> <PUBCHEM_COMPONENT_COUNT>
1

> <PUBCHEM_CACTVS_TAUTO_COUNT>
1

> <PUBCHEM_CONFORMER_ID>
0003D9A400000001

> <PUBCHEM_MMFF94_ENERGY>
22.9645

> <PUBCHEM_FEATURE_SELFOVERLAP>
10.148

> <PUBCHEM_SHAPE_FINGERPRINT>
10857977 72 17846216699891256433
12932764 1 18259708904025563596
15076042 46 18269273474102571096
15310529 11 17458349666578192277
16945 1 18272095993428618749
18185500 45 18264208195673882270
20645464 45 17275381006442386034
20871998 184 17916872450979696759
21040471 1 18200047131032985749
23552423 10 18046067322000772229
2748010 2 17909567068418293381
29004967 10 16371007433693582748
369184 2 18411976974889303945
5084963 1 18259984876916929436

> <PUBCHEM_SHAPE_MULTIPOLES>
185.22
3.91
1.38
0.85
1.52
0.06
-0.05
0.42
-0.83
-0.37
-0.01
0.24
0.06
-0.49

> <PUBCHEM_SHAPE_SELFOVERLAP>
377.664

> <PUBCHEM_SHAPE_VOLUME>
103.2

> <PUBCHEM_COORDINATE_TYPE>
2
5
10

$$$$
