637668
  -OEChem-11012401153D

 23 23  0     0  0  0  0  0  0999 V2000
   -2.8754    1.6337    0.1043 O   0  0  0  0  0  0  0  0  0  0  0  0
    4.1887    1.5647   -0.2934 O   0  0  0  0  0  0  0  0  0  0  0  0
    4.2959   -0.6352    0.3010 O   0  0  0  0  0  0  0  0  0  0  0  0
   -0.0356   -0.6731    0.0493 C   0  0  0  0  0  0  0  0  0  0  0  0
   -0.7675    0.5128    0.1123 C   0  0  0  0  0  0  0  0  0  0  0  0
   -2.1601    0.4773    0.0409 C   0  0  0  0  0  0  0  0  0  0  0  0
   -0.6963   -1.8942   -0.0849 C   0  0  0  0  0  0  0  0  0  0  0  0
   -2.8207   -0.7440   -0.0934 C   0  0  0  0  0  0  0  0  0  0  0  0
   -2.0888   -1.9297   -0.1562 C   0  0  0  0  0  0  0  0  0  0  0  0
    1.4165   -0.6371    0.1243 C   0  0  0  0  0  0  0  0  0  0  0  0
    2.1851    0.4459   -0.1266 C   0  0  0  0  0  0  0  0  0  0  0  0
   -4.2958    1.5236    0.0274 C   0  0  0  0  0  0  0  0  0  0  0  0
    3.6540    0.3552   -0.0051 C   0  0  0  0  0  0  0  0  0  0  0  0
   -0.2914    1.4816    0.2365 H   0  0  0  0  0  0  0  0  0  0  0  0
   -0.1429   -2.8288   -0.1369 H   0  0  0  0  0  0  0  0  0  0  0  0
   -3.8990   -0.8442   -0.1546 H   0  0  0  0  0  0  0  0  0  0  0  0
   -2.6024   -2.8811   -0.2610 H   0  0  0  0  0  0  0  0  0  0  0  0
    1.8932   -1.5746    0.4036 H   0  0  0  0  0  0  0  0  0  0  0  0
    1.7750    1.4021   -0.4312 H   0  0  0  0  0  0  0  0  0  0  0  0
   -4.7023    0.9602    0.8743 H   0  0  0  0  0  0  0  0  0  0  0  0
   -4.6162    1.1134   -0.9363 H   0  0  0  0  0  0  0  0  0  0  0  0
   -4.7027    2.5379    0.0939 H   0  0  0  0  0  0  0  0  0  0  0  0
    5.1675    1.5588   -0.2276 H   0  0  0  0  0  0  0  0  0  0  0  0
  1  6  1  0  0  0  0
  1 12  1  0  0  0  0
  2 13  1  0  0  0  0
  2 23  1  0  0  0  0
  3 13  2  0  0  0  0
  4  5  2  0  0  0  0
  4  7  1  0  0  0  0
  4 10  1  0  0  0  0
  5  6  1  0  0  0  0
  5 14  1  0  0  0  0
  6  8  2  0  0  0  0
  7  9  2  0  0  0  0
  7 15  1  0  0  0  0
  8  9  1  0  0  0  0
  8 16  1  0  0  0  0
  9 17  1  0  0  0  0
 10 11  2  0  0  0  0
 10 18  1  0  0  0  0
 11 13  1  0  0  0  0
 11 19  1  0  0  0  0
 12 20  1  0  0  0  0
 12 21  1  0  0  0  0
 12 22  1  0  0  0  0
M  END
> <PUBCHEM_COMPOUND_CID>
637668

> <PUBCHEM_CONFORMER_RMSD>
0.6

> <PUBCHEM_CONFORMER_DIVERSEORDER>
2
7
1
6
4
5
3

> <PUBCHEM_MMFF94_PARTIAL_CHARGES>
20
1 -0.36
10 -0.18
11 -0.14
12 0.28
13 0.71
14 0.15
15 0.15
16 0.15
17 0.15
18 0.15
19 0.15
2 -0.65
23 0.5
3 -0.57
4 0.03
5 -0.15
6 0.08
7 -0.15
8 -0.15
9 -0.15

> <PUBCHEM_EFFECTIVE_ROTOR_COUNT>
3

> <PUBCHEM_PHARMACOPHORE_FEATURES>
5
1 1 acceptor
1 2 acceptor
1 3 acceptor
3 2 3 13 anion
6 4 5 6 7 8 9 rings

> <PUBCHEM_HEAVY_ATOM_COUNT>
13

> <PUBCHEM_ATOM_DEF_STEREO_COUNT>
0

> <PUBCHEM_ATOM_UDEF_STEREO_COUNT>
0

> <PUBCHEM_BOND_DEF_STEREO_COUNT>
1

> <PUBCHEM_BOND_UDEF_STEREO_COUNT>
0

> <PUBCHEM_ISOTOPIC_ATOM_COUNT>
0

> <PUBCHEM_COMPONENT_COUNT>
1

> <PUBCHEM_CACTVS_TAUTO_COUNT>
1

> <PUBCHEM_CONFORMER_ID>
0009BAE400000002

> <PUBCHEM_MMFF94_ENERGY>
42.2381

> <PUBCHEM_FEATURE_SELFOVERLAP>
25.427

> <PUBCHEM_SHAPE_FINGERPRINT>
10014705 185 18335979839326747877
10608611 8 18342736368671120184
122479 349 18334581234739708017
12932764 1 17560516334787585038
13024252 1 13045932526157771719
13380535 76 18341612568892638935
14123255 52 18337107848373756157
14144814 61 18335419101703262770
14325111 11 18410575106559986506
14897335 6 18339640044974243519
15219456 202 18130516244569741134
15669948 3 18269829968731150646
15775835 57 18334576815202594593
1741750 31 18343304734414550683
17834072 32 18411141333220585493
18186145 218 18059871523321294398
200 152 9871742473518738585
20279233 1 16558749018719900430
20510252 161 18343026630976799947
20645477 56 18411704283147210789
20645477 70 16845023325083906198
20711983 171 18411139160356841972
21499 59 18338791205234307021
21524375 3 18340202982158664539
23402539 116 18200865219033689812
23557571 272 18129675208526600038
23559900 14 18202281386643647642
3071541 12 17765440846608533023
366044 4 18411417276727279171
5104073 3 18408320008279925714
573450 72 18335968844695689218
58051976 100 18335703819280366982
6333449 129 18341893008866334863
6430166 295 18410007698335553496
7364860 26 18124877863286051518

> <PUBCHEM_SHAPE_MULTIPOLES>
249.93
7.85
1.89
0.61
5.44
0.26
0
-3.85
0.04
-1.37
0.08
0
0.02
-0.3

> <PUBCHEM_SHAPE_SELFOVERLAP>
517.613

> <PUBCHEM_SHAPE_VOLUME>
143.2

> <PUBCHEM_COORDINATE_TYPE>
2
5
10

$$$$
