139827
  -OEChem-11012401273D

 23 23  0     1  0  0  0  0  0999 V2000
   -0.9354   -2.2907   -0.0355 O   0  0  0  0  0  0  0  0  0  0  0  0
    2.5578    1.6824   -0.3942 O   0  0  0  0  0  0  0  0  0  0  0  0
    0.3816    0.9562   -0.1448 N   0  0  0  0  0  0  0  0  0  0  0  0
    1.2422   -1.5470   -0.0447 N   0  0  0  0  0  0  0  0  0  0  0  0
   -0.5108    0.0292    0.5371 C   0  0  1  0  0  0  0  0  0  0  0  0
   -1.9673    0.3434    0.2353 C   0  0  0  0  0  0  0  0  0  0  0  0
   -0.1265   -1.3740    0.0868 C   0  0  0  0  0  0  0  0  0  0  0  0
   -2.3350    1.7435    0.7288 C   0  0  0  0  0  0  0  0  0  0  0  0
   -2.2520    0.2160   -1.2620 C   0  0  0  0  0  0  0  0  0  0  0  0
    2.1889   -0.5515    0.4140 C   0  0  0  0  0  0  0  0  0  0  0  0
    1.7566    0.7924   -0.1209 C   0  0  0  0  0  0  0  0  0  0  0  0
   -0.3121    0.1028    1.6137 H   0  0  0  0  0  0  0  0  0  0  0  0
   -2.6047   -0.3771    0.7641 H   0  0  0  0  0  0  0  0  0  0  0  0
    0.0351    1.8615   -0.4451 H   0  0  0  0  0  0  0  0  0  0  0  0
   -1.8492    2.5378    0.1542 H   0  0  0  0  0  0  0  0  0  0  0  0
   -3.4161    1.9004    0.6419 H   0  0  0  0  0  0  0  0  0  0  0  0
   -2.0692    1.8696    1.7837 H   0  0  0  0  0  0  0  0  0  0  0  0
   -1.6575    0.9168   -1.8577 H   0  0  0  0  0  0  0  0  0  0  0  0
   -3.3062    0.4425   -1.4606 H   0  0  0  0  0  0  0  0  0  0  0  0
   -2.0721   -0.7911   -1.6469 H   0  0  0  0  0  0  0  0  0  0  0  0
    3.1754   -0.8129    0.0234 H   0  0  0  0  0  0  0  0  0  0  0  0
    2.1977   -0.5367    1.5074 H   0  0  0  0  0  0  0  0  0  0  0  0
    1.5881   -2.4688   -0.2930 H   0  0  0  0  0  0  0  0  0  0  0  0
  1  7  2  0  0  0  0
  2 11  2  0  0  0  0
  3  5  1  0  0  0  0
  3 11  1  0  0  0  0
  3 14  1  0  0  0  0
  4  7  1  0  0  0  0
  4 10  1  0  0  0  0
  4 23  1  0  0  0  0
  5  6  1  0  0  0  0
  5  7  1  0  0  0  0
  5 12  1  0  0  0  0
  6  8  1  0  0  0  0
  6  9  1  0  0  0  0
  6 13  1  0  0  0  0
  8 15  1  0  0  0  0
  8 16  1  0  0  0  0
  8 17  1  0  0  0  0
  9 18  1  0  0  0  0
  9 19  1  0  0  0  0
  9 20  1  0  0  0  0
 10 11  1  0  0  0  0
 10 21  1  0  0  0  0
 10 22  1  0  0  0  0
M  END
> <PUBCHEM_COMPOUND_CID>
139827

> <PUBCHEM_CONFORMER_RMSD>
0.4

> <PUBCHEM_CONFORMER_DIVERSEORDER>
1
8
3
5
7
4
6
2

> <PUBCHEM_MMFF94_PARTIAL_CHARGES>
10
1 -0.57
10 0.36
11 0.57
14 0.37
2 -0.57
23 0.37
3 -0.73
4 -0.73
5 0.36
7 0.57

> <PUBCHEM_EFFECTIVE_ROTOR_COUNT>
1.8

> <PUBCHEM_PHARMACOPHORE_FEATURES>
6
1 1 acceptor
1 2 acceptor
1 3 donor
1 4 donor
3 6 8 9 hydrophobe
6 3 4 5 7 10 11 rings

> <PUBCHEM_HEAVY_ATOM_COUNT>
11

> <PUBCHEM_ATOM_DEF_STEREO_COUNT>
0

> <PUBCHEM_ATOM_UDEF_STEREO_COUNT>
1

> <PUBCHEM_BOND_DEF_STEREO_COUNT>
0

> <PUBCHEM_BOND_UDEF_STEREO_COUNT>
0

> <PUBCHEM_ISOTOPIC_ATOM_COUNT>
0

> <PUBCHEM_COMPONENT_COUNT>
1

> <PUBCHEM_CACTVS_TAUTO_COUNT>
4

> <PUBCHEM_CONFORMER_ID>
0002223300000001

> <PUBCHEM_MMFF94_ENERGY>
33.5203

> <PUBCHEM_FEATURE_SELFOVERLAP>
30.455

> <PUBCHEM_SHAPE_FINGERPRINT>
11206711 2 17904763623964683382
16945 1 18262515871227364738
18185500 45 17911230616473183571
21040471 1 18412265042798972202
23552423 10 18197494026531428511
241688 4 17113544714341281594
2748010 2 18337959016407648694
29004967 10 17901959534411919859
5084963 1 18199453407538466801
528886 8 18266739073888331897

> <PUBCHEM_SHAPE_MULTIPOLES>
204.67
3.52
2.01
0.86
0.1
0.5
-0.13
-1.53
-0.16
-0.26
0.03
0.44
-0.11
-0.49

> <PUBCHEM_SHAPE_SELFOVERLAP>
410.09

> <PUBCHEM_SHAPE_VOLUME>
119.8

> <PUBCHEM_COORDINATE_TYPE>
2
5
10

$$$$
