140531
  -OEChem-11012401023D

 26 26  0     0  0  0  0  0  0999 V2000
    0.6120    0.1206    1.2010 N   0  0  0  0  0  0  0  0  0  0  0  0
   -0.6122   -0.1258    1.2006 N   0  0  0  0  0  0  0  0  0  0  0  0
    1.4390   -0.0001   -0.0125 C   0  0  0  0  0  0  0  0  0  0  0  0
   -1.4390    0.0002   -0.0125 C   0  0  0  0  0  0  0  0  0  0  0  0
    0.6726    0.3488   -1.2872 C   0  0  0  0  0  0  0  0  0  0  0  0
   -0.6728   -0.3460   -1.2879 C   0  0  0  0  0  0  0  0  0  0  0  0
    2.6147    0.9747    0.1513 C   0  0  0  0  0  0  0  0  0  0  0  0
    1.9925   -1.4338   -0.0527 C   0  0  0  0  0  0  0  0  0  0  0  0
   -2.6162   -0.9734    0.1481 C   0  0  0  0  0  0  0  0  0  0  0  0
   -1.9906    1.4348   -0.0483 C   0  0  0  0  0  0  0  0  0  0  0  0
    1.2441    0.0580   -2.1771 H   0  0  0  0  0  0  0  0  0  0  0  0
    0.5235    1.4327   -1.3621 H   0  0  0  0  0  0  0  0  0  0  0  0
   -1.2443   -0.0531   -2.1771 H   0  0  0  0  0  0  0  0  0  0  0  0
   -0.5238   -1.4298   -1.3652 H   0  0  0  0  0  0  0  0  0  0  0  0
    2.2599    2.0079    0.2425 H   0  0  0  0  0  0  0  0  0  0  0  0
    3.1917    0.7529    1.0566 H   0  0  0  0  0  0  0  0  0  0  0  0
    3.2961    0.9240   -0.7051 H   0  0  0  0  0  0  0  0  0  0  0  0
    1.1913   -2.1799   -0.0761 H   0  0  0  0  0  0  0  0  0  0  0  0
    2.6282   -1.5898   -0.9311 H   0  0  0  0  0  0  0  0  0  0  0  0
    2.5939   -1.6475    0.8389 H   0  0  0  0  0  0  0  0  0  0  0  0
   -3.1930   -0.7536    1.0541 H   0  0  0  0  0  0  0  0  0  0  0  0
   -3.2974   -0.9189   -0.7082 H   0  0  0  0  0  0  0  0  0  0  0  0
   -2.2630   -2.0074    0.2361 H   0  0  0  0  0  0  0  0  0  0  0  0
   -1.1887    2.1801   -0.0688 H   0  0  0  0  0  0  0  0  0  0  0  0
   -2.6257    1.5943   -0.9266 H   0  0  0  0  0  0  0  0  0  0  0  0
   -2.5924    1.6462    0.8435 H   0  0  0  0  0  0  0  0  0  0  0  0
  1  2  2  0  0  0  0
  1  3  1  0  0  0  0
  2  4  1  0  0  0  0
  3  5  1  0  0  0  0
  3  7  1  0  0  0  0
  3  8  1  0  0  0  0
  4  6  1  0  0  0  0
  4  9  1  0  0  0  0
  4 10  1  0  0  0  0
  5  6  1  0  0  0  0
  5 11  1  0  0  0  0
  5 12  1  0  0  0  0
  6 13  1  0  0  0  0
  6 14  1  0  0  0  0
  7 15  1  0  0  0  0
  7 16  1  0  0  0  0
  7 17  1  0  0  0  0
  8 18  1  0  0  0  0
  8 19  1  0  0  0  0
  8 20  1  0  0  0  0
  9 21  1  0  0  0  0
  9 22  1  0  0  0  0
  9 23  1  0  0  0  0
 10 24  1  0  0  0  0
 10 25  1  0  0  0  0
 10 26  1  0  0  0  0
M  END
> <PUBCHEM_COMPOUND_CID>
140531

> <PUBCHEM_CONFORMER_RMSD>
0.4

> <PUBCHEM_CONFORMER_DIVERSEORDER>
2
1

> <PUBCHEM_MMFF94_PARTIAL_CHARGES>
4
1 -0.25
2 -0.25
3 0.25
4 0.25

> <PUBCHEM_EFFECTIVE_ROTOR_COUNT>
0.8

> <PUBCHEM_PHARMACOPHORE_FEATURES>
3
3 3 7 8 hydrophobe
3 4 9 10 hydrophobe
6 1 2 3 4 5 6 rings

> <PUBCHEM_HEAVY_ATOM_COUNT>
10

> <PUBCHEM_ATOM_DEF_STEREO_COUNT>
0

> <PUBCHEM_ATOM_UDEF_STEREO_COUNT>
0

> <PUBCHEM_BOND_DEF_STEREO_COUNT>
0

> <PUBCHEM_BOND_UDEF_STEREO_COUNT>
0

> <PUBCHEM_ISOTOPIC_ATOM_COUNT>
0

> <PUBCHEM_COMPONENT_COUNT>
1

> <PUBCHEM_CACTVS_TAUTO_COUNT>
1

> <PUBCHEM_CONFORMER_ID>
000224F300000002

> <PUBCHEM_MMFF94_ENERGY>
31.3098

> <PUBCHEM_FEATURE_SELFOVERLAP>
15.223

> <PUBCHEM_SHAPE_FINGERPRINT>
10857977 72 15984824873922367311
12897270 3 18338797926235632813
12932764 1 18341906176877316319
15310529 11 18343862229537946762
16945 1 18338797943399645236
21040471 1 15647047131946408058
21922407 69 18336554922514956925
23552423 10 18334577901850614307
24536 1 18263341664430994164
29004967 10 18408322198460051138
369184 2 18413670201453026817
5084963 1 17917715716199696838

> <PUBCHEM_SHAPE_MULTIPOLES>
195.83
3.46
1.26
1.18
0
0
0.13
0
-0.27
0
0
0
0
0.06

> <PUBCHEM_SHAPE_SELFOVERLAP>
384.047

> <PUBCHEM_SHAPE_VOLUME>
119.2

> <PUBCHEM_COORDINATE_TYPE>
2
5
10

$$$$
