22315613
  -OEChem-11012401213D

 19 19  0     0  0  0  0  0  0999 V2000
    3.0989    1.2692    0.7218 F   0  0  0  0  0  0  0  0  0  0  0  0
    3.9184   -0.5130   -0.2204 F   0  0  0  0  0  0  0  0  0  0  0  0
    1.4991   -1.5449    0.0318 O   0  0  0  0  0  0  0  0  0  0  0  0
    0.4883    0.5722   -0.1929 N   0  0  0  0  0  0  0  0  0  0  0  0
   -0.8766    0.3007   -0.0929 C   0  0  0  0  0  0  0  0  0  0  0  0
   -1.8033    1.3380   -0.1974 C   0  0  0  0  0  0  0  0  0  0  0  0
   -1.3144   -1.0076    0.1124 C   0  0  0  0  0  0  0  0  0  0  0  0
   -3.1679    1.0668   -0.0969 C   0  0  0  0  0  0  0  0  0  0  0  0
   -2.6790   -1.2788    0.2128 C   0  0  0  0  0  0  0  0  0  0  0  0
    1.5580   -0.3286   -0.1141 C   0  0  0  0  0  0  0  0  0  0  0  0
   -3.6058   -0.2416    0.1082 C   0  0  0  0  0  0  0  0  0  0  0  0
    2.8844    0.3675   -0.2723 C   0  0  0  0  0  0  0  0  0  0  0  0
    0.7272    1.5515   -0.3353 H   0  0  0  0  0  0  0  0  0  0  0  0
   -1.4765    2.3623   -0.3571 H   0  0  0  0  0  0  0  0  0  0  0  0
   -0.6579   -1.8614    0.2056 H   0  0  0  0  0  0  0  0  0  0  0  0
   -3.8897    1.8743   -0.1782 H   0  0  0  0  0  0  0  0  0  0  0  0
   -3.0213   -2.2971    0.3731 H   0  0  0  0  0  0  0  0  0  0  0  0
   -4.6683   -0.4527    0.1865 H   0  0  0  0  0  0  0  0  0  0  0  0
    2.9268    0.8895   -1.2326 H   0  0  0  0  0  0  0  0  0  0  0  0
  1 12  1  0  0  0  0
  2 12  1  0  0  0  0
  3 10  2  0  0  0  0
  4  5  1  0  0  0  0
  4 10  1  0  0  0  0
  4 13  1  0  0  0  0
  5  6  2  0  0  0  0
  5  7  1  0  0  0  0
  6  8  1  0  0  0  0
  6 14  1  0  0  0  0
  7  9  2  0  0  0  0
  7 15  1  0  0  0  0
  8 11  2  0  0  0  0
  8 16  1  0  0  0  0
  9 11  1  0  0  0  0
  9 17  1  0  0  0  0
 10 12  1  0  0  0  0
 11 18  1  0  0  0  0
 12 19  1  0  0  0  0
M  END
> <PUBCHEM_COMPOUND_CID>
22315613

> <PUBCHEM_CONFORMER_RMSD>
0.6

> <PUBCHEM_CONFORMER_DIVERSEORDER>
1
4
3
2

> <PUBCHEM_MMFF94_PARTIAL_CHARGES>
18
1 -0.34
10 0.57
11 -0.15
12 0.74
13 0.37
14 0.15
15 0.15
16 0.15
17 0.15
18 0.15
2 -0.34
3 -0.57
4 -0.55
5 0.12
6 -0.15
7 -0.15
8 -0.15
9 -0.15

> <PUBCHEM_EFFECTIVE_ROTOR_COUNT>
3

> <PUBCHEM_PHARMACOPHORE_FEATURES>
3
1 3 acceptor
1 4 donor
6 5 6 7 8 9 11 rings

> <PUBCHEM_HEAVY_ATOM_COUNT>
12

> <PUBCHEM_ATOM_DEF_STEREO_COUNT>
0

> <PUBCHEM_ATOM_UDEF_STEREO_COUNT>
0

> <PUBCHEM_BOND_DEF_STEREO_COUNT>
0

> <PUBCHEM_BOND_UDEF_STEREO_COUNT>
0

> <PUBCHEM_ISOTOPIC_ATOM_COUNT>
0

> <PUBCHEM_COMPONENT_COUNT>
1

> <PUBCHEM_CACTVS_TAUTO_COUNT>
2

> <PUBCHEM_CONFORMER_ID>
0154825D00000001

> <PUBCHEM_MMFF94_ENERGY>
27.616

> <PUBCHEM_FEATURE_SELFOVERLAP>
15.223

> <PUBCHEM_SHAPE_FINGERPRINT>
10608611 8 18411696577949735336
11062470 55 16732984236394695191
11132069 177 18335697277670446808
12932764 1 17560791135031475503
13024252 1 15502377829387545217
13380535 76 18409166593204573431
14144814 61 18335701620040417833
14325111 11 18410012130425317813
15775835 57 18262241019221976449
18175812 5 18341895207683888348
200 152 17917983984658361733
20201158 50 18412265021297943695
20279233 1 18343586230750176679
20528008 55 18411976970926659045
20645464 45 18273221880608815103
20645477 70 18268988683596263687
20871998 184 18271813483708155575
23402539 116 18343858923389023349
23552423 10 18113904874863858159
23559900 14 18411978036300016552
369184 2 18341894069870865557
6333449 129 18410854356711917957
7364860 26 18195525896354787498

> <PUBCHEM_SHAPE_MULTIPOLES>
221.56
6.51
1.43
0.64
3.04
0.08
-0.02
-0.33
-0.2
-0.41
-0.06
0.06
-0.05
0.31

> <PUBCHEM_SHAPE_SELFOVERLAP>
458.822

> <PUBCHEM_SHAPE_VOLUME>
125.7

> <PUBCHEM_COORDINATE_TYPE>
2
5
10

$$$$
