5360134
  -OEChem-11012400333D

 20 19  0     0  0  0  0  0  0999 V2000
    1.7148   -0.0105    0.0936 N   0  0  0  0  0  0  0  0  0  0  0  0
   -1.7257    0.0103    0.1332 N   0  0  0  0  0  0  0  0  0  0  0  0
    0.4242    0.4431    0.0338 N   0  0  0  0  0  0  0  0  0  0  0  0
   -0.4350   -0.4431    0.1962 N   0  0  0  0  0  0  0  0  0  0  0  0
    2.7425    0.9938   -0.0912 C   0  0  0  0  0  0  0  0  0  0  0  0
    2.0620   -1.4060   -0.1123 C   0  0  0  0  0  0  0  0  0  0  0  0
   -2.0518    1.4061   -0.1031 C   0  0  0  0  0  0  0  0  0  0  0  0
   -2.7310   -0.9937   -0.1502 C   0  0  0  0  0  0  0  0  0  0  0  0
    2.9992    1.0486   -1.1525 H   0  0  0  0  0  0  0  0  0  0  0  0
    3.6251    0.7198    0.4934 H   0  0  0  0  0  0  0  0  0  0  0  0
    2.3794    1.9671    0.2522 H   0  0  0  0  0  0  0  0  0  0  0  0
    3.0664   -1.5895    0.2808 H   0  0  0  0  0  0  0  0  0  0  0  0
    2.0441   -1.6195   -1.1845 H   0  0  0  0  0  0  0  0  0  0  0  0
    1.3677   -2.0648    0.4159 H   0  0  0  0  0  0  0  0  0  0  0  0
   -1.9504    1.6200   -1.1706 H   0  0  0  0  0  0  0  0  0  0  0  0
   -1.3967    2.0582    0.4811 H   0  0  0  0  0  0  0  0  0  0  0  0
   -3.0828    1.5931    0.2114 H   0  0  0  0  0  0  0  0  0  0  0  0
   -3.6657   -0.7195    0.3465 H   0  0  0  0  0  0  0  0  0  0  0  0
   -2.4028   -1.9672    0.2262 H   0  0  0  0  0  0  0  0  0  0  0  0
   -2.8840   -1.0480   -1.2315 H   0  0  0  0  0  0  0  0  0  0  0  0
  1  3  1  0  0  0  0
  1  5  1  0  0  0  0
  1  6  1  0  0  0  0
  2  4  1  0  0  0  0
  2  7  1  0  0  0  0
  2  8  1  0  0  0  0
  3  4  2  0  0  0  0
  5  9  1  0  0  0  0
  5 10  1  0  0  0  0
  5 11  1  0  0  0  0
  6 12  1  0  0  0  0
  6 13  1  0  0  0  0
  6 14  1  0  0  0  0
  7 15  1  0  0  0  0
  7 16  1  0  0  0  0
  7 17  1  0  0  0  0
  8 18  1  0  0  0  0
  8 19  1  0  0  0  0
  8 20  1  0  0  0  0
M  END
> <PUBCHEM_COMPOUND_CID>
5360134

> <PUBCHEM_CONFORMER_RMSD>
0.4

> <PUBCHEM_CONFORMER_DIVERSEORDER>
1
2
3

> <PUBCHEM_MMFF94_PARTIAL_CHARGES>
8
1 -0.54
2 -0.54
3 -0.06
4 -0.06
5 0.3
6 0.3
7 0.3
8 0.3

> <PUBCHEM_EFFECTIVE_ROTOR_COUNT>
2

> <PUBCHEM_PHARMACOPHORE_FEATURES>
0

> <PUBCHEM_HEAVY_ATOM_COUNT>
8

> <PUBCHEM_ATOM_DEF_STEREO_COUNT>
0

> <PUBCHEM_ATOM_UDEF_STEREO_COUNT>
0

> <PUBCHEM_BOND_DEF_STEREO_COUNT>
1

> <PUBCHEM_BOND_UDEF_STEREO_COUNT>
0

> <PUBCHEM_ISOTOPIC_ATOM_COUNT>
0

> <PUBCHEM_COMPONENT_COUNT>
1

> <PUBCHEM_CACTVS_TAUTO_COUNT>
1

> <PUBCHEM_CONFORMER_ID>
0051CA0600000001

> <PUBCHEM_MMFF94_ENERGY>
22.379

> <PUBCHEM_FEATURE_SELFOVERLAP>
0

> <PUBCHEM_SHAPE_FINGERPRINT>
12897270 3 18339079396922637965
12932764 1 17561075929875416185
14325111 11 18410575080368131129
14390081 3 18411699906712829152
15310529 11 18343580754677339311
19973954 147 18410576149868092644
23552423 10 18334577893244822954
29004967 10 18410015450614327378
3248919 1 18339350894700856441
5460574 1 9295298234958217256

> <PUBCHEM_SHAPE_MULTIPOLES>
144.71
4.58
1.46
0.59
0.04
0
0.02
0
0.25
0
0.08
-0.01
0
0

> <PUBCHEM_SHAPE_SELFOVERLAP>
254.778

> <PUBCHEM_SHAPE_VOLUME>
97.9

> <PUBCHEM_COORDINATE_TYPE>
2
5
10

$$$$
