138856
  -OEChem-11012401173D

 26 25  0     0  0  0  0  0  0999 V2000
    0.0550   -0.2314   -0.0833 N   0  0  0  0  0  0  0  0  0  0  0  0
   -2.3082   -0.8214    0.1025 C   0  0  0  0  0  0  0  0  0  0  0  0
    2.4020    0.3481   -0.3481 C   0  0  0  0  0  0  0  0  0  0  0  0
   -2.7821    0.6329    0.0541 C   0  0  0  0  0  0  0  0  0  0  0  0
   -0.9211   -0.9622    0.7194 C   0  0  0  0  0  0  0  0  0  0  0  0
    1.2600   -0.3447    0.3564 C   0  0  0  0  0  0  0  0  0  0  0  0
    3.3956   -0.6988   -0.8355 C   0  0  0  0  0  0  0  0  0  0  0  0
    3.0595    1.3304    0.6124 C   0  0  0  0  0  0  0  0  0  0  0  0
   -4.1607    0.7471   -0.5780 C   0  0  0  0  0  0  0  0  0  0  0  0
   -3.0196   -1.4197    0.6844 H   0  0  0  0  0  0  0  0  0  0  0  0
   -2.2969   -1.2332   -0.9144 H   0  0  0  0  0  0  0  0  0  0  0  0
    2.0058    0.8975   -1.2101 H   0  0  0  0  0  0  0  0  0  0  0  0
   -2.0813    1.2460   -0.5237 H   0  0  0  0  0  0  0  0  0  0  0  0
   -2.8147    1.0462    1.0689 H   0  0  0  0  0  0  0  0  0  0  0  0
   -0.9373   -0.5775    1.7469 H   0  0  0  0  0  0  0  0  0  0  0  0
   -0.6614   -2.0275    0.7586 H   0  0  0  0  0  0  0  0  0  0  0  0
    1.5083   -0.9415    1.2532 H   0  0  0  0  0  0  0  0  0  0  0  0
    3.8089   -1.2779   -0.0021 H   0  0  0  0  0  0  0  0  0  0  0  0
    2.9104   -1.4062   -1.5171 H   0  0  0  0  0  0  0  0  0  0  0  0
    4.2273   -0.2285   -1.3701 H   0  0  0  0  0  0  0  0  0  0  0  0
    2.3344    2.0721    0.9651 H   0  0  0  0  0  0  0  0  0  0  0  0
    3.4617    0.8201    1.4948 H   0  0  0  0  0  0  0  0  0  0  0  0
    3.8807    1.8645    0.1233 H   0  0  0  0  0  0  0  0  0  0  0  0
   -4.1529    0.3728   -1.6067 H   0  0  0  0  0  0  0  0  0  0  0  0
   -4.9013    0.1756   -0.0095 H   0  0  0  0  0  0  0  0  0  0  0  0
   -4.4823    1.7929   -0.5994 H   0  0  0  0  0  0  0  0  0  0  0  0
  1  5  1  0  0  0  0
  1  6  2  0  0  0  0
  2  4  1  0  0  0  0
  2  5  1  0  0  0  0
  2 10  1  0  0  0  0
  2 11  1  0  0  0  0
  3  6  1  0  0  0  0
  3  7  1  0  0  0  0
  3  8  1  0  0  0  0
  3 12  1  0  0  0  0
  4  9  1  0  0  0  0
  4 13  1  0  0  0  0
  4 14  1  0  0  0  0
  5 15  1  0  0  0  0
  5 16  1  0  0  0  0
  6 17  1  0  0  0  0
  7 18  1  0  0  0  0
  7 19  1  0  0  0  0
  7 20  1  0  0  0  0
  8 21  1  0  0  0  0
  8 22  1  0  0  0  0
  8 23  1  0  0  0  0
  9 24  1  0  0  0  0
  9 25  1  0  0  0  0
  9 26  1  0  0  0  0
M  END
> <PUBCHEM_COMPOUND_CID>
138856

> <PUBCHEM_CONFORMER_RMSD>
0.6

> <PUBCHEM_CONFORMER_DIVERSEORDER>
1
40
35
42
25
30
2
37
29
18
9
43
17
28
44
13
32
14
39
15
6
12
31
19
8
27
21
22
26
36
5
23
41
20
24
33
38
11
34
10
16
4
3
7

> <PUBCHEM_MMFF94_PARTIAL_CHARGES>
5
1 -0.7
17 0.06
3 0.06
5 0.25
6 0.33

> <PUBCHEM_EFFECTIVE_ROTOR_COUNT>
4

> <PUBCHEM_PHARMACOPHORE_FEATURES>
3
1 1 acceptor
1 9 hydrophobe
3 3 7 8 hydrophobe

> <PUBCHEM_HEAVY_ATOM_COUNT>
9

> <PUBCHEM_ATOM_DEF_STEREO_COUNT>
0

> <PUBCHEM_ATOM_UDEF_STEREO_COUNT>
0

> <PUBCHEM_BOND_DEF_STEREO_COUNT>
0

> <PUBCHEM_BOND_UDEF_STEREO_COUNT>
0

> <PUBCHEM_ISOTOPIC_ATOM_COUNT>
0

> <PUBCHEM_COMPONENT_COUNT>
1

> <PUBCHEM_CACTVS_TAUTO_COUNT>
1

> <PUBCHEM_CONFORMER_ID>
00021E6800000001

> <PUBCHEM_MMFF94_ENERGY>
4.0964

> <PUBCHEM_FEATURE_SELFOVERLAP>
15.223

> <PUBCHEM_SHAPE_FINGERPRINT>
12932764 1 18338807800444931538
14325111 11 18411139164198362275
14390081 3 18408321107448687313
177051 138 9799692610142335969
18186145 218 18412831269770242387
20645477 70 17918000455642099582
20651381 32 17917715703541648274
20653085 51 18335710459162188937
20765181 27 18259979375237851181
20767249 442 17968087616934050661
21293036 1 16917063386748689977
22485316 2 8934997053961020921
23402655 69 18131349683205540813
3248919 1 16878223168383244338
93112 12 18201722859636259206

> <PUBCHEM_SHAPE_MULTIPOLES>
180.23
7.4
1.19
0.86
2.6
0.14
0.02
2.07
1.58
-0.19
-0.13
-0.24
-0.03
0.75

> <PUBCHEM_SHAPE_SELFOVERLAP>
320.231

> <PUBCHEM_SHAPE_VOLUME>
117.7

> <PUBCHEM_COORDINATE_TYPE>
2
5
10

$$$$
