640668
  -OEChem-11012401273D

 29 30  0     1  0  0  0  0  0999 V2000
    2.6246    0.6007    1.1674 O   0  0  0  0  0  0  0  0  0  0  0  0
   -0.1821    0.6814    0.0827 C   0  0  1  0  0  0  0  0  0  0  0  0
   -0.3448   -0.8009   -0.3082 C   0  0  1  0  0  0  0  0  0  0  0  0
    1.0770    1.2790   -0.5652 C   0  0  0  0  0  0  0  0  0  0  0  0
    0.9044   -1.6048    0.0738 C   0  0  0  0  0  0  0  0  0  0  0  0
   -1.4327    1.4836   -0.3017 C   0  0  0  0  0  0  0  0  0  0  0  0
   -1.6033   -1.3973    0.3355 C   0  0  0  0  0  0  0  0  0  0  0  0
    2.3334    0.4743   -0.2231 C   0  0  2  0  0  0  0  0  0  0  0  0
    2.1654   -1.0080   -0.5546 C   0  0  0  0  0  0  0  0  0  0  0  0
   -2.6922    0.8847    0.3208 C   0  0  0  0  0  0  0  0  0  0  0  0
   -2.8496   -0.5925   -0.0274 C   0  0  0  0  0  0  0  0  0  0  0  0
   -0.0796    0.7481    1.1744 H   0  0  0  0  0  0  0  0  0  0  0  0
   -0.4641   -0.8627   -1.3997 H   0  0  0  0  0  0  0  0  0  0  0  0
    0.9541    1.3121   -1.6549 H   0  0  0  0  0  0  0  0  0  0  0  0
    1.2002    2.3116   -0.2163 H   0  0  0  0  0  0  0  0  0  0  0  0
    0.7947   -2.6412   -0.2685 H   0  0  0  0  0  0  0  0  0  0  0  0
    1.0097   -1.6502    1.1644 H   0  0  0  0  0  0  0  0  0  0  0  0
   -1.5433    1.5051   -1.3933 H   0  0  0  0  0  0  0  0  0  0  0  0
   -1.3264    2.5239    0.0278 H   0  0  0  0  0  0  0  0  0  0  0  0
   -1.4914   -1.4194    1.4270 H   0  0  0  0  0  0  0  0  0  0  0  0
   -1.7356   -2.4354    0.0082 H   0  0  0  0  0  0  0  0  0  0  0  0
    3.1914    0.8805   -0.7688 H   0  0  0  0  0  0  0  0  0  0  0  0
    3.0346   -1.5718   -0.1960 H   0  0  0  0  0  0  0  0  0  0  0  0
    2.1184   -1.1334   -1.6433 H   0  0  0  0  0  0  0  0  0  0  0  0
   -3.5724    1.4398   -0.0227 H   0  0  0  0  0  0  0  0  0  0  0  0
   -2.6487    0.9988    1.4111 H   0  0  0  0  0  0  0  0  0  0  0  0
   -3.7193   -1.0040    0.4972 H   0  0  0  0  0  0  0  0  0  0  0  0
   -3.0478   -0.6938   -1.1015 H   0  0  0  0  0  0  0  0  0  0  0  0
    1.8949    0.2285    1.6870 H   0  0  0  0  0  0  0  0  0  0  0  0
  1  8  1  0  0  0  0
  1 29  1  0  0  0  0
  2  3  1  0  0  0  0
  2  4  1  0  0  0  0
  2  6  1  0  0  0  0
  2 12  1  0  0  0  0
  3  5  1  0  0  0  0
  3  7  1  0  0  0  0
  3 13  1  0  0  0  0
  4  8  1  0  0  0  0
  4 14  1  0  0  0  0
  4 15  1  0  0  0  0
  5  9  1  0  0  0  0
  5 16  1  0  0  0  0
  5 17  1  0  0  0  0
  6 10  1  0  0  0  0
  6 18  1  0  0  0  0
  6 19  1  0  0  0  0
  7 11  1  0  0  0  0
  7 20  1  0  0  0  0
  7 21  1  0  0  0  0
  8  9  1  0  0  0  0
  8 22  1  0  0  0  0
  9 23  1  0  0  0  0
  9 24  1  0  0  0  0
 10 11  1  0  0  0  0
 10 25  1  0  0  0  0
 10 26  1  0  0  0  0
 11 27  1  0  0  0  0
 11 28  1  0  0  0  0
M  END
> <PUBCHEM_COMPOUND_CID>
640668

> <PUBCHEM_CONFORMER_RMSD>
0.4

> <PUBCHEM_CONFORMER_DIVERSEORDER>
1
2

> <PUBCHEM_MMFF94_PARTIAL_CHARGES>
3
1 -0.68
29 0.4
8 0.28

> <PUBCHEM_EFFECTIVE_ROTOR_COUNT>
1.6

> <PUBCHEM_PHARMACOPHORE_FEATURES>
4
1 1 acceptor
1 1 donor
6 2 3 4 5 8 9 rings
6 2 3 6 7 10 11 rings

> <PUBCHEM_HEAVY_ATOM_COUNT>
11

> <PUBCHEM_ATOM_DEF_STEREO_COUNT>
3

> <PUBCHEM_ATOM_UDEF_STEREO_COUNT>
0

> <PUBCHEM_BOND_DEF_STEREO_COUNT>
0

> <PUBCHEM_BOND_UDEF_STEREO_COUNT>
0

> <PUBCHEM_ISOTOPIC_ATOM_COUNT>
0

> <PUBCHEM_COMPONENT_COUNT>
1

> <PUBCHEM_CACTVS_TAUTO_COUNT>
1

> <PUBCHEM_CONFORMER_ID>
0009C69C00000001

> <PUBCHEM_MMFF94_ENERGY>
13.2741

> <PUBCHEM_FEATURE_SELFOVERLAP>
20.314

> <PUBCHEM_SHAPE_FINGERPRINT>
10857977 72 18408884074618894571
12382932 28 18411698794226453577
12423570 1 12028190465447349150
12524768 44 18268434529508783663
12696612 119 18334580148202737332
12897270 3 18409733954141746183
12932764 1 17632582672946105807
14325111 11 18411704270346737445
15775835 57 18272940418237496393
16945 1 18335143098224619959
193761 8 14518617940438291463
19973954 147 18410301302088866021
20201158 50 18409729564716889495
21040471 1 18409733924003070052
21501502 16 18411422765236605991
23235685 24 18409448106999188900
23402655 69 18340758244664231373
23552423 10 18261119572995896183
241688 4 18119254960784038720
2748010 2 18264773147203395943
369184 2 17418374701052653145
5084963 1 18341622498598200516
528886 8 18409450297184479459
53812653 166 18341332189163879954
66348 1 18049163263366249655

> <PUBCHEM_SHAPE_MULTIPOLES>
220.51
4.08
1.74
0.8
0.5
0.15
0.09
-0.21
0.4
0.15
-0.07
-0.3
-0.07
0.17

> <PUBCHEM_SHAPE_SELFOVERLAP>
444.656

> <PUBCHEM_SHAPE_VOLUME>
127

> <PUBCHEM_COORDINATE_TYPE>
2
5
10

$$$$
