139779
  -OEChem-10312420522D

 57 56  0     0  0  0  0  0  0999 V2000
    5.8301    0.8660    0.0000 O   0  0  0  0  0  0  0  0  0  0  0  0
    7.1962    0.5000    0.0000 O   0  0  0  0  0  0  0  0  0  0  0  0
    6.8301   -0.8660    0.0000 O   0  0  0  0  0  0  0  0  0  0  0  0
    5.4641   -0.5000    0.0000 O   0  0  0  0  0  0  0  0  0  0  0  0
    5.8301    4.3301    0.0000 O   0  5  0  0  0  0  0  0  0  0  0  0
    6.6962    4.0981    0.0000 O   0  5  0  0  0  0  0  0  0  0  0  0
    4.0981    2.5981    0.0000 O   0  5  0  0  0  0  0  0  0  0  0  0
   10.6603    0.5000    0.0000 O   0  5  0  0  0  0  0  0  0  0  0  0
    8.9282    2.2320    0.0000 O   0  5  0  0  0  0  0  0  0  0  0  0
   10.4282   -0.3660    0.0000 O   0  5  0  0  0  0  0  0  0  0  0  0
    8.3301   -3.4641    0.0000 O   0  5  0  0  0  0  0  0  0  0  0  0
    8.5622   -2.5981    0.0000 O   0  5  0  0  0  0  0  0  0  0  0  0
    5.9641   -4.0981    0.0000 O   0  5  0  0  0  0  0  0  0  0  0  0
    2.0000   -0.5000    0.0000 O   0  5  0  0  0  0  0  0  0  0  0  0
    3.7320    1.2320    0.0000 O   0  5  0  0  0  0  0  0  0  0  0  0
    3.7320   -2.2320    0.0000 O   0  5  0  0  0  0  0  0  0  0  0  0
    4.3301    3.4641    0.0000 O   0  0  0  0  0  0  0  0  0  0  0  0
    7.5622    2.5981    0.0000 O   0  0  0  0  0  0  0  0  0  0  0  0
    4.9641    1.0981    0.0000 O   0  0  0  0  0  0  0  0  0  0  0  0
    9.7942    2.0000    0.0000 O   0  0  0  0  0  0  0  0  0  0  0  0
    7.4282    1.3660    0.0000 O   0  0  0  0  0  0  0  0  0  0  0  0
    8.9282   -1.2320    0.0000 O   0  0  0  0  0  0  0  0  0  0  0  0
    6.8301   -4.3301    0.0000 O   0  0  0  0  0  0  0  0  0  0  0  0
    7.6962   -1.0981    0.0000 O   0  0  0  0  0  0  0  0  0  0  0  0
    5.0981   -2.5981    0.0000 O   0  0  0  0  0  0  0  0  0  0  0  0
    2.8660   -2.0000    0.0000 O   0  0  0  0  0  0  0  0  0  0  0  0
    2.2320    0.3660    0.0000 O   0  0  0  0  0  0  0  0  0  0  0  0
    5.2320   -1.3660    0.0000 O   0  0  0  0  0  0  0  0  0  0  0  0
    5.3301    3.4641    0.0000 N   0  3  0  0  0  0  0  0  0  0  0  0
    6.6962    3.0981    0.0000 N   0  3  0  0  0  0  0  0  0  0  0  0
    4.9641    2.0981    0.0000 N   0  3  0  0  0  0  0  0  0  0  0  0
    9.7942    1.0000    0.0000 N   0  3  0  0  0  0  0  0  0  0  0  0
    8.4282    1.3660    0.0000 N   0  3  0  0  0  0  0  0  0  0  0  0
    9.4282   -0.3660    0.0000 N   0  3  0  0  0  0  0  0  0  0  0  0
    7.3301   -3.4641    0.0000 N   0  3  0  0  0  0  0  0  0  0  0  0
    7.6962   -2.0981    0.0000 N   0  3  0  0  0  0  0  0  0  0  0  0
    5.9641   -3.0981    0.0000 N   0  3  0  0  0  0  0  0  0  0  0  0
    2.8660   -1.0000    0.0000 N   0  3  0  0  0  0  0  0  0  0  0  0
    3.2320    0.3660    0.0000 N   0  3  0  0  0  0  0  0  0  0  0  0
    4.2320   -1.3660    0.0000 N   0  3  0  0  0  0  0  0  0  0  0  0
    6.3301   -0.0000    0.0000 C   0  0  0  0  0  0  0  0  0  0  0  0
    6.3301    1.7320    0.0000 C   0  0  0  0  0  0  0  0  0  0  0  0
    8.0622   -0.0000    0.0000 C   0  0  0  0  0  0  0  0  0  0  0  0
    6.3301   -1.7320    0.0000 C   0  0  0  0  0  0  0  0  0  0  0  0
    4.5981    0.0000    0.0000 C   0  0  0  0  0  0  0  0  0  0  0  0
    5.8301    2.5981    0.0000 C   0  0  0  0  0  0  0  0  0  0  0  0
    8.9282    0.5000    0.0000 C   0  0  0  0  0  0  0  0  0  0  0  0
    6.8301   -2.5981    0.0000 C   0  0  0  0  0  0  0  0  0  0  0  0
    3.7320   -0.5000    0.0000 C   0  0  0  0  0  0  0  0  0  0  0  0
    6.8051    1.3335    0.0000 H   0  0  0  0  0  0  0  0  0  0  0  0
    6.8051    2.1306    0.0000 H   0  0  0  0  0  0  0  0  0  0  0  0
    7.6636   -0.4749    0.0000 H   0  0  0  0  0  0  0  0  0  0  0  0
    8.4607   -0.4749    0.0000 H   0  0  0  0  0  0  0  0  0  0  0  0
    5.8552   -1.3335    0.0000 H   0  0  0  0  0  0  0  0  0  0  0  0
    5.8552   -2.1306    0.0000 H   0  0  0  0  0  0  0  0  0  0  0  0
    4.9966    0.4749    0.0000 H   0  0  0  0  0  0  0  0  0  0  0  0
    4.1996    0.4749    0.0000 H   0  0  0  0  0  0  0  0  0  0  0  0
  1 41  1  0  0  0  0
  1 42  1  0  0  0  0
  2 41  1  0  0  0  0
  2 43  1  0  0  0  0
  3 41  1  0  0  0  0
  3 44  1  0  0  0  0
  4 41  1  0  0  0  0
  4 45  1  0  0  0  0
  5 29  1  0  0  0  0
  6 30  1  0  0  0  0
  7 31  1  0  0  0  0
  8 32  1  0  0  0  0
  9 33  1  0  0  0  0
 10 34  1  0  0  0  0
 11 35  1  0  0  0  0
 12 36  1  0  0  0  0
 13 37  1  0  0  0  0
 14 38  1  0  0  0  0
 15 39  1  0  0  0  0
 16 40  1  0  0  0  0
 17 29  2  0  0  0  0
 18 30  2  0  0  0  0
 19 31  2  0  0  0  0
 20 32  2  0  0  0  0
 21 33  2  0  0  0  0
 22 34  2  0  0  0  0
 23 35  2  0  0  0  0
 24 36  2  0  0  0  0
 25 37  2  0  0  0  0
 26 38  2  0  0  0  0
 27 39  2  0  0  0  0
 28 40  2  0  0  0  0
 29 46  1  0  0  0  0
 30 46  1  0  0  0  0
 31 46  1  0  0  0  0
 32 47  1  0  0  0  0
 33 47  1  0  0  0  0
 34 47  1  0  0  0  0
 35 48  1  0  0  0  0
 36 48  1  0  0  0  0
 37 48  1  0  0  0  0
 38 49  1  0  0  0  0
 39 49  1  0  0  0  0
 40 49  1  0  0  0  0
 42 46  1  0  0  0  0
 42 50  1  0  0  0  0
 42 51  1  0  0  0  0
 43 47  1  0  0  0  0
 43 52  1  0  0  0  0
 43 53  1  0  0  0  0
 44 48  1  0  0  0  0
 44 54  1  0  0  0  0
 44 55  1  0  0  0  0
 45 49  1  0  0  0  0
 45 56  1  0  0  0  0
 45 57  1  0  0  0  0
M  CHG  8   5  -1   6  -1   7  -1   8  -1   9  -1  10  -1  11  -1  12  -1
M  CHG  8  13  -1  14  -1  15  -1  16  -1  29   1  30   1  31   1  32   1
M  CHG  8  33   1  34   1  35   1  36   1  37   1  38   1  39   1  40   1
M  END
> <PUBCHEM_COMPOUND_CID>
139779

> <PUBCHEM_COMPOUND_CANONICALIZED>
1

> <PUBCHEM_CACTVS_COMPLEXITY>
1070

> <PUBCHEM_CACTVS_HBOND_ACCEPTOR>
28

> <PUBCHEM_CACTVS_HBOND_DONOR>
0

> <PUBCHEM_CACTVS_ROTATABLE_BOND>
12

> <PUBCHEM_CACTVS_SUBSKEYS>
AAADccBz/gAAAAAAAAAAAAAAAAAAAAAAAAAAAAAAAAAAAAAAAAAAHgAEAAAAAAChgAIBCAAQRAABAAAAAwAAAAAAAAAgAAAAAAASAAAAAAAhAAAAAAAEAAAAAAAAAAAAAAAAAAAAAAAAAAAAAAAAAAAAAA==

> <PUBCHEM_IUPAC_OPENEYE_NAME>
1,1,1-trinitro-2-[tris(2,2,2-trinitroethoxy)methoxy]ethane

> <PUBCHEM_IUPAC_CAS_NAME>
1,1,1-trinitro-2-[tris(2,2,2-trinitroethoxy)methoxy]ethane

> <PUBCHEM_IUPAC_NAME_MARKUP>
1,1,1-trinitro-2-[tris(2,2,2-trinitroethoxy)methoxy]ethane

> <PUBCHEM_IUPAC_NAME>
1,1,1-trinitro-2-[tris(2,2,2-trinitroethoxy)methoxy]ethane

> <PUBCHEM_IUPAC_SYSTEMATIC_NAME>
1,1,1-trinitro-2-[tris(2,2,2-trinitroethoxy)methoxy]ethane

> <PUBCHEM_IUPAC_TRADITIONAL_NAME>
1,1,1-trinitro-2-[tris(2,2,2-trinitroethoxy)methoxy]ethane

> <PUBCHEM_IUPAC_INCHI>
InChI=1S/C9H8N12O28/c22-10(23)5(11(24)25,12(26)27)1-46-9(47-2-6(13(28)29,14(30)31)15(32)33,48-3-7(16(34)35,17(36)37)18(38)39)49-4-8(19(40)41,20(42)43)21(44)45/h1-4H2

> <PUBCHEM_IUPAC_INCHIKEY>
JPTHXHQVODRICI-UHFFFAOYSA-N

> <PUBCHEM_XLOGP3_AA>
-1

> <PUBCHEM_EXACT_MASS>
731.95709765

> <PUBCHEM_MOLECULAR_FORMULA>
C9H8N12O28

> <PUBCHEM_MOLECULAR_WEIGHT>
732.22

> <PUBCHEM_OPENEYE_CAN_SMILES>
C(C([N+](=O)[O-])([N+](=O)[O-])[N+](=O)[O-])OC(OCC([N+](=O)[O-])([N+](=O)[O-])[N+](=O)[O-])(OCC([N+](=O)[O-])([N+](=O)[O-])[N+](=O)[O-])OCC([N+](=O)[O-])([N+](=O)[O-])[N+](=O)[O-]

> <PUBCHEM_OPENEYE_ISO_SMILES>
C(C([N+](=O)[O-])([N+](=O)[O-])[N+](=O)[O-])OC(OCC([N+](=O)[O-])([N+](=O)[O-])[N+](=O)[O-])(OCC([N+](=O)[O-])([N+](=O)[O-])[N+](=O)[O-])OCC([N+](=O)[O-])([N+](=O)[O-])[N+](=O)[O-]

> <PUBCHEM_CACTVS_TPSA>
587

> <PUBCHEM_MONOISOTOPIC_WEIGHT>
731.95709765

> <PUBCHEM_TOTAL_CHARGE>
0

> <PUBCHEM_HEAVY_ATOM_COUNT>
49

> <PUBCHEM_ATOM_DEF_STEREO_COUNT>
0

> <PUBCHEM_ATOM_UDEF_STEREO_COUNT>
0

> <PUBCHEM_BOND_DEF_STEREO_COUNT>
0

> <PUBCHEM_BOND_UDEF_STEREO_COUNT>
0

> <PUBCHEM_ISOTOPIC_ATOM_COUNT>
0

> <PUBCHEM_COMPONENT_COUNT>
1

> <PUBCHEM_CACTVS_TAUTO_COUNT>
-1

> <PUBCHEM_COORDINATE_TYPE>
1
5
255

$$$$
