13627
  -OEChem-11012401083D

 24 24  0     0  0  0  0  0  0999 V2000
    1.0130    0.0001   -0.3015 C   0  0  0  0  0  0  0  0  0  0  0  0
    2.4869    0.0003   -0.5313 C   0  0  0  0  0  0  0  0  0  0  0  0
   -1.0542    1.2080    0.0225 C   0  0  0  0  0  0  0  0  0  0  0  0
   -1.0541   -1.2081    0.0224 C   0  0  0  0  0  0  0  0  0  0  0  0
    0.3239   -1.2079   -0.1935 C   0  0  0  0  0  0  0  0  0  0  0  0
    0.3239    1.2081   -0.1935 C   0  0  0  0  0  0  0  0  0  0  0  0
   -1.7431   -0.0001    0.1305 C   0  0  0  0  0  0  0  0  0  0  0  0
    3.2853   -0.0003    0.7677 C   0  0  0  0  0  0  0  0  0  0  0  0
   -1.7908    2.4997    0.1384 C   0  0  0  0  0  0  0  0  0  0  0  0
   -1.7908   -2.4998    0.1382 C   0  0  0  0  0  0  0  0  0  0  0  0
    2.7707    0.8741   -1.1313 H   0  0  0  0  0  0  0  0  0  0  0  0
    2.7707   -0.8730   -1.1321 H   0  0  0  0  0  0  0  0  0  0  0  0
    0.8608   -2.1500   -0.2774 H   0  0  0  0  0  0  0  0  0  0  0  0
    0.8608    2.1503   -0.2774 H   0  0  0  0  0  0  0  0  0  0  0  0
   -2.8181   -0.0001    0.2952 H   0  0  0  0  0  0  0  0  0  0  0  0
    3.0591    0.8848    1.3718 H   0  0  0  0  0  0  0  0  0  0  0  0
    4.3584   -0.0002    0.5524 H   0  0  0  0  0  0  0  0  0  0  0  0
    3.0592   -0.8862    1.3710 H   0  0  0  0  0  0  0  0  0  0  0  0
   -2.6628    2.4005    0.7938 H   0  0  0  0  0  0  0  0  0  0  0  0
   -2.1299    2.8285   -0.8490 H   0  0  0  0  0  0  0  0  0  0  0  0
   -1.1543    3.2802    0.5691 H   0  0  0  0  0  0  0  0  0  0  0  0
   -2.1333   -2.8264   -0.8486 H   0  0  0  0  0  0  0  0  0  0  0  0
   -1.1532   -3.2814    0.5652 H   0  0  0  0  0  0  0  0  0  0  0  0
   -2.6604   -2.4014    0.7968 H   0  0  0  0  0  0  0  0  0  0  0  0
  1  2  1  0  0  0  0
  1  5  2  0  0  0  0
  1  6  1  0  0  0  0
  2  8  1  0  0  0  0
  2 11  1  0  0  0  0
  2 12  1  0  0  0  0
  3  6  2  0  0  0  0
  3  7  1  0  0  0  0
  3  9  1  0  0  0  0
  4  5  1  0  0  0  0
  4  7  2  0  0  0  0
  4 10  1  0  0  0  0
  5 13  1  0  0  0  0
  6 14  1  0  0  0  0
  7 15  1  0  0  0  0
  8 16  1  0  0  0  0
  8 17  1  0  0  0  0
  8 18  1  0  0  0  0
  9 19  1  0  0  0  0
  9 20  1  0  0  0  0
  9 21  1  0  0  0  0
 10 22  1  0  0  0  0
 10 23  1  0  0  0  0
 10 24  1  0  0  0  0
M  END
> <PUBCHEM_COMPOUND_CID>
13627

> <PUBCHEM_CONFORMER_RMSD>
0.4

> <PUBCHEM_CONFORMER_DIVERSEORDER>
1
2

> <PUBCHEM_MMFF94_PARTIAL_CHARGES>
12
1 -0.14
10 0.14
13 0.15
14 0.15
15 0.15
2 0.14
3 -0.14
4 -0.14
5 -0.15
6 -0.15
7 -0.15
9 0.14

> <PUBCHEM_EFFECTIVE_ROTOR_COUNT>
1

> <PUBCHEM_PHARMACOPHORE_FEATURES>
2
1 8 hydrophobe
6 1 3 4 5 6 7 rings

> <PUBCHEM_HEAVY_ATOM_COUNT>
10

> <PUBCHEM_ATOM_DEF_STEREO_COUNT>
0

> <PUBCHEM_ATOM_UDEF_STEREO_COUNT>
0

> <PUBCHEM_BOND_DEF_STEREO_COUNT>
0

> <PUBCHEM_BOND_UDEF_STEREO_COUNT>
0

> <PUBCHEM_ISOTOPIC_ATOM_COUNT>
0

> <PUBCHEM_COMPONENT_COUNT>
1

> <PUBCHEM_CACTVS_TAUTO_COUNT>
1

> <PUBCHEM_CONFORMER_ID>
0000353B00000001

> <PUBCHEM_MMFF94_ENERGY>
20.6253

> <PUBCHEM_FEATURE_SELFOVERLAP>
10.148

> <PUBCHEM_SHAPE_FINGERPRINT>
1 1 17689437079283642989
10857977 72 18198617920662267706
12423570 1 14900229280632962836
12716758 59 18269560450974696222
13024252 1 14201396049659802548
13380535 76 18196647406524861775
16945 1 18410581681748669943
19021347 4 18194403294887220217
20645464 45 18131067083205497544
20871998 184 18272936067499130662
21040471 1 18194129524960616716
23402539 116 18341596114993883805
23552423 10 17899139596234661876
23559900 14 18055644919927593982
2748010 2 18049175371058372791
3071541 236 18334565815923146923
369184 2 18413100663251882114
54338 74 18261666081798580064
7364860 26 17188407171184178965
81228 2 18411143558155485075

> <PUBCHEM_SHAPE_MULTIPOLES>
205.8
3.61
2.45
0.73
3.28
0
0.03
0
0.6
-2.45
0.12
0.27
0
0

> <PUBCHEM_SHAPE_SELFOVERLAP>
417.038

> <PUBCHEM_SHAPE_VOLUME>
114.5

> <PUBCHEM_COORDINATE_TYPE>
2
5
10

$$$$
