135401296
  -OEChem-11012400313D

 28 29  0     0  0  0  0  0  0999 V2000
   -3.3718    2.2300    0.0017 O   0  0  0  0  0  0  0  0  0  0  0  0
    1.3155    0.9518   -0.0005 N   0  0  0  0  0  0  0  0  0  0  0  0
    0.2223    0.1644   -0.0009 N   0  0  0  0  0  0  0  0  0  0  0  0
   -2.1981    0.1380   -0.0015 C   0  0  0  0  0  0  0  0  0  0  0  0
    2.6023    0.3912    0.0000 C   0  0  0  0  0  0  0  0  0  0  0  0
   -3.3870    0.8672   -0.0005 C   0  0  0  0  0  0  0  0  0  0  0  0
   -2.2351   -1.2564   -0.0011 C   0  0  0  0  0  0  0  0  0  0  0  0
   -4.6131    0.2021    0.0008 C   0  0  0  0  0  0  0  0  0  0  0  0
   -0.9075    0.8125   -0.0013 C   0  0  0  0  0  0  0  0  0  0  0  0
    3.7242    1.2201    0.0001 C   0  0  0  0  0  0  0  0  0  0  0  0
    2.7592   -0.9947    0.0002 C   0  0  0  0  0  0  0  0  0  0  0  0
   -3.4612   -1.9216    0.0003 C   0  0  0  0  0  0  0  0  0  0  0  0
   -4.6503   -1.1924    0.0011 C   0  0  0  0  0  0  0  0  0  0  0  0
    5.0031    0.6629    0.0004 C   0  0  0  0  0  0  0  0  0  0  0  0
    4.0378   -1.5519    0.0006 C   0  0  0  0  0  0  0  0  0  0  0  0
    5.1598   -0.7231    0.0005 C   0  0  0  0  0  0  0  0  0  0  0  0
   -1.3269   -1.8532   -0.0016 H   0  0  0  0  0  0  0  0  0  0  0  0
   -5.5474    0.7573    0.0019 H   0  0  0  0  0  0  0  0  0  0  0  0
   -0.9134    1.9178   -0.0014 H   0  0  0  0  0  0  0  0  0  0  0  0
    3.6157    2.3017   -0.0001 H   0  0  0  0  0  0  0  0  0  0  0  0
    1.9083   -1.6707    0.0001 H   0  0  0  0  0  0  0  0  0  0  0  0
   -3.4905   -3.0073    0.0007 H   0  0  0  0  0  0  0  0  0  0  0  0
   -5.6049   -1.7104    0.0023 H   0  0  0  0  0  0  0  0  0  0  0  0
    1.2319    1.9622   -0.0005 H   0  0  0  0  0  0  0  0  0  0  0  0
    5.8767    1.3082    0.0005 H   0  0  0  0  0  0  0  0  0  0  0  0
    4.1605   -2.6311    0.0007 H   0  0  0  0  0  0  0  0  0  0  0  0
    6.1554   -1.1570    0.0008 H   0  0  0  0  0  0  0  0  0  0  0  0
   -4.2874    2.5581    0.0026 H   0  0  0  0  0  0  0  0  0  0  0  0
  1  6  1  0  0  0  0
  1 28  1  0  0  0  0
  2  3  1  0  0  0  0
  2  5  1  0  0  0  0
  2 24  1  0  0  0  0
  3  9  2  0  0  0  0
  4  6  1  0  0  0  0
  4  7  2  0  0  0  0
  4  9  1  0  0  0  0
  5 10  2  0  0  0  0
  5 11  1  0  0  0  0
  6  8  2  0  0  0  0
  7 12  1  0  0  0  0
  7 17  1  0  0  0  0
  8 13  1  0  0  0  0
  8 18  1  0  0  0  0
  9 19  1  0  0  0  0
 10 14  1  0  0  0  0
 10 20  1  0  0  0  0
 11 15  2  0  0  0  0
 11 21  1  0  0  0  0
 12 13  2  0  0  0  0
 12 22  1  0  0  0  0
 13 23  1  0  0  0  0
 14 16  2  0  0  0  0
 14 25  1  0  0  0  0
 15 16  1  0  0  0  0
 15 26  1  0  0  0  0
 16 27  1  0  0  0  0
M  END
> <PUBCHEM_COMPOUND_CID>
135401296

> <PUBCHEM_CONFORMER_RMSD>
0.6

> <PUBCHEM_CONFORMER_DIVERSEORDER>
1
20
23
6
11
15
9
8
2
19
18
7
14
24
13
22
12
17
4
21
3
16
10
5

> <PUBCHEM_MMFF94_PARTIAL_CHARGES>
28
1 -0.53
10 -0.15
11 -0.15
12 -0.15
13 -0.15
14 -0.15
15 -0.15
16 -0.15
17 0.15
18 0.15
19 0.06
2 -0.46
20 0.15
21 0.15
22 0.15
23 0.15
24 0.4
25 0.15
26 0.15
27 0.15
28 0.45
3 -0.49
4 0.09
5 0.1
6 0.08
7 -0.15
8 -0.15
9 0.3

> <PUBCHEM_EFFECTIVE_ROTOR_COUNT>
3

> <PUBCHEM_PHARMACOPHORE_FEATURES>
5
1 1 donor
1 2 donor
1 3 acceptor
6 4 6 7 8 12 13 rings
6 5 10 11 14 15 16 rings

> <PUBCHEM_HEAVY_ATOM_COUNT>
16

> <PUBCHEM_ATOM_DEF_STEREO_COUNT>
0

> <PUBCHEM_ATOM_UDEF_STEREO_COUNT>
0

> <PUBCHEM_BOND_DEF_STEREO_COUNT>
1

> <PUBCHEM_BOND_UDEF_STEREO_COUNT>
0

> <PUBCHEM_ISOTOPIC_ATOM_COUNT>
0

> <PUBCHEM_COMPONENT_COUNT>
1

> <PUBCHEM_CACTVS_TAUTO_COUNT>
-1

> <PUBCHEM_CONFORMER_ID>
08120F5000000001

> <PUBCHEM_MMFF94_ENERGY>
49.2084

> <PUBCHEM_FEATURE_SELFOVERLAP>
25.372

> <PUBCHEM_SHAPE_FINGERPRINT>
10014705 185 18113896040132208133
10616163 171 18411702114152303327
10680689 15 17821730516048727453
12107183 9 17761209916995030368
13167823 11 18409446985970617450
13675066 3 17988637493594154524
14251764 18 18202007651224456243
14252887 29 17275112717321145022
14341114 176 18411987970068995632
15196674 1 18410573981052045926
15242433 33 18410013243022366014
17834072 33 18409450314733659348
17844677 252 18412270540468465424
1813 80 17095245808623827244
18186145 218 15502380057958815212
1986462 14 18407760326575206237
200 152 18201719565343472186
20645477 70 18340770356224163814
21065198 57 18412543206350882600
21267235 1 18410019844213169522
221490 88 18263650739073270970
22485316 2 18409728456704880954
2306618 200 18130795538494122601
23402539 116 18334289868500923925
23402655 69 18409450272047645948
23559900 14 18340760537454282001
239999 70 18272657844640870670
26918003 58 18272367560031770162
2871803 45 18259980474929080298
300161 21 18408877443157896772
3004659 81 18334296436228742186
3268164 11 16515675628820692807
3545911 37 18411139134223274932
42 15 18411139138486405414
4214541 1 18410573959455812193
4921388 177 16660654006734313595
5104073 3 18412262822253447152
542803 24 17203613687384108024
559249 180 18335978653936847235
573450 72 18335695022875718849
57483677 66 18409446990228616026
67856867 119 18189899893098033484
77779 3 18410575084921652204
9709674 26 18410018744860102594
9971528 1 17821447971978640404

> <PUBCHEM_SHAPE_MULTIPOLES>
313.44
12.6
1.81
0.6
4.59
0.07
0
1.76
0
-0.91
0
0.01
0.02
0

> <PUBCHEM_SHAPE_SELFOVERLAP>
670.75

> <PUBCHEM_SHAPE_VOLUME>
172.7

> <PUBCHEM_COORDINATE_TYPE>
2
5
10

$$$$
