40997
  -OEChem-11012400393D

 51 51  0     0  0  0  0  0  0999 V2000
    4.4360   -0.2341    0.1914 C   0  0  0  0  0  0  0  0  0  0  0  0
    5.5416   -1.2961    0.1209 C   0  0  0  0  0  0  0  0  0  0  0  0
    4.8713    1.0556   -0.5172 C   0  0  0  0  0  0  0  0  0  0  0  0
    3.1367   -0.7673   -0.4091 C   0  0  0  0  0  0  0  0  0  0  0  0
    6.8661   -0.7681    0.6673 C   0  0  0  0  0  0  0  0  0  0  0  0
    6.1970    1.5797    0.0300 C   0  0  0  0  0  0  0  0  0  0  0  0
    7.2912    0.5185   -0.0335 C   0  0  0  0  0  0  0  0  0  0  0  0
    1.9245    0.0092    0.1063 C   0  0  0  0  0  0  0  0  0  0  0  0
    0.5893   -0.5341   -0.4127 C   0  0  0  0  0  0  0  0  0  0  0  0
   -0.6262    0.1977    0.1627 C   0  0  0  0  0  0  0  0  0  0  0  0
   -1.9615   -0.3370   -0.3655 C   0  0  0  0  0  0  0  0  0  0  0  0
   -3.1801    0.3445    0.2631 C   0  0  0  0  0  0  0  0  0  0  0  0
   -4.4840   -0.2465   -0.2798 C   0  0  0  0  0  0  0  0  0  0  0  0
   -5.7393    0.3801    0.3343 C   0  0  0  0  0  0  0  0  0  0  0  0
   -7.0428   -0.1925   -0.2268 C   0  0  0  0  0  0  0  0  0  0  0  0
   -8.2599    0.4154    0.4718 C   0  0  0  0  0  0  0  0  0  0  0  0
   -9.5597   -0.1251   -0.1030 C   0  0  0  0  0  0  0  0  0  0  0  0
    4.2721   -0.0067    1.2539 H   0  0  0  0  0  0  0  0  0  0  0  0
    5.2470   -2.1842    0.6926 H   0  0  0  0  0  0  0  0  0  0  0  0
    5.6821   -1.6189   -0.9188 H   0  0  0  0  0  0  0  0  0  0  0  0
    4.9759    0.8744   -1.5946 H   0  0  0  0  0  0  0  0  0  0  0  0
    4.1129    1.8370   -0.3991 H   0  0  0  0  0  0  0  0  0  0  0  0
    3.0074   -1.8204   -0.1283 H   0  0  0  0  0  0  0  0  0  0  0  0
    3.1693   -0.7372   -1.5050 H   0  0  0  0  0  0  0  0  0  0  0  0
    6.7686   -0.5824    1.7440 H   0  0  0  0  0  0  0  0  0  0  0  0
    7.6448   -1.5291    0.5440 H   0  0  0  0  0  0  0  0  0  0  0  0
    6.5074    2.4629   -0.5396 H   0  0  0  0  0  0  0  0  0  0  0  0
    6.0606    1.9019    1.0698 H   0  0  0  0  0  0  0  0  0  0  0  0
    7.5282    0.3014   -1.0824 H   0  0  0  0  0  0  0  0  0  0  0  0
    8.2070    0.9047    0.4278 H   0  0  0  0  0  0  0  0  0  0  0  0
    2.0039    1.0643   -0.1787 H   0  0  0  0  0  0  0  0  0  0  0  0
    1.9137   -0.0229    1.2031 H   0  0  0  0  0  0  0  0  0  0  0  0
    0.5726   -0.4602   -1.5070 H   0  0  0  0  0  0  0  0  0  0  0  0
    0.5137   -1.6003   -0.1658 H   0  0  0  0  0  0  0  0  0  0  0  0
   -0.6113    0.1104    1.2561 H   0  0  0  0  0  0  0  0  0  0  0  0
   -0.5501    1.2667   -0.0710 H   0  0  0  0  0  0  0  0  0  0  0  0
   -2.0141   -1.4158   -0.1723 H   0  0  0  0  0  0  0  0  0  0  0  0
   -1.9935   -0.2084   -1.4545 H   0  0  0  0  0  0  0  0  0  0  0  0
   -3.1480    0.2223    1.3523 H   0  0  0  0  0  0  0  0  0  0  0  0
   -3.1482    1.4208    0.0560 H   0  0  0  0  0  0  0  0  0  0  0  0
   -4.4979   -1.3275   -0.0923 H   0  0  0  0  0  0  0  0  0  0  0  0
   -4.5141   -0.1139   -1.3685 H   0  0  0  0  0  0  0  0  0  0  0  0
   -5.7193    1.4639    0.1652 H   0  0  0  0  0  0  0  0  0  0  0  0
   -5.7149    0.2291    1.4207 H   0  0  0  0  0  0  0  0  0  0  0  0
   -7.0943    0.0055   -1.3041 H   0  0  0  0  0  0  0  0  0  0  0  0
   -7.0513   -1.2814   -0.0971 H   0  0  0  0  0  0  0  0  0  0  0  0
   -8.2217    0.1960    1.5452 H   0  0  0  0  0  0  0  0  0  0  0  0
   -8.2459    1.5061    0.3625 H   0  0  0  0  0  0  0  0  0  0  0  0
   -9.6440    0.1079   -1.1693 H   0  0  0  0  0  0  0  0  0  0  0  0
   -9.6199   -1.2114    0.0174 H   0  0  0  0  0  0  0  0  0  0  0  0
  -10.4163    0.3218    0.4112 H   0  0  0  0  0  0  0  0  0  0  0  0
  1  2  1  0  0  0  0
  1  3  1  0  0  0  0
  1  4  1  0  0  0  0
  1 18  1  0  0  0  0
  2  5  1  0  0  0  0
  2 19  1  0  0  0  0
  2 20  1  0  0  0  0
  3  6  1  0  0  0  0
  3 21  1  0  0  0  0
  3 22  1  0  0  0  0
  4  8  1  0  0  0  0
  4 23  1  0  0  0  0
  4 24  1  0  0  0  0
  5  7  1  0  0  0  0
  5 25  1  0  0  0  0
  5 26  1  0  0  0  0
  6  7  1  0  0  0  0
  6 27  1  0  0  0  0
  6 28  1  0  0  0  0
  7 29  1  0  0  0  0
  7 30  1  0  0  0  0
  8  9  1  0  0  0  0
  8 31  1  0  0  0  0
  8 32  1  0  0  0  0
  9 10  1  0  0  0  0
  9 33  1  0  0  0  0
  9 34  1  0  0  0  0
 10 11  1  0  0  0  0
 10 35  1  0  0  0  0
 10 36  1  0  0  0  0
 11 12  1  0  0  0  0
 11 37  1  0  0  0  0
 11 38  1  0  0  0  0
 12 13  1  0  0  0  0
 12 39  1  0  0  0  0
 12 40  1  0  0  0  0
 13 14  1  0  0  0  0
 13 41  1  0  0  0  0
 13 42  1  0  0  0  0
 14 15  1  0  0  0  0
 14 43  1  0  0  0  0
 14 44  1  0  0  0  0
 15 16  1  0  0  0  0
 15 45  1  0  0  0  0
 15 46  1  0  0  0  0
 16 17  1  0  0  0  0
 16 47  1  0  0  0  0
 16 48  1  0  0  0  0
 17 49  1  0  0  0  0
 17 50  1  0  0  0  0
 17 51  1  0  0  0  0
M  END
> <PUBCHEM_COMPOUND_CID>
40997

> <PUBCHEM_CONFORMER_RMSD>
1.2

> <PUBCHEM_CONFORMER_DIVERSEORDER>
1
36
55
49
9
46
21
39
30
13
28
42
31
34
54
40
47
6
7
43
4
22
44
5
11
32
25
50
51
59
24
48
41
38
3
57
8
23
52
35
14
29
15
2
19
58
12
53
18
26
16
33
10
56
20
37
60
45
17
27

> <PUBCHEM_MMFF94_PARTIAL_CHARGES>
0

> <PUBCHEM_EFFECTIVE_ROTOR_COUNT>
11.2

> <PUBCHEM_PHARMACOPHORE_FEATURES>
2
1 17 hydrophobe
6 1 2 3 5 6 7 rings

> <PUBCHEM_HEAVY_ATOM_COUNT>
17

> <PUBCHEM_ATOM_DEF_STEREO_COUNT>
0

> <PUBCHEM_ATOM_UDEF_STEREO_COUNT>
0

> <PUBCHEM_BOND_DEF_STEREO_COUNT>
0

> <PUBCHEM_BOND_UDEF_STEREO_COUNT>
0

> <PUBCHEM_ISOTOPIC_ATOM_COUNT>
0

> <PUBCHEM_COMPONENT_COUNT>
1

> <PUBCHEM_CACTVS_TAUTO_COUNT>
1

> <PUBCHEM_CONFORMER_ID>
0000A02500000001

> <PUBCHEM_MMFF94_ENERGY>
1.1196

> <PUBCHEM_FEATURE_SELFOVERLAP>
10.148

> <PUBCHEM_SHAPE_FINGERPRINT>
10299344 5 18201718457764227143
10319688 140 13398090642678602452
11315181 36 18201722860928417731
11638347 137 17458061543234837250
13533116 47 17458617870918439610
13885169 127 17748825194920671621
14123256 10 16988844977556096337
14251764 18 18060139834545009313
14251764 46 18411418410129179330
15419008 47 16805595984683946253
155225 1 18272088345052629640
15716309 27 18411698786237905511
16120349 18 18409727395658535645
17834076 25 17846498131865553038
20157964 124 18410575072538131134
20281389 69 18408602556534690533
21150785 3 16128658552777623677
21315763 28 18408603634660964177
22224240 67 17967252005466948323
232437 2 18408604769476666907
23521765 1 18341894087177400227
246663 6 10015865388567729509
28498 318 8718834180294506633
33684 2 18202282493917080331
4325135 7 18130790061703938005
59682541 35 18408605885856590043
67123 10 18411981373943344655
8209 1 18413670210633753135

> <PUBCHEM_SHAPE_MULTIPOLES>
349.85
30.22
1.07
0.72
43.83
0.12
-0.01
2.48
-2.38
-2.05
0.01
-0.09
-0.01
-0.56

> <PUBCHEM_SHAPE_SELFOVERLAP>
649.752

> <PUBCHEM_SHAPE_VOLUME>
218.6

> <PUBCHEM_COORDINATE_TYPE>
2
5
10

$$$$
