145564
  -OEChem-11012400453D

 37 37  0     0  0  0  0  0  0999 V2000
   -1.9904   -1.4840   -0.4464 O   0  5  0  0  0  0  0  0  0  0  0  0
   -2.3312   -0.3107   -0.0778 N   0  3  0  0  0  0  0  0  0  0  0  0
   -3.7680   -0.0229    0.0369 C   0  0  0  0  0  0  0  0  0  0  0  0
   -4.5081   -1.2988   -0.3441 C   0  0  0  0  0  0  0  0  0  0  0  0
   -4.0104    0.3717    1.4873 C   0  0  0  0  0  0  0  0  0  0  0  0
   -4.0609    1.1178   -0.9290 C   0  0  0  0  0  0  0  0  0  0  0  0
    4.2504    0.0728   -0.1177 C   0  0  0  0  0  0  0  0  0  0  0  0
    2.7680    0.2199   -0.0463 C   0  0  0  0  0  0  0  0  0  0  0  0
   -1.4505    0.6387    0.1615 C   0  0  0  0  0  0  0  0  0  0  0  0
    0.0098    0.4946    0.0904 C   0  0  0  0  0  0  0  0  0  0  0  0
    2.1719    1.4399   -0.3659 C   0  0  0  0  0  0  0  0  0  0  0  0
    1.9777   -0.8618    0.3423 C   0  0  0  0  0  0  0  0  0  0  0  0
    0.7855    1.5779   -0.2972 C   0  0  0  0  0  0  0  0  0  0  0  0
    0.5913   -0.7239    0.4109 C   0  0  0  0  0  0  0  0  0  0  0  0
    4.6885   -0.9771   -1.1564 C   0  0  0  0  0  0  0  0  0  0  0  0
    4.8765   -0.2541    1.2513 C   0  0  0  0  0  0  0  0  0  0  0  0
   -4.2683   -2.1358    0.3229 H   0  0  0  0  0  0  0  0  0  0  0  0
   -5.5913   -1.1417   -0.2739 H   0  0  0  0  0  0  0  0  0  0  0  0
   -4.3014   -1.6092   -1.3754 H   0  0  0  0  0  0  0  0  0  0  0  0
   -3.5268    1.3135    1.7669 H   0  0  0  0  0  0  0  0  0  0  0  0
   -3.6501   -0.3998    2.1782 H   0  0  0  0  0  0  0  0  0  0  0  0
   -5.0830    0.5026    1.6720 H   0  0  0  0  0  0  0  0  0  0  0  0
   -3.7009    0.8917   -1.9397 H   0  0  0  0  0  0  0  0  0  0  0  0
   -5.1421    1.2869   -0.9977 H   0  0  0  0  0  0  0  0  0  0  0  0
   -3.6197    2.0727   -0.6265 H   0  0  0  0  0  0  0  0  0  0  0  0
    4.6865    1.0286   -0.4388 H   0  0  0  0  0  0  0  0  0  0  0  0
   -1.8220    1.6433    0.4158 H   0  0  0  0  0  0  0  0  0  0  0  0
    2.7726    2.2928   -0.6704 H   0  0  0  0  0  0  0  0  0  0  0  0
    2.4221   -1.8175    0.6064 H   0  0  0  0  0  0  0  0  0  0  0  0
    0.3309    2.5318   -0.5497 H   0  0  0  0  0  0  0  0  0  0  0  0
    0.0200   -1.5743    0.7674 H   0  0  0  0  0  0  0  0  0  0  0  0
    4.3637   -1.9862   -0.8808 H   0  0  0  0  0  0  0  0  0  0  0  0
    5.7797   -0.9920   -1.2502 H   0  0  0  0  0  0  0  0  0  0  0  0
    4.2693   -0.7473   -2.1423 H   0  0  0  0  0  0  0  0  0  0  0  0
    4.5914    0.4952    1.9983 H   0  0  0  0  0  0  0  0  0  0  0  0
    5.9697   -0.2602    1.1815 H   0  0  0  0  0  0  0  0  0  0  0  0
    4.5609   -1.2349    1.6227 H   0  0  0  0  0  0  0  0  0  0  0  0
  1  2  1  0  0  0  0
  2  3  1  0  0  0  0
  2  9  2  3  0  0  0
  3  4  1  0  0  0  0
  3  5  1  0  0  0  0
  3  6  1  0  0  0  0
  4 17  1  0  0  0  0
  4 18  1  0  0  0  0
  4 19  1  0  0  0  0
  5 20  1  0  0  0  0
  5 21  1  0  0  0  0
  5 22  1  0  0  0  0
  6 23  1  0  0  0  0
  6 24  1  0  0  0  0
  6 25  1  0  0  0  0
  7  8  1  0  0  0  0
  7 15  1  0  0  0  0
  7 16  1  0  0  0  0
  7 26  1  0  0  0  0
  8 11  2  0  0  0  0
  8 12  1  0  0  0  0
  9 10  1  0  0  0  0
  9 27  1  0  0  0  0
 10 13  2  0  0  0  0
 10 14  1  0  0  0  0
 11 13  1  0  0  0  0
 11 28  1  0  0  0  0
 12 14  2  0  0  0  0
 12 29  1  0  0  0  0
 13 30  1  0  0  0  0
 14 31  1  0  0  0  0
 15 32  1  0  0  0  0
 15 33  1  0  0  0  0
 15 34  1  0  0  0  0
 16 35  1  0  0  0  0
 16 36  1  0  0  0  0
 16 37  1  0  0  0  0
M  CHG  2   1  -1   2   1
M  END
> <PUBCHEM_COMPOUND_CID>
145564

> <PUBCHEM_CONFORMER_RMSD>
0.6

> <PUBCHEM_CONFORMER_DIVERSEORDER>
1
3
10
7
9
8
5
6
4
2

> <PUBCHEM_MMFF94_PARTIAL_CHARGES>
16
1 -0.63
10 0.09
11 -0.15
12 -0.15
13 -0.15
14 -0.15
2 0.53
27 0.06
28 0.15
29 0.15
3 0.1
30 0.15
31 0.15
7 0.14
8 -0.14
9 -0.14

> <PUBCHEM_EFFECTIVE_ROTOR_COUNT>
3

> <PUBCHEM_PHARMACOPHORE_FEATURES>
4
1 1 anion
3 7 15 16 hydrophobe
4 3 4 5 6 hydrophobe
6 8 10 11 12 13 14 rings

> <PUBCHEM_HEAVY_ATOM_COUNT>
16

> <PUBCHEM_ATOM_DEF_STEREO_COUNT>
0

> <PUBCHEM_ATOM_UDEF_STEREO_COUNT>
0

> <PUBCHEM_BOND_DEF_STEREO_COUNT>
0

> <PUBCHEM_BOND_UDEF_STEREO_COUNT>
1

> <PUBCHEM_ISOTOPIC_ATOM_COUNT>
0

> <PUBCHEM_COMPONENT_COUNT>
1

> <PUBCHEM_CACTVS_TAUTO_COUNT>
1

> <PUBCHEM_CONFORMER_ID>
0002389C00000001

> <PUBCHEM_MMFF94_ENERGY>
53.9807

> <PUBCHEM_FEATURE_SELFOVERLAP>
20.297

> <PUBCHEM_SHAPE_FINGERPRINT>
10366900 7 17240198859325974625
10680689 15 18187651301640086137
11132069 177 18412821387261516666
11401426 45 18408597067909039832
11471102 20 18261391178359384604
11543360 7 14562539500315440464
12032990 46 18411422795675832516
12236239 1 18202849855229098297
12670546 56 17060337379709807762
12916754 54 18338518668232193125
13675066 3 18131068255415071250
13690532 89 18334574642302479706
13760787 5 17676209074191567212
13862211 1 18261106366393701098
14004511 7 18272091599856487977
14252887 29 18272937103002785174
14911166 2 18186809080181157950
15196674 1 18408321115922804661
15375358 24 18202562869477180430
15536298 74 18341048622575344136
15788980 27 18040433282743973978
17834072 33 18201154463600990100
17834072 8 18408602535207300661
18186145 218 18408324405988994729
19422 9 18271250524974395149
200 152 18412539920932886289
204376 136 12679460902214914812
20645477 70 18410576210371785166
21267235 1 18409738386843608943
221490 88 18118129301231977355
22485316 2 16415477151440507862
2306618 200 18341896273601123521
23402539 116 18260257542973660436
23402655 69 18260265213806545053
23559900 14 18060702823374740736
29717793 49 18201717371116344253
4047638 21 12179848299490516940
42 15 17489594441523663606
4214541 1 18409446986218478901
4990 188 18410296904306255070
5104073 3 18338518646219547217
542803 24 17203894062912507432
633830 44 17240761821647495444
7495541 125 16226059928300706928
90127 26 18040158430596797357
9971528 1 18273497866907692508
9981440 41 17188118532123690656

> <PUBCHEM_SHAPE_MULTIPOLES>
318.42
10.76
1.4
1.04
0.52
0.12
0.18
-2.03
-0.01
-0.31
-0.27
0.08
-0.04
0

> <PUBCHEM_SHAPE_SELFOVERLAP>
649.598

> <PUBCHEM_SHAPE_VOLUME>
187

> <PUBCHEM_COORDINATE_TYPE>
2
5
10

$$$$
