140996
  -OEChem-11012401213D

 18 17  0     0  0  0  0  0  0999 V2000
   -1.1240    0.0013   -1.6667 F   0  0  0  0  0  0  0  0  0  0  0  0
    0.5803   -2.0741   -1.3004 O   0  5  0  0  0  0  0  0  0  0  0  0
    0.9395    1.5877   -1.7851 O   0  5  0  0  0  0  0  0  0  0  0  0
    1.0155   -1.1160    2.0473 O   0  5  0  0  0  0  0  0  0  0  0  0
    2.5204   -1.4584   -0.4896 O   0  0  0  0  0  0  0  0  0  0  0  0
    2.3957    1.5660   -0.1494 O   0  0  0  0  0  0  0  0  0  0  0  0
    1.0882    1.0727    2.0024 O   0  0  0  0  0  0  0  0  0  0  0  0
   -1.6862   -1.3300    1.4166 O   0  5  0  0  0  0  0  0  0  0  0  0
   -1.4925    1.6092    1.3201 O   0  5  0  0  0  0  0  0  0  0  0  0
   -2.3325   -1.8156   -0.6210 O   0  0  0  0  0  0  0  0  0  0  0  0
   -2.0943    1.9931   -0.7538 O   0  0  0  0  0  0  0  0  0  0  0  0
    1.3076   -1.2904   -0.6701 N   0  3  0  0  0  0  0  0  0  0  0  0
    1.3975    1.1197   -0.7326 N   0  3  0  0  0  0  0  0  0  0  0  0
    0.9528   -0.0301    1.4526 N   0  3  0  0  0  0  0  0  0  0  0  0
   -1.7024   -1.1300    0.1940 N   0  3  0  0  0  0  0  0  0  0  0  0
   -1.5394    1.3116    0.1189 N   0  3  0  0  0  0  0  0  0  0  0  0
    0.6430   -0.0439   -0.0531 C   0  0  0  0  0  0  0  0  0  0  0  0
   -0.8694    0.0272   -0.3300 C   0  0  0  0  0  0  0  0  0  0  0  0
  1 18  1  0  0  0  0
  2 12  1  0  0  0  0
  3 13  1  0  0  0  0
  4 14  1  0  0  0  0
  5 12  2  0  0  0  0
  6 13  2  0  0  0  0
  7 14  2  0  0  0  0
  8 15  1  0  0  0  0
  9 16  1  0  0  0  0
 10 15  2  0  0  0  0
 11 16  2  0  0  0  0
 12 17  1  0  0  0  0
 13 17  1  0  0  0  0
 14 17  1  0  0  0  0
 15 18  1  0  0  0  0
 16 18  1  0  0  0  0
 17 18  1  0  0  0  0
M  CHG  8   2  -1   3  -1   4  -1   8  -1   9  -1  12   1  13   1  14   1
M  CHG  2  15   1  16   1
M  END
> <PUBCHEM_COMPOUND_CID>
140996

> <PUBCHEM_CONFORMER_RMSD>
0.8

> <PUBCHEM_CONFORMER_DIVERSEORDER>
1
2
3

> <PUBCHEM_MMFF94_PARTIAL_CHARGES>
18
1 -0.34
10 -0.52
11 -0.52
12 0.8
13 0.8
14 0.8
15 0.8
16 0.8
17 0.72
18 0.82
2 -0.52
3 -0.52
4 -0.52
5 -0.52
6 -0.52
7 -0.52
8 -0.52
9 -0.52

> <PUBCHEM_EFFECTIVE_ROTOR_COUNT>
6

> <PUBCHEM_PHARMACOPHORE_FEATURES>
15
1 10 acceptor
1 11 acceptor
1 2 acceptor
1 2 anion
1 3 acceptor
1 3 anion
1 4 acceptor
1 4 anion
1 5 acceptor
1 6 acceptor
1 7 acceptor
1 8 acceptor
1 8 anion
1 9 acceptor
1 9 anion

> <PUBCHEM_HEAVY_ATOM_COUNT>
18

> <PUBCHEM_ATOM_DEF_STEREO_COUNT>
0

> <PUBCHEM_ATOM_UDEF_STEREO_COUNT>
0

> <PUBCHEM_BOND_DEF_STEREO_COUNT>
0

> <PUBCHEM_BOND_UDEF_STEREO_COUNT>
0

> <PUBCHEM_ISOTOPIC_ATOM_COUNT>
0

> <PUBCHEM_COMPONENT_COUNT>
1

> <PUBCHEM_CACTVS_TAUTO_COUNT>
1

> <PUBCHEM_CONFORMER_ID>
000226C400000001

> <PUBCHEM_MMFF94_ENERGY>
54.9022

> <PUBCHEM_FEATURE_SELFOVERLAP>
76.585

> <PUBCHEM_SHAPE_FINGERPRINT>
12423570 1 18046907357753798670
13024252 1 15434593954999617342
144361 1 18409440375846910103
14817 1 11729218285873000760
15557651 10 17273713141407253996
16945 1 17982745073152091052
20082192 1 18335134254855523341
21922407 69 17821997735817947385
23419403 2 16257812402598074210
2748010 2 18412833477525961540
3060560 45 17756704140220557085
5084963 1 17751359705960217188
528886 8 18194405489768599854
54276843 12 17973154325270376908

> <PUBCHEM_SHAPE_MULTIPOLES>
279.56
2.81
2.18
1.78
0.1
0.03
0.6
0.05
-0.22
0.27
-0.4
-0.29
-0.07
0.04

> <PUBCHEM_SHAPE_SELFOVERLAP>
570.294

> <PUBCHEM_SHAPE_VOLUME>
156.7

> <PUBCHEM_COORDINATE_TYPE>
2
5
10

$$$$
