140647
  -OEChem-11012400293D

 14 13  0     0  0  0  0  0  0999 V2000
    0.4510    0.1223    1.6575 F   0  0  0  0  0  0  0  0  0  0  0  0
   -0.8479   -1.9315    0.2852 F   0  0  0  0  0  0  0  0  0  0  0  0
   -0.7430   -0.7940   -1.5766 F   0  0  0  0  0  0  0  0  0  0  0  0
    0.7438    1.6058   -1.4109 O   0  5  0  0  0  0  0  0  0  0  0  0
    1.8369   -1.3686   -1.0113 O   0  5  0  0  0  0  0  0  0  0  0  0
    0.6355    2.3452    0.6558 O   0  0  0  0  0  0  0  0  0  0  0  0
    2.7025   -0.5592    0.8388 O   0  0  0  0  0  0  0  0  0  0  0  0
   -2.4225    0.8484   -0.6558 O   0  5  0  0  0  0  0  0  0  0  0  0
   -2.5495   -0.3533    1.1822 O   0  0  0  0  0  0  0  0  0  0  0  0
    0.6327    1.4394   -0.1891 N   0  3  0  0  0  0  0  0  0  0  0  0
    1.7820   -0.6852    0.0200 N   0  3  0  0  0  0  0  0  0  0  0  0
   -1.9961   -0.0070    0.1308 N   0  3  0  0  0  0  0  0  0  0  0  0
    0.4898    0.0288    0.3065 C   0  0  0  0  0  0  0  0  0  0  0  0
   -0.7153   -0.6913   -0.2330 C   0  0  0  0  0  0  0  0  0  0  0  0
  1 13  1  0  0  0  0
  2 14  1  0  0  0  0
  3 14  1  0  0  0  0
  4 10  1  0  0  0  0
  5 11  1  0  0  0  0
  6 10  2  0  0  0  0
  7 11  2  0  0  0  0
  8 12  1  0  0  0  0
  9 12  2  0  0  0  0
 10 13  1  0  0  0  0
 11 13  1  0  0  0  0
 12 14  1  0  0  0  0
 13 14  1  0  0  0  0
M  CHG  6   4  -1   5  -1   8  -1  10   1  11   1  12   1
M  END
> <PUBCHEM_COMPOUND_CID>
140647

> <PUBCHEM_CONFORMER_RMSD>
0.6

> <PUBCHEM_CONFORMER_DIVERSEORDER>
1
12
11
9
3
10
15
5
2
14
17
16
4
13
6
8
7

> <PUBCHEM_MMFF94_PARTIAL_CHARGES>
14
1 -0.34
10 0.8
11 0.8
12 0.8
13 0.82
14 0.92
2 -0.34
3 -0.34
4 -0.52
5 -0.52
6 -0.52
7 -0.52
8 -0.52
9 -0.52

> <PUBCHEM_EFFECTIVE_ROTOR_COUNT>
4

> <PUBCHEM_PHARMACOPHORE_FEATURES>
9
1 4 acceptor
1 4 anion
1 5 acceptor
1 5 anion
1 6 acceptor
1 7 acceptor
1 8 acceptor
1 8 anion
1 9 acceptor

> <PUBCHEM_HEAVY_ATOM_COUNT>
14

> <PUBCHEM_ATOM_DEF_STEREO_COUNT>
0

> <PUBCHEM_ATOM_UDEF_STEREO_COUNT>
0

> <PUBCHEM_BOND_DEF_STEREO_COUNT>
0

> <PUBCHEM_BOND_UDEF_STEREO_COUNT>
0

> <PUBCHEM_ISOTOPIC_ATOM_COUNT>
0

> <PUBCHEM_COMPONENT_COUNT>
1

> <PUBCHEM_CACTVS_TAUTO_COUNT>
1

> <PUBCHEM_CONFORMER_ID>
0002256700000001

> <PUBCHEM_MMFF94_ENERGY>
22.583

> <PUBCHEM_FEATURE_SELFOVERLAP>
45.918

> <PUBCHEM_SHAPE_FINGERPRINT>
12423570 1 14152391284883027839
13024252 1 14997145548770100738
137420 1 12947371590499421804
16945 1 18130506344806916242
20653091 64 18114753740373397537
29004967 10 18408606928974687962
5084963 1 18272645775286759931

> <PUBCHEM_SHAPE_MULTIPOLES>
216.13
2.86
1.77
1.27
0.53
0.69
0.06
-0.56
-0.42
-0.41
0.16
-0.02
0.04
0.16

> <PUBCHEM_SHAPE_SELFOVERLAP>
441.348

> <PUBCHEM_SHAPE_VOLUME>
125.3

> <PUBCHEM_COORDINATE_TYPE>
2
5
10

$$$$
