14498
  -OEChem-11012400573D

 21 21  0     1  0  0  0  0  0999 V2000
    0.7315   -0.4665   -0.4585 C   0  0  2  0  0  0  0  0  0  0  0  0
   -0.0168    0.8760   -0.4770 C   0  0  1  0  0  0  0  0  0  0  0  0
   -0.1146   -1.3527    0.4595 C   0  0  0  0  0  0  0  0  0  0  0  0
   -1.4752    0.4158   -0.5471 C   0  0  0  0  0  0  0  0  0  0  0  0
   -1.5479   -0.8358    0.3256 C   0  0  0  0  0  0  0  0  0  0  0  0
    2.1926   -0.4044   -0.0426 C   0  0  0  0  0  0  0  0  0  0  0  0
    0.2304    1.7675    0.7400 C   0  0  0  0  0  0  0  0  0  0  0  0
    0.6887   -0.8897   -1.4723 H   0  0  0  0  0  0  0  0  0  0  0  0
    0.2428    1.4463   -1.3767 H   0  0  0  0  0  0  0  0  0  0  0  0
    0.2098   -1.2729    1.5038 H   0  0  0  0  0  0  0  0  0  0  0  0
   -0.0399   -2.4078    0.1760 H   0  0  0  0  0  0  0  0  0  0  0  0
   -1.7244    0.1476   -1.5815 H   0  0  0  0  0  0  0  0  0  0  0  0
   -2.1879    1.1826   -0.2276 H   0  0  0  0  0  0  0  0  0  0  0  0
   -2.2075   -1.5867   -0.1217 H   0  0  0  0  0  0  0  0  0  0  0  0
   -1.9520   -0.5941    1.3152 H   0  0  0  0  0  0  0  0  0  0  0  0
    2.7489    0.2838   -0.6871 H   0  0  0  0  0  0  0  0  0  0  0  0
    2.3112   -0.0740    0.9943 H   0  0  0  0  0  0  0  0  0  0  0  0
    2.6548   -1.3937   -0.1266 H   0  0  0  0  0  0  0  0  0  0  0  0
    1.2667    2.1195    0.7617 H   0  0  0  0  0  0  0  0  0  0  0  0
   -0.4140    2.6525    0.7021 H   0  0  0  0  0  0  0  0  0  0  0  0
    0.0283    1.2483    1.6822 H   0  0  0  0  0  0  0  0  0  0  0  0
  1  2  1  0  0  0  0
  1  3  1  0  0  0  0
  1  6  1  0  0  0  0
  1  8  1  0  0  0  0
  2  4  1  0  0  0  0
  2  7  1  0  0  0  0
  2  9  1  0  0  0  0
  3  5  1  0  0  0  0
  3 10  1  0  0  0  0
  3 11  1  0  0  0  0
  4  5  1  0  0  0  0
  4 12  1  0  0  0  0
  4 13  1  0  0  0  0
  5 14  1  0  0  0  0
  5 15  1  0  0  0  0
  6 16  1  0  0  0  0
  6 17  1  0  0  0  0
  6 18  1  0  0  0  0
  7 19  1  0  0  0  0
  7 20  1  0  0  0  0
  7 21  1  0  0  0  0
M  END
> <PUBCHEM_COMPOUND_CID>
14498

> <PUBCHEM_CONFORMER_RMSD>
0.4

> <PUBCHEM_CONFORMER_DIVERSEORDER>
1
2

> <PUBCHEM_MMFF94_PARTIAL_CHARGES>
0

> <PUBCHEM_EFFECTIVE_ROTOR_COUNT>
1

> <PUBCHEM_PHARMACOPHORE_FEATURES>
1
5 1 2 3 4 5 rings

> <PUBCHEM_HEAVY_ATOM_COUNT>
7

> <PUBCHEM_ATOM_DEF_STEREO_COUNT>
2

> <PUBCHEM_ATOM_UDEF_STEREO_COUNT>
0

> <PUBCHEM_BOND_DEF_STEREO_COUNT>
0

> <PUBCHEM_BOND_UDEF_STEREO_COUNT>
0

> <PUBCHEM_ISOTOPIC_ATOM_COUNT>
0

> <PUBCHEM_COMPONENT_COUNT>
1

> <PUBCHEM_CACTVS_TAUTO_COUNT>
1

> <PUBCHEM_CONFORMER_ID>
000038A200000001

> <PUBCHEM_MMFF94_ENERGY>
11.6531

> <PUBCHEM_FEATURE_SELFOVERLAP>
5.074

> <PUBCHEM_SHAPE_FINGERPRINT>
12423570 1 10202057782135704141
137420 1 12367897154170501727
20096714 4 16972240964580961748
21040471 1 17973444295533994213
23552423 10 17896327926202225694
29004967 10 18131918156344291550
5943 1 15889926742282461197

> <PUBCHEM_SHAPE_MULTIPOLES>
144.06
2.04
1.61
0.85
0.57
0.43
0.02
-0.46
-0.12
-0.05
0.4
-0.05
0.12
0.19

> <PUBCHEM_SHAPE_SELFOVERLAP>
275.752

> <PUBCHEM_SHAPE_VOLUME>
87.7

> <PUBCHEM_COORDINATE_TYPE>
2
5
10

$$$$
