141411
  -OEChem-11012401243D

 37 41  0     1  0  0  0  0  0999 V2000
   -0.4404    1.0880   -0.5844 C   0  0  0  0  0  0  0  0  0  0  0  0
    0.1201    1.0834    0.8638 C   0  0  1  0  0  0  0  0  0  0  0  0
    0.4139    0.1156   -1.4452 C   0  0  2  0  0  0  0  0  0  0  0  0
   -0.0015   -0.3471    1.4466 C   0  0  2  0  0  0  0  0  0  0  0  0
    0.2916   -1.3154   -0.8609 C   0  0  1  0  0  0  0  0  0  0  0  0
    0.8482   -1.3152    0.5850 C   0  0  0  0  0  0  0  0  0  0  0  0
   -2.0220   -0.7863    0.0004 C   0  0  0  0  0  0  0  0  0  0  0  0
   -1.9167    0.6249   -0.6214 C   0  0  1  0  0  0  0  0  0  0  0  0
    2.4297    0.5565   -0.0004 C   0  0  0  0  0  0  0  0  0  0  0  0
   -1.4701   -0.7983    1.4355 C   0  0  0  0  0  0  0  0  0  0  0  0
   -1.1814   -1.7555   -0.8501 C   0  0  0  0  0  0  0  0  0  0  0  0
    1.5951    1.5186    0.8549 C   0  0  0  0  0  0  0  0  0  0  0  0
    1.8851    0.5594   -1.4348 C   0  0  0  0  0  0  0  0  0  0  0  0
    2.3159   -0.8600    0.5796 C   0  0  0  0  0  0  0  0  0  0  0  0
   -2.8675    1.6311    0.0314 C   0  0  0  0  0  0  0  0  0  0  0  0
   -0.3668    2.0998   -1.0037 H   0  0  0  0  0  0  0  0  0  0  0  0
   -0.4410    1.7863    1.4898 H   0  0  0  0  0  0  0  0  0  0  0  0
    0.0498    0.1229   -2.4803 H   0  0  0  0  0  0  0  0  0  0  0  0
    0.3664   -0.3566    2.4803 H   0  0  0  0  0  0  0  0  0  0  0  0
    0.8683   -2.0160   -1.4777 H   0  0  0  0  0  0  0  0  0  0  0  0
    0.7912   -2.3282    1.0027 H   0  0  0  0  0  0  0  0  0  0  0  0
   -3.0661   -1.1201    0.0035 H   0  0  0  0  0  0  0  0  0  0  0  0
   -2.2252    0.5577   -1.6744 H   0  0  0  0  0  0  0  0  0  0  0  0
    3.4783    0.8742   -0.0006 H   0  0  0  0  0  0  0  0  0  0  0  0
   -2.0675   -0.1503    2.0861 H   0  0  0  0  0  0  0  0  0  0  0  0
   -1.5486   -1.8097    1.8538 H   0  0  0  0  0  0  0  0  0  0  0  0
   -1.2638   -2.7734   -0.4496 H   0  0  0  0  0  0  0  0  0  0  0  0
   -1.5687   -1.7874   -1.8759 H   0  0  0  0  0  0  0  0  0  0  0  0
    1.9832    1.5400    1.8807 H   0  0  0  0  0  0  0  0  0  0  0  0
    1.6799    2.5393    0.4621 H   0  0  0  0  0  0  0  0  0  0  0  0
    1.9751    1.5630   -1.8682 H   0  0  0  0  0  0  0  0  0  0  0  0
    2.4819   -0.1128   -2.0635 H   0  0  0  0  0  0  0  0  0  0  0  0
    2.9207   -1.5572   -0.0131 H   0  0  0  0  0  0  0  0  0  0  0  0
    2.7164   -0.8802    1.6006 H   0  0  0  0  0  0  0  0  0  0  0  0
   -2.6616    1.7899    1.0927 H   0  0  0  0  0  0  0  0  0  0  0  0
   -2.7954    2.6027   -0.4691 H   0  0  0  0  0  0  0  0  0  0  0  0
   -3.9039    1.2884   -0.0577 H   0  0  0  0  0  0  0  0  0  0  0  0
  1  2  1  0  0  0  0
  1  3  1  0  0  0  0
  1  8  1  0  0  0  0
  1 16  1  0  0  0  0
  2  4  1  0  0  0  0
  2 12  1  0  0  0  0
  2 17  1  0  0  0  0
  3  5  1  0  0  0  0
  3 13  1  0  0  0  0
  3 18  1  0  0  0  0
  4  6  1  0  0  0  0
  4 10  1  0  0  0  0
  4 19  1  0  0  0  0
  5  6  1  0  0  0  0
  5 11  1  0  0  0  0
  5 20  1  0  0  0  0
  6 14  1  0  0  0  0
  6 21  1  0  0  0  0
  7  8  1  0  0  0  0
  7 10  1  0  0  0  0
  7 11  1  0  0  0  0
  7 22  1  0  0  0  0
  8 15  1  0  0  0  0
  8 23  1  0  0  0  0
  9 12  1  0  0  0  0
  9 13  1  0  0  0  0
  9 14  1  0  0  0  0
  9 24  1  0  0  0  0
 10 25  1  0  0  0  0
 10 26  1  0  0  0  0
 11 27  1  0  0  0  0
 11 28  1  0  0  0  0
 12 29  1  0  0  0  0
 12 30  1  0  0  0  0
 13 31  1  0  0  0  0
 13 32  1  0  0  0  0
 14 33  1  0  0  0  0
 14 34  1  0  0  0  0
 15 35  1  0  0  0  0
 15 36  1  0  0  0  0
 15 37  1  0  0  0  0
M  END
> <PUBCHEM_COMPOUND_CID>
141411

> <PUBCHEM_CONFORMER_RMSD>
0.6

> <PUBCHEM_CONFORMER_DIVERSEORDER>
1

> <PUBCHEM_MMFF94_PARTIAL_CHARGES>
0

> <PUBCHEM_EFFECTIVE_ROTOR_COUNT>
1.2

> <PUBCHEM_PHARMACOPHORE_FEATURES>
7
6 1 2 3 4 5 6 rings
6 1 2 3 9 12 13 rings
6 1 2 4 7 8 10 rings
6 1 3 5 7 8 11 rings
6 2 4 6 9 12 14 rings
6 3 5 6 9 13 14 rings
6 4 5 6 7 10 11 rings

> <PUBCHEM_HEAVY_ATOM_COUNT>
15

> <PUBCHEM_ATOM_DEF_STEREO_COUNT>
0

> <PUBCHEM_ATOM_UDEF_STEREO_COUNT>
5

> <PUBCHEM_BOND_DEF_STEREO_COUNT>
0

> <PUBCHEM_BOND_UDEF_STEREO_COUNT>
0

> <PUBCHEM_ISOTOPIC_ATOM_COUNT>
0

> <PUBCHEM_COMPONENT_COUNT>
1

> <PUBCHEM_CACTVS_TAUTO_COUNT>
1

> <PUBCHEM_CONFORMER_ID>
0002286300000001

> <PUBCHEM_MMFF94_ENERGY>
43.065

> <PUBCHEM_FEATURE_SELFOVERLAP>
60.894

> <PUBCHEM_SHAPE_FINGERPRINT>
10863032 1 18410849949785406314
10948715 1 18335984185844181388
12423570 1 11089908078699419260
12491281 212 18410291389336209673
12808571 1 17603595139748795628
13024252 1 17677887018998023748
13571099 52 17631716180453109313
141345 1 11850104826001296270
144361 1 18118992224644126110
15557651 10 17979954748716245202
15775835 57 18411139151371463104
16945 1 18193553595615974766
20511035 2 18334295335952048007
21501502 16 18334290963685792827
22344851 262 18040153994079794236
23559900 14 18130790028462304190
241688 4 16394941237645158651
2748010 2 18271519900648632636
369184 2 18271240637790881130
5084963 1 17895181208208545615
528886 8 18129932382499293321

> <PUBCHEM_SHAPE_MULTIPOLES>
308.69
3.16
1.75
1.46
0.37
0.04
0
-0.8
0.01
0.39
0.01
-0.17
0.1
-0.01

> <PUBCHEM_SHAPE_SELFOVERLAP>
701.634

> <PUBCHEM_SHAPE_VOLUME>
150.7

> <PUBCHEM_COORDINATE_TYPE>
2
5
10

$$$$
