74578
  -OEChem-11012401273D

 24 23  0     0  0  0  0  0  0999 V2000
    1.1309    0.0809    0.0293 Si  0  0  0  0  0  0  0  0  0  0  0  0
   -0.3942    0.6857    0.3819 O   0  0  0  0  0  0  0  0  0  0  0  0
   -1.5335    0.1400   -0.2666 C   0  0  0  0  0  0  0  0  0  0  0  0
    1.4989    0.3083   -1.8047 C   0  0  0  0  0  0  0  0  0  0  0  0
    1.2419   -1.7557    0.4207 C   0  0  0  0  0  0  0  0  0  0  0  0
    2.4623    0.9826    1.0051 C   0  0  0  0  0  0  0  0  0  0  0  0
   -1.6322   -1.3427    0.0583 C   0  0  0  0  0  0  0  0  0  0  0  0
   -2.7741    0.9009    0.1761 C   0  0  0  0  0  0  0  0  0  0  0  0
   -1.4449    0.2749   -1.3530 H   0  0  0  0  0  0  0  0  0  0  0  0
    1.4191    1.3631   -2.0828 H   0  0  0  0  0  0  0  0  0  0  0  0
    2.5118   -0.0341   -2.0365 H   0  0  0  0  0  0  0  0  0  0  0  0
    0.7956   -0.2647   -2.4157 H   0  0  0  0  0  0  0  0  0  0  0  0
    0.8927   -2.3939   -0.3933 H   0  0  0  0  0  0  0  0  0  0  0  0
    2.2990   -2.0104    0.5608 H   0  0  0  0  0  0  0  0  0  0  0  0
    0.7378   -2.0140    1.3550 H   0  0  0  0  0  0  0  0  0  0  0  0
    3.4538    0.5929    0.7567 H   0  0  0  0  0  0  0  0  0  0  0  0
    2.4458    2.0526    0.7780 H   0  0  0  0  0  0  0  0  0  0  0  0
    2.3015    0.8563    2.0797 H   0  0  0  0  0  0  0  0  0  0  0  0
   -2.6664   -1.6810   -0.0883 H   0  0  0  0  0  0  0  0  0  0  0  0
   -1.0609   -1.9562   -0.6386 H   0  0  0  0  0  0  0  0  0  0  0  0
   -1.3789   -1.5723    1.0968 H   0  0  0  0  0  0  0  0  0  0  0  0
   -3.6729    0.5309   -0.3266 H   0  0  0  0  0  0  0  0  0  0  0  0
   -2.6657    1.9683   -0.0447 H   0  0  0  0  0  0  0  0  0  0  0  0
   -2.9173    0.8170    1.2591 H   0  0  0  0  0  0  0  0  0  0  0  0
  1  2  1  0  0  0  0
  1  4  1  0  0  0  0
  1  5  1  0  0  0  0
  1  6  1  0  0  0  0
  2  3  1  0  0  0  0
  3  7  1  0  0  0  0
  3  8  1  0  0  0  0
  3  9  1  0  0  0  0
  4 10  1  0  0  0  0
  4 11  1  0  0  0  0
  4 12  1  0  0  0  0
  5 13  1  0  0  0  0
  5 14  1  0  0  0  0
  5 15  1  0  0  0  0
  6 16  1  0  0  0  0
  6 17  1  0  0  0  0
  6 18  1  0  0  0  0
  7 19  1  0  0  0  0
  7 20  1  0  0  0  0
  7 21  1  0  0  0  0
  8 22  1  0  0  0  0
  8 23  1  0  0  0  0
  8 24  1  0  0  0  0
M  END
> <PUBCHEM_COMPOUND_CID>
74578

> <PUBCHEM_CONFORMER_RMSD>
0.4

> <PUBCHEM_CONFORMER_DIVERSEORDER>
1
2

> <PUBCHEM_MMFF94_PARTIAL_CHARGES>
6
1 0.54
2 -0.58
3 0.28
4 -0.08
5 -0.08
6 -0.08

> <PUBCHEM_EFFECTIVE_ROTOR_COUNT>
2

> <PUBCHEM_PHARMACOPHORE_FEATURES>
1
3 3 7 8 hydrophobe

> <PUBCHEM_HEAVY_ATOM_COUNT>
8

> <PUBCHEM_ATOM_DEF_STEREO_COUNT>
0

> <PUBCHEM_ATOM_UDEF_STEREO_COUNT>
0

> <PUBCHEM_BOND_DEF_STEREO_COUNT>
0

> <PUBCHEM_BOND_UDEF_STEREO_COUNT>
0

> <PUBCHEM_ISOTOPIC_ATOM_COUNT>
0

> <PUBCHEM_COMPONENT_COUNT>
1

> <PUBCHEM_CACTVS_TAUTO_COUNT>
1

> <PUBCHEM_CONFORMER_ID>
0001235200000001

> <PUBCHEM_MMFF94_ENERGY>
15.5555

> <PUBCHEM_FEATURE_SELFOVERLAP>
5.074

> <PUBCHEM_SHAPE_FINGERPRINT>
12932741 1 17845948393300158125
12932764 1 18343027649179434813
14390081 3 18202278113140317321
18185500 45 18334858277278767391
20711978 78 18054203472166004710
21040471 1 18408327687291202811
23211744 41 17772745211362452816
23235685 24 17967258597930069356
23235687 12 17167580513935874647
23552423 10 18113623361048072395
23552449 11 17987792995380559670
24536 1 17531252767935974371
29004967 10 15357961357476519216
3248919 1 17676211264719950729
5084963 1 17896890841684671097

> <PUBCHEM_SHAPE_MULTIPOLES>
176.98
3.58
1.51
1.22
1.61
0.68
-0.53
-0.96
0.5
-0.06
0.26
-0.86
-0.24
0.01

> <PUBCHEM_SHAPE_SELFOVERLAP>
301.511

> <PUBCHEM_SHAPE_VOLUME>
120.5

> <PUBCHEM_COORDINATE_TYPE>
2
5
10

$$$$
