138898
  -OEChem-11012400393D

 30 32  0     0  0  0  0  0  0999 V2000
    0.0013    2.1009    0.2504 S   0  0  0  0  0  0  0  0  0  0  0  0
    0.0004   -0.2504    2.1009 S   0  0  0  0  0  0  0  0  0  0  0  0
   -0.0005    0.2504   -2.1010 S   0  0  0  0  0  0  0  0  0  0  0  0
   -0.0011   -2.1010   -0.2504 S   0  0  0  0  0  0  0  0  0  0  0  0
   -1.0365    0.8196    1.0410 C   0  0  0  0  0  0  0  0  0  0  0  0
    1.0375    1.0402   -0.8194 C   0  0  0  0  0  0  0  0  0  0  0  0
    1.0369   -1.0413    0.8187 C   0  0  0  0  0  0  0  0  0  0  0  0
   -1.0380   -0.8186   -1.0404 C   0  0  0  0  0  0  0  0  0  0  0  0
   -1.8294    0.0010    0.0005 C   0  0  0  0  0  0  0  0  0  0  0  0
    1.8293   -0.0009   -0.0005 C   0  0  0  0  0  0  0  0  0  0  0  0
   -2.0198    1.5502    1.9686 C   0  0  0  0  0  0  0  0  0  0  0  0
    2.0220    1.9671   -1.5496 C   0  0  0  0  0  0  0  0  0  0  0  0
    2.0206   -1.9691    1.5487 C   0  0  0  0  0  0  0  0  0  0  0  0
   -2.0227   -1.5481   -1.9675 C   0  0  0  0  0  0  0  0  0  0  0  0
   -2.5065    0.6837   -0.5364 H   0  0  0  0  0  0  0  0  0  0  0  0
   -2.5071   -0.6809    0.5377 H   0  0  0  0  0  0  0  0  0  0  0  0
    2.5063   -0.5384   -0.6831 H   0  0  0  0  0  0  0  0  0  0  0  0
    2.5072    0.5357    0.6817 H   0  0  0  0  0  0  0  0  0  0  0  0
   -2.6761    0.8429    2.4911 H   0  0  0  0  0  0  0  0  0  0  0  0
   -1.5106    2.1514    2.7326 H   0  0  0  0  0  0  0  0  0  0  0  0
   -2.6755    2.2247    1.4035 H   0  0  0  0  0  0  0  0  0  0  0  0
    1.5135    2.7316   -2.1509 H   0  0  0  0  0  0  0  0  0  0  0  0
    2.6785    2.4891   -0.8420 H   0  0  0  0  0  0  0  0  0  0  0  0
    2.6774    1.4015   -2.2239 H   0  0  0  0  0  0  0  0  0  0  0  0
    2.6762   -2.4918    0.8409 H   0  0  0  0  0  0  0  0  0  0  0  0
    2.6770   -1.4041    2.2226 H   0  0  0  0  0  0  0  0  0  0  0  0
    1.5116   -2.7330    2.1503 H   0  0  0  0  0  0  0  0  0  0  0  0
   -1.5145   -2.1498   -2.7318 H   0  0  0  0  0  0  0  0  0  0  0  0
   -2.6788   -2.2218   -1.4021 H   0  0  0  0  0  0  0  0  0  0  0  0
   -2.6784   -0.8400   -2.4897 H   0  0  0  0  0  0  0  0  0  0  0  0
  1  5  1  0  0  0  0
  1  6  1  0  0  0  0
  2  5  1  0  0  0  0
  2  7  1  0  0  0  0
  3  6  1  0  0  0  0
  3  8  1  0  0  0  0
  4  7  1  0  0  0  0
  4  8  1  0  0  0  0
  5  9  1  0  0  0  0
  5 11  1  0  0  0  0
  6 10  1  0  0  0  0
  6 12  1  0  0  0  0
  7 10  1  0  0  0  0
  7 13  1  0  0  0  0
  8  9  1  0  0  0  0
  8 14  1  0  0  0  0
  9 15  1  0  0  0  0
  9 16  1  0  0  0  0
 10 17  1  0  0  0  0
 10 18  1  0  0  0  0
 11 19  1  0  0  0  0
 11 20  1  0  0  0  0
 11 21  1  0  0  0  0
 12 22  1  0  0  0  0
 12 23  1  0  0  0  0
 12 24  1  0  0  0  0
 13 25  1  0  0  0  0
 13 26  1  0  0  0  0
 13 27  1  0  0  0  0
 14 28  1  0  0  0  0
 14 29  1  0  0  0  0
 14 30  1  0  0  0  0
M  END
> <PUBCHEM_COMPOUND_CID>
138898

> <PUBCHEM_CONFORMER_RMSD>
0.4

> <PUBCHEM_CONFORMER_DIVERSEORDER>
1

> <PUBCHEM_MMFF94_PARTIAL_CHARGES>
8
1 -0.46
2 -0.46
3 -0.46
4 -0.46
5 0.46
6 0.46
7 0.46
8 0.46

> <PUBCHEM_EFFECTIVE_ROTOR_COUNT>
1.2

> <PUBCHEM_PHARMACOPHORE_FEATURES>
4
6 1 2 5 6 7 10 rings
6 1 3 5 6 8 9 rings
6 2 4 5 7 8 9 rings
6 3 4 6 7 8 10 rings

> <PUBCHEM_HEAVY_ATOM_COUNT>
14

> <PUBCHEM_ATOM_DEF_STEREO_COUNT>
0

> <PUBCHEM_ATOM_UDEF_STEREO_COUNT>
0

> <PUBCHEM_BOND_DEF_STEREO_COUNT>
0

> <PUBCHEM_BOND_UDEF_STEREO_COUNT>
0

> <PUBCHEM_ISOTOPIC_ATOM_COUNT>
0

> <PUBCHEM_COMPONENT_COUNT>
1

> <PUBCHEM_CACTVS_TAUTO_COUNT>
1

> <PUBCHEM_CONFORMER_ID>
00021E9200000001

> <PUBCHEM_MMFF94_ENERGY>
43.3461

> <PUBCHEM_FEATURE_SELFOVERLAP>
28.645

> <PUBCHEM_SHAPE_FINGERPRINT>
10702982 57 12228330538203279377
11129358 1 12710825721084631821
12423570 1 12904384495415388875
12725867 57 14520408611051493922
13024252 1 15290709501030106722
13380536 261 12300798215639449473
13898156 1 9259681771984819694
141345 1 8309235788952340564
144361 1 12074691234315384123
14761567 1 12356063222016032773
14817 1 8445331976680930441
15881359 60 11479093344718024040
16945 1 10302441080611932055
18721546 61 17628669575656191463
22112679 90 10737289047410188039
2306618 200 16454899337806951748
23419403 2 14261364581995930990
2748010 2 9636391382396347933
430814 3 12163892023054138566
535629 181 11171637827360852082
68419 9 14433400446198609644
76951 1 16311410475910037505

> <PUBCHEM_SHAPE_MULTIPOLES>
303.51
2.49
2.45
2.45
0
0.01
0
0
-0.01
-1.05
0
1.05
-0.01
-1.67

> <PUBCHEM_SHAPE_SELFOVERLAP>
581.625

> <PUBCHEM_SHAPE_VOLUME>
183.5

> <PUBCHEM_COORDINATE_TYPE>
2
5
10

$$$$
