137765
  -OEChem-11012401263D

 32 33  0     0  0  0  0  0  0999 V2000
    1.3255    0.5442    0.0005 C   0  0  0  0  0  0  0  0  0  0  0  0
   -1.2927    0.5683    0.0003 C   0  0  0  0  0  0  0  0  0  0  0  0
   -0.0041    1.2429    0.0008 C   0  0  0  0  0  0  0  0  0  0  0  0
    1.9008    0.2428   -1.2076 C   0  0  0  0  0  0  0  0  0  0  0  0
   -1.9105    0.2442    1.2080 C   0  0  0  0  0  0  0  0  0  0  0  0
    1.9005    0.2403    1.2083 C   0  0  0  0  0  0  0  0  0  0  0  0
   -1.9103    0.2448   -1.2079 C   0  0  0  0  0  0  0  0  0  0  0  0
    3.7523   -0.7330   -0.0003 C   0  0  0  0  0  0  0  0  0  0  0  0
   -3.7635   -0.7270   -0.0005 C   0  0  0  0  0  0  0  0  0  0  0  0
    3.1351   -0.4070   -1.2081 C   0  0  0  0  0  0  0  0  0  0  0  0
   -3.1459   -0.4036    1.2077 C   0  0  0  0  0  0  0  0  0  0  0  0
    3.1349   -0.4093    1.2080 C   0  0  0  0  0  0  0  0  0  0  0  0
   -3.1457   -0.4029   -1.2084 C   0  0  0  0  0  0  0  0  0  0  0  0
    5.0717   -1.4282   -0.0012 C   0  0  0  0  0  0  0  0  0  0  0  0
   -5.0841   -1.4202   -0.0005 C   0  0  0  0  0  0  0  0  0  0  0  0
    0.0360    2.6036    0.0010 C   0  0  0  0  0  0  0  0  0  0  0  0
    1.4276    0.4933   -2.1523 H   0  0  0  0  0  0  0  0  0  0  0  0
   -1.4432    0.4896    2.1587 H   0  0  0  0  0  0  0  0  0  0  0  0
    1.4269    0.4889    2.1533 H   0  0  0  0  0  0  0  0  0  0  0  0
   -1.4427    0.4907   -2.1584 H   0  0  0  0  0  0  0  0  0  0  0  0
    3.6068   -0.6524   -2.1560 H   0  0  0  0  0  0  0  0  0  0  0  0
   -3.6180   -0.6494    2.1552 H   0  0  0  0  0  0  0  0  0  0  0  0
    3.6064   -0.6565    2.1555 H   0  0  0  0  0  0  0  0  0  0  0  0
   -3.6176   -0.6482   -2.1561 H   0  0  0  0  0  0  0  0  0  0  0  0
    5.1776   -2.0737   -0.8797 H   0  0  0  0  0  0  0  0  0  0  0  0
    5.8832   -0.6938   -0.0055 H   0  0  0  0  0  0  0  0  0  0  0  0
    5.1820   -2.0680    0.8810 H   0  0  0  0  0  0  0  0  0  0  0  0
   -5.1949   -2.0596   -0.8829 H   0  0  0  0  0  0  0  0  0  0  0  0
   -5.1914   -2.0656    0.8779 H   0  0  0  0  0  0  0  0  0  0  0  0
   -5.8944   -0.6845    0.0034 H   0  0  0  0  0  0  0  0  0  0  0  0
    0.9753    3.1487    0.0011 H   0  0  0  0  0  0  0  0  0  0  0  0
   -0.8747    3.1956    0.0010 H   0  0  0  0  0  0  0  0  0  0  0  0
  1  3  1  0  0  0  0
  1  4  2  0  0  0  0
  1  6  1  0  0  0  0
  2  3  1  0  0  0  0
  2  5  2  0  0  0  0
  2  7  1  0  0  0  0
  3 16  2  0  0  0  0
  4 10  1  0  0  0  0
  4 17  1  0  0  0  0
  5 11  1  0  0  0  0
  5 18  1  0  0  0  0
  6 12  2  0  0  0  0
  6 19  1  0  0  0  0
  7 13  2  0  0  0  0
  7 20  1  0  0  0  0
  8 10  2  0  0  0  0
  8 12  1  0  0  0  0
  8 14  1  0  0  0  0
  9 11  2  0  0  0  0
  9 13  1  0  0  0  0
  9 15  1  0  0  0  0
 10 21  1  0  0  0  0
 11 22  1  0  0  0  0
 12 23  1  0  0  0  0
 13 24  1  0  0  0  0
 14 25  1  0  0  0  0
 14 26  1  0  0  0  0
 14 27  1  0  0  0  0
 15 28  1  0  0  0  0
 15 29  1  0  0  0  0
 15 30  1  0  0  0  0
 16 31  1  0  0  0  0
 16 32  1  0  0  0  0
M  END
> <PUBCHEM_COMPOUND_CID>
137765

> <PUBCHEM_CONFORMER_RMSD>
0.6

> <PUBCHEM_CONFORMER_DIVERSEORDER>
1
2

> <PUBCHEM_MMFF94_PARTIAL_CHARGES>
26
1 0.03
10 -0.15
11 -0.15
12 -0.15
13 -0.15
14 0.14
15 0.14
16 -0.3
17 0.15
18 0.15
19 0.15
2 0.03
20 0.15
21 0.15
22 0.15
23 0.15
24 0.15
3 -0.06
31 0.15
32 0.15
4 -0.15
5 -0.15
6 -0.15
7 -0.15
8 -0.14
9 -0.14

> <PUBCHEM_EFFECTIVE_ROTOR_COUNT>
2

> <PUBCHEM_PHARMACOPHORE_FEATURES>
3
1 16 hydrophobe
6 1 4 6 8 10 12 rings
6 2 5 7 9 11 13 rings

> <PUBCHEM_HEAVY_ATOM_COUNT>
16

> <PUBCHEM_ATOM_DEF_STEREO_COUNT>
0

> <PUBCHEM_ATOM_UDEF_STEREO_COUNT>
0

> <PUBCHEM_BOND_DEF_STEREO_COUNT>
0

> <PUBCHEM_BOND_UDEF_STEREO_COUNT>
0

> <PUBCHEM_ISOTOPIC_ATOM_COUNT>
0

> <PUBCHEM_COMPONENT_COUNT>
1

> <PUBCHEM_CACTVS_TAUTO_COUNT>
1

> <PUBCHEM_CONFORMER_ID>
00021A2500000001

> <PUBCHEM_MMFF94_ENERGY>
55.1806

> <PUBCHEM_FEATURE_SELFOVERLAP>
15.223

> <PUBCHEM_SHAPE_FINGERPRINT>
10618630 7 18411702062807224956
11046707 91 18341895156196976066
11132069 177 12751241432528941097
11543360 7 15719397247606453910
12251169 10 15697998543706180305
12363563 72 18409450288562850853
12507560 40 14692301598940480584
12633257 1 15697994162813437475
12707595 3 18261390082936950313
12892183 10 15697729111817871570
13288520 33 18339925918240051910
13296908 3 18410566292870682037
13581323 91 16773804709693788425
13583140 156 15482384253411969529
13675066 3 17346322626585764263
13705890 14 17385446518592727212
1420 369 18340771451171954806
14250199 8 14418146126891545967
14252887 29 18343297106605484544
14341114 176 15554455093487915926
14341114 328 15123505955866160322
14576447 43 17313100839613195490
15188451 53 17346308358836835055
15209289 33 17775569719337869654
15375462 189 17561080263988379206
16752209 62 17895465947655891433
17804303 29 16414659088945954877
1798214 20 17676202468289493826
1813 80 18272944816442568532
18186145 218 16370731430431522936
19050596 39 15697993067591281367
19784866 240 18410015450952203703
19862831 5 16515406261351520712
200 152 17894633634454315234
20112054 13 10807932673863603474
20361792 2 18411417323576553493
204376 136 9871747992325022885
20645477 70 18261670501662806103
20671657 53 18335703862013761969
20871999 31 16009026177227208103
21065199 12 15697725830447078642
21119208 17 15719112465457549987
21499 59 8502658099403434681
21713013 43 17022904587983891211
21731228 192 13039182610931082436
22646028 28 18410856563945546727
22926399 37 11241964880786845783
231179 274 8286203842391951110
23402539 116 18334577889498215524
23402655 69 14418128496082450518
23403322 49 18259982639228607154
23559900 14 16660647413790539860
25 1 12179841676155327564
26918003 58 17346595279383313211
2838139 119 11099013006463797582
2916195 48 7853561397140170630
3082319 5 15719108050230981316
3286 77 18262797488391546989
3472631 163 10665232561764492923
4028521 119 12757145783931548487
42 15 17131838681094025043
465052 167 18265343966049145399
5374978 207 15913333519925097867
7097593 13 15410897331810484428
7970288 3 18410857659157763943
81228 2 18195245516315363985
83771 10 18343022185590683152
93112 12 15719114673075897963

> <PUBCHEM_SHAPE_MULTIPOLES>
329.27
9.19
1.55
1.35
0.13
0.82
0
-6.54
0
-0.02
0
0
-0.06
0

> <PUBCHEM_SHAPE_SELFOVERLAP>
707.148

> <PUBCHEM_SHAPE_VOLUME>
170.8

> <PUBCHEM_COORDINATE_TYPE>
2
5
10

$$$$
