11457658
  -OEChem-11012401093D

 17 18  0     0  0  0  0  0  0999 V2000
   -1.1093   -0.2302   -0.4984 C   0  0  0  0  0  0  0  0  0  0  0  0
   -2.1404   -0.6001    0.5389 C   0  0  0  0  0  0  0  0  0  0  0  0
   -2.1532    0.7713   -0.0700 C   0  0  0  0  0  0  0  0  0  0  0  0
    0.3657   -0.0827   -0.1943 C   0  0  0  0  0  0  0  0  0  0  0  0
    1.2736    1.0847    0.1180 C   0  0  0  0  0  0  0  0  0  0  0  0
    2.4083    0.0456    0.2159 C   0  0  0  0  0  0  0  0  0  0  0  0
    1.3553   -0.9886   -0.1101 C   0  0  0  0  0  0  0  0  0  0  0  0
   -1.2727   -0.6626   -1.4839 H   0  0  0  0  0  0  0  0  0  0  0  0
   -1.8258   -0.6877    1.5717 H   0  0  0  0  0  0  0  0  0  0  0  0
   -2.9231   -1.2899    0.2479 H   0  0  0  0  0  0  0  0  0  0  0  0
   -2.9449    1.0055   -0.7712 H   0  0  0  0  0  0  0  0  0  0  0  0
   -1.8497    1.6010    0.5568 H   0  0  0  0  0  0  0  0  0  0  0  0
    1.4026    1.8221   -0.6820 H   0  0  0  0  0  0  0  0  0  0  0  0
    1.0677    1.6190    1.0520 H   0  0  0  0  0  0  0  0  0  0  0  0
    2.8675   -0.0317    1.2075 H   0  0  0  0  0  0  0  0  0  0  0  0
    3.2039    0.1724   -0.5263 H   0  0  0  0  0  0  0  0  0  0  0  0
    1.3971   -2.0663   -0.2294 H   0  0  0  0  0  0  0  0  0  0  0  0
  1  2  1  0  0  0  0
  1  3  1  0  0  0  0
  1  4  1  0  0  0  0
  1  8  1  0  0  0  0
  2  3  1  0  0  0  0
  2  9  1  0  0  0  0
  2 10  1  0  0  0  0
  3 11  1  0  0  0  0
  3 12  1  0  0  0  0
  4  5  1  0  0  0  0
  4  7  2  0  0  0  0
  5  6  1  0  0  0  0
  5 13  1  0  0  0  0
  5 14  1  0  0  0  0
  6  7  1  0  0  0  0
  6 15  1  0  0  0  0
  6 16  1  0  0  0  0
  7 17  1  0  0  0  0
M  END
> <PUBCHEM_COMPOUND_CID>
11457658

> <PUBCHEM_CONFORMER_RMSD>
0.4

> <PUBCHEM_CONFORMER_DIVERSEORDER>
1
2

> <PUBCHEM_MMFF94_PARTIAL_CHARGES>
13
1 -0.03
10 0.1
11 0.1
12 0.1
17 0.15
2 -0.2
3 -0.2
4 -0.21
5 0.14
6 0.14
7 -0.29
8 0.1
9 0.1

> <PUBCHEM_EFFECTIVE_ROTOR_COUNT>
2

> <PUBCHEM_PHARMACOPHORE_FEATURES>
1
4 4 5 6 7 rings

> <PUBCHEM_HEAVY_ATOM_COUNT>
7

> <PUBCHEM_ATOM_DEF_STEREO_COUNT>
0

> <PUBCHEM_ATOM_UDEF_STEREO_COUNT>
0

> <PUBCHEM_BOND_DEF_STEREO_COUNT>
0

> <PUBCHEM_BOND_UDEF_STEREO_COUNT>
0

> <PUBCHEM_ISOTOPIC_ATOM_COUNT>
0

> <PUBCHEM_COMPONENT_COUNT>
1

> <PUBCHEM_CACTVS_TAUTO_COUNT>
1

> <PUBCHEM_CONFORMER_ID>
00AED47A00000001

> <PUBCHEM_MMFF94_ENERGY>
10.0378

> <PUBCHEM_FEATURE_SELFOVERLAP>
5.074

> <PUBCHEM_SHAPE_FINGERPRINT>
10857977 72 18115024237656279713
14390081 3 18059850679549763833
20096714 4 18201154450795131324
21040471 1 18341891956551861622
24536 1 18261101998058227661
29004967 10 18409168792343425434
5084963 1 18060416962413442515
5460574 1 9223234048150777695

> <PUBCHEM_SHAPE_MULTIPOLES>
144.06
3.45
1.07
0.71
0.37
0.08
-0.01
0.11
-0.39
-0.1
-0.02
0.11
-0.03
0.15

> <PUBCHEM_SHAPE_SELFOVERLAP>
287.928

> <PUBCHEM_SHAPE_VOLUME>
88.2

> <PUBCHEM_COORDINATE_TYPE>
2
5
10

$$$$
