16048
  -OEChem-11012400583D

 14 13  0     1  0  0  0  0  0999 V2000
   -1.2989   -1.4508    0.7291 Cl  0  0  0  0  0  0  0  0  0  0  0  0
    2.2176    0.5795    0.7502 O   0  0  0  0  0  0  0  0  0  0  0  0
    1.5266   -0.8385   -0.8895 O   0  0  0  0  0  0  0  0  0  0  0  0
   -1.2300   -0.0054   -0.3286 C   0  0  2  0  0  0  0  0  0  0  0  0
    0.0002    0.8414    0.0083 C   0  0  0  0  0  0  0  0  0  0  0  0
   -2.5144    0.7950   -0.1540 C   0  0  0  0  0  0  0  0  0  0  0  0
    1.2989    0.0789   -0.1155 C   0  0  0  0  0  0  0  0  0  0  0  0
   -1.1632   -0.3765   -1.3568 H   0  0  0  0  0  0  0  0  0  0  0  0
    0.0610    1.7079   -0.6599 H   0  0  0  0  0  0  0  0  0  0  0  0
   -0.0881    1.2166    1.0359 H   0  0  0  0  0  0  0  0  0  0  0  0
   -3.3916    0.1908   -0.4101 H   0  0  0  0  0  0  0  0  0  0  0  0
   -2.5132    1.6717   -0.8104 H   0  0  0  0  0  0  0  0  0  0  0  0
   -2.6339    1.1472    0.8765 H   0  0  0  0  0  0  0  0  0  0  0  0
    3.0770    0.1111    0.6826 H   0  0  0  0  0  0  0  0  0  0  0  0
  1  4  1  0  0  0  0
  2  7  1  0  0  0  0
  2 14  1  0  0  0  0
  3  7  2  0  0  0  0
  4  5  1  0  0  0  0
  4  6  1  0  0  0  0
  4  8  1  0  0  0  0
  5  7  1  0  0  0  0
  5  9  1  0  0  0  0
  5 10  1  0  0  0  0
  6 11  1  0  0  0  0
  6 12  1  0  0  0  0
  6 13  1  0  0  0  0
M  END
> <PUBCHEM_COMPOUND_CID>
16048

> <PUBCHEM_CONFORMER_RMSD>
0.4

> <PUBCHEM_CONFORMER_DIVERSEORDER>
1
6
9
2
8
3
7
11
12
5
4
10

> <PUBCHEM_MMFF94_PARTIAL_CHARGES>
7
1 -0.29
14 0.5
2 -0.65
3 -0.57
4 0.29
5 0.06
7 0.66

> <PUBCHEM_EFFECTIVE_ROTOR_COUNT>
2

> <PUBCHEM_PHARMACOPHORE_FEATURES>
3
1 2 acceptor
1 3 acceptor
3 2 3 7 anion

> <PUBCHEM_HEAVY_ATOM_COUNT>
7

> <PUBCHEM_ATOM_DEF_STEREO_COUNT>
0

> <PUBCHEM_ATOM_UDEF_STEREO_COUNT>
1

> <PUBCHEM_BOND_DEF_STEREO_COUNT>
0

> <PUBCHEM_BOND_UDEF_STEREO_COUNT>
0

> <PUBCHEM_ISOTOPIC_ATOM_COUNT>
0

> <PUBCHEM_COMPONENT_COUNT>
1

> <PUBCHEM_CACTVS_TAUTO_COUNT>
1

> <PUBCHEM_CONFORMER_ID>
00003EB000000001

> <PUBCHEM_MMFF94_ENERGY>
5.251

> <PUBCHEM_FEATURE_SELFOVERLAP>
15.28

> <PUBCHEM_SHAPE_FINGERPRINT>
12932741 1 18272380779687932180
14390081 3 17632286891433722041
16714656 1 17894920594204554773
21040471 1 18187085001374758151
24536 1 18410015471957392437
29004967 10 18130511910994776744
5460574 1 11025798673988378197

> <PUBCHEM_SHAPE_MULTIPOLES>
134.19
3.1
1.28
0.84
0.03
0.44
0.02
-0.46
-0.17
-0.6
-0.16
0.25
0.1
0.39

> <PUBCHEM_SHAPE_SELFOVERLAP>
236.218

> <PUBCHEM_SHAPE_VOLUME>
88.9

> <PUBCHEM_COORDINATE_TYPE>
2
5
10

$$$$
