141578
  -OEChem-11012401283D

 35 39  0     0  0  0  0  0  0999 V2000
    3.4897    0.0005   -0.0082 O   0  0  0  0  0  0  0  0  0  0  0  0
    0.0192    0.1090   -1.4520 C   0  0  0  0  0  0  0  0  0  0  0  0
    0.0154   -1.3137    0.6326 C   0  0  0  0  0  0  0  0  0  0  0  0
    0.0154    1.2041    0.8219 C   0  0  0  0  0  0  0  0  0  0  0  0
   -0.5132   -1.2034   -0.8207 C   0  0  0  0  0  0  0  0  0  0  0  0
   -0.5127    1.3126   -0.6317 C   0  0  0  0  0  0  0  0  0  0  0  0
   -0.5161   -0.1094    1.4523 C   0  0  0  0  0  0  0  0  0  0  0  0
    2.0695   -0.0004    0.0052 C   0  0  0  0  0  0  0  0  0  0  0  0
   -2.5707    0.0005   -0.0030 C   0  0  0  0  0  0  0  0  0  0  0  0
    1.5546    0.1082   -1.4366 C   0  0  0  0  0  0  0  0  0  0  0  0
    1.5508   -1.3041    0.6296 C   0  0  0  0  0  0  0  0  0  0  0  0
    1.5508    1.1952    0.8175 C   0  0  0  0  0  0  0  0  0  0  0  0
   -2.0501   -1.1932   -0.8162 C   0  0  0  0  0  0  0  0  0  0  0  0
   -2.0495    1.3021   -0.6290 C   0  0  0  0  0  0  0  0  0  0  0  0
   -2.0530   -0.1081    1.4384 C   0  0  0  0  0  0  0  0  0  0  0  0
   -0.3282    0.1869   -2.4898 H   0  0  0  0  0  0  0  0  0  0  0  0
   -0.3355   -2.2506    1.0831 H   0  0  0  0  0  0  0  0  0  0  0  0
   -0.3356    2.0630    1.4076 H   0  0  0  0  0  0  0  0  0  0  0  0
   -0.1634   -2.0627   -1.4066 H   0  0  0  0  0  0  0  0  0  0  0  0
   -0.1625    2.2497   -1.0825 H   0  0  0  0  0  0  0  0  0  0  0  0
   -0.1682   -0.1874    2.4899 H   0  0  0  0  0  0  0  0  0  0  0  0
   -3.6663    0.0008   -0.0046 H   0  0  0  0  0  0  0  0  0  0  0  0
    1.9420   -0.7233   -2.0397 H   0  0  0  0  0  0  0  0  0  0  0  0
    1.9393    1.0207   -1.9103 H   0  0  0  0  0  0  0  0  0  0  0  0
    1.9362   -1.4114    1.6517 H   0  0  0  0  0  0  0  0  0  0  0  0
    1.9380   -2.1686    0.0750 H   0  0  0  0  0  0  0  0  0  0  0  0
    1.9357    2.1345    0.3996 H   0  0  0  0  0  0  0  0  0  0  0  0
    1.9363    1.1484    1.8442 H   0  0  0  0  0  0  0  0  0  0  0  0
   -2.4282   -2.1304   -0.3898 H   0  0  0  0  0  0  0  0  0  0  0  0
   -2.4258   -1.1376   -1.8453 H   0  0  0  0  0  0  0  0  0  0  0  0
   -2.4251    1.4009   -1.6549 H   0  0  0  0  0  0  0  0  0  0  0  0
   -2.4275    2.1652   -0.0675 H   0  0  0  0  0  0  0  0  0  0  0  0
   -2.4308    0.7304    2.0362 H   0  0  0  0  0  0  0  0  0  0  0  0
   -2.4311   -1.0265    1.9041 H   0  0  0  0  0  0  0  0  0  0  0  0
    3.7864    0.8396   -0.4001 H   0  0  0  0  0  0  0  0  0  0  0  0
  1  8  1  0  0  0  0
  1 35  1  0  0  0  0
  2  5  1  0  0  0  0
  2  6  1  0  0  0  0
  2 10  1  0  0  0  0
  2 16  1  0  0  0  0
  3  5  1  0  0  0  0
  3  7  1  0  0  0  0
  3 11  1  0  0  0  0
  3 17  1  0  0  0  0
  4  6  1  0  0  0  0
  4  7  1  0  0  0  0
  4 12  1  0  0  0  0
  4 18  1  0  0  0  0
  5 13  1  0  0  0  0
  5 19  1  0  0  0  0
  6 14  1  0  0  0  0
  6 20  1  0  0  0  0
  7 15  1  0  0  0  0
  7 21  1  0  0  0  0
  8 10  1  0  0  0  0
  8 11  1  0  0  0  0
  8 12  1  0  0  0  0
  9 13  1  0  0  0  0
  9 14  1  0  0  0  0
  9 15  1  0  0  0  0
  9 22  1  0  0  0  0
 10 23  1  0  0  0  0
 10 24  1  0  0  0  0
 11 25  1  0  0  0  0
 11 26  1  0  0  0  0
 12 27  1  0  0  0  0
 12 28  1  0  0  0  0
 13 29  1  0  0  0  0
 13 30  1  0  0  0  0
 14 31  1  0  0  0  0
 14 32  1  0  0  0  0
 15 33  1  0  0  0  0
 15 34  1  0  0  0  0
M  END
> <PUBCHEM_COMPOUND_CID>
141578

> <PUBCHEM_CONFORMER_RMSD>
0.6

> <PUBCHEM_CONFORMER_DIVERSEORDER>
1

> <PUBCHEM_MMFF94_PARTIAL_CHARGES>
3
1 -0.68
35 0.4
8 0.28

> <PUBCHEM_EFFECTIVE_ROTOR_COUNT>
1.2

> <PUBCHEM_PHARMACOPHORE_FEATURES>
9
1 1 acceptor
1 1 donor
6 2 3 4 5 6 7 rings
6 2 3 5 8 10 11 rings
6 2 4 6 8 10 12 rings
6 2 5 6 9 13 14 rings
6 3 4 7 8 11 12 rings
6 3 5 7 9 13 15 rings
6 4 6 7 9 14 15 rings

> <PUBCHEM_HEAVY_ATOM_COUNT>
15

> <PUBCHEM_ATOM_DEF_STEREO_COUNT>
0

> <PUBCHEM_ATOM_UDEF_STEREO_COUNT>
0

> <PUBCHEM_BOND_DEF_STEREO_COUNT>
0

> <PUBCHEM_BOND_UDEF_STEREO_COUNT>
0

> <PUBCHEM_ISOTOPIC_ATOM_COUNT>
0

> <PUBCHEM_COMPONENT_COUNT>
1

> <PUBCHEM_CACTVS_TAUTO_COUNT>
1

> <PUBCHEM_CONFORMER_ID>
0002290A00000001

> <PUBCHEM_MMFF94_ENERGY>
45.1167

> <PUBCHEM_FEATURE_SELFOVERLAP>
71.131

> <PUBCHEM_SHAPE_FINGERPRINT>
10863032 1 18189327970624925997
10948715 1 18042680598654357653
12423570 1 13470135162772094417
12491281 212 18264202517885658205
13024252 1 17749389269332429062
144361 1 17970053457603427313
15557651 10 18196117545110303953
15775835 57 18411982442387875017
16945 1 18186521020455144963
22344851 262 17822856376973745484
23419403 2 16245965207373196235
23559900 14 14996272631781314104
2748010 2 18128240375843373969
369184 2 18342454841906648130
5084963 1 18201151169387382665
528886 8 17385440994726772709
54276843 12 17836134131030563645

> <PUBCHEM_SHAPE_MULTIPOLES>
302.82
3.34
1.47
1.47
0.98
0
0
0
0.01
-0.18
0
-0.18
0
0

> <PUBCHEM_SHAPE_SELFOVERLAP>
695.469

> <PUBCHEM_SHAPE_VOLUME>
149.7

> <PUBCHEM_COORDINATE_TYPE>
2
5
10

$$$$
