138215
  -OEChem-11012400423D

 56 58  0     0  0  0  0  0  0999 V2000
   -2.4090   -1.5769    1.1465 C   0  0  0  0  0  0  0  0  0  0  0  0
   -3.5541   -1.6801    0.1357 C   0  0  0  0  0  0  0  0  0  0  0  0
    3.5921    1.0116    1.0091 C   0  0  0  0  0  0  0  0  0  0  0  0
    2.7431    2.0123    0.2250 C   0  0  0  0  0  0  0  0  0  0  0  0
   -1.7578   -2.9340    1.4522 C   0  0  0  0  0  0  0  0  0  0  0  0
   -4.4015   -0.4054    0.0289 C   0  0  0  0  0  0  0  0  0  0  0  0
    4.4968    0.1325    0.1355 C   0  0  0  0  0  0  0  0  0  0  0  0
    1.9302    2.9102    1.1647 C   0  0  0  0  0  0  0  0  0  0  0  0
   -1.0102   -3.5794    0.2792 C   0  0  0  0  0  0  0  0  0  0  0  0
   -3.8778    0.6387   -0.9668 C   0  0  0  0  0  0  0  0  0  0  0  0
    3.8204   -0.5830   -1.0441 C   0  0  0  0  0  0  0  0  0  0  0  0
    0.8754    3.7408    0.4246 C   0  0  0  0  0  0  0  0  0  0  0  0
    0.2521   -2.8443   -0.0921 C   0  0  0  0  0  0  0  0  0  0  0  0
   -2.6404    1.4068   -0.5766 C   0  0  0  0  0  0  0  0  0  0  0  0
    2.5909   -1.3910   -0.7089 C   0  0  0  0  0  0  0  0  0  0  0  0
   -0.3541    2.9419    0.0644 C   0  0  0  0  0  0  0  0  0  0  0  0
    1.4251   -3.0303    0.6506 C   0  0  0  0  0  0  0  0  0  0  0  0
   -2.5179    2.0167    0.6777 C   0  0  0  0  0  0  0  0  0  0  0  0
    2.5860   -2.3186    0.3389 C   0  0  0  0  0  0  0  0  0  0  0  0
   -1.3811    2.7640    0.9994 C   0  0  0  0  0  0  0  0  0  0  0  0
    0.2658   -1.9462   -1.1636 C   0  0  0  0  0  0  0  0  0  0  0  0
   -1.6138    1.5922   -1.5129 C   0  0  0  0  0  0  0  0  0  0  0  0
    1.4243   -1.2305   -1.4702 C   0  0  0  0  0  0  0  0  0  0  0  0
   -0.4846    2.3522   -1.1973 C   0  0  0  0  0  0  0  0  0  0  0  0
   -2.8022   -1.1771    2.0896 H   0  0  0  0  0  0  0  0  0  0  0  0
   -1.6510   -0.8692    0.8002 H   0  0  0  0  0  0  0  0  0  0  0  0
   -4.2194   -2.4920    0.4569 H   0  0  0  0  0  0  0  0  0  0  0  0
   -3.1752   -1.9602   -0.8530 H   0  0  0  0  0  0  0  0  0  0  0  0
    2.9336    0.3725    1.6096 H   0  0  0  0  0  0  0  0  0  0  0  0
    4.2261    1.5524    1.7229 H   0  0  0  0  0  0  0  0  0  0  0  0
    2.0672    1.4695   -0.4383 H   0  0  0  0  0  0  0  0  0  0  0  0
    3.3865    2.6341   -0.4087 H   0  0  0  0  0  0  0  0  0  0  0  0
   -2.5368   -3.6284    1.7913 H   0  0  0  0  0  0  0  0  0  0  0  0
   -1.0720   -2.8054    2.2992 H   0  0  0  0  0  0  0  0  0  0  0  0
   -4.5701    0.0300    1.0199 H   0  0  0  0  0  0  0  0  0  0  0  0
   -5.3918   -0.7113   -0.3351 H   0  0  0  0  0  0  0  0  0  0  0  0
    4.9825   -0.6075    0.7838 H   0  0  0  0  0  0  0  0  0  0  0  0
    5.3066    0.7545   -0.2673 H   0  0  0  0  0  0  0  0  0  0  0  0
    2.6239    3.5938    1.6701 H   0  0  0  0  0  0  0  0  0  0  0  0
    1.4538    2.3070    1.9474 H   0  0  0  0  0  0  0  0  0  0  0  0
   -1.6631   -3.6794   -0.5953 H   0  0  0  0  0  0  0  0  0  0  0  0
   -0.7395   -4.6069    0.5558 H   0  0  0  0  0  0  0  0  0  0  0  0
   -4.6704    1.3795   -1.1372 H   0  0  0  0  0  0  0  0  0  0  0  0
   -3.7192    0.1440   -1.9337 H   0  0  0  0  0  0  0  0  0  0  0  0
    4.5487   -1.2565   -1.5139 H   0  0  0  0  0  0  0  0  0  0  0  0
    3.5747    0.1660   -1.8078 H   0  0  0  0  0  0  0  0  0  0  0  0
    1.3065    4.1993   -0.4740 H   0  0  0  0  0  0  0  0  0  0  0  0
    0.5663    4.5770    1.0653 H   0  0  0  0  0  0  0  0  0  0  0  0
    1.4405   -3.7278    1.4846 H   0  0  0  0  0  0  0  0  0  0  0  0
   -3.3060    1.9217    1.4196 H   0  0  0  0  0  0  0  0  0  0  0  0
    3.4797   -2.4859    0.9339 H   0  0  0  0  0  0  0  0  0  0  0  0
   -1.3074    3.2146    1.9863 H   0  0  0  0  0  0  0  0  0  0  0  0
   -0.6292   -1.7849   -1.7590 H   0  0  0  0  0  0  0  0  0  0  0  0
   -1.6865    1.1499   -2.5037 H   0  0  0  0  0  0  0  0  0  0  0  0
    1.4021   -0.5297   -2.3015 H   0  0  0  0  0  0  0  0  0  0  0  0
    0.2942    2.4761   -1.9456 H   0  0  0  0  0  0  0  0  0  0  0  0
  1  2  1  0  0  0  0
  1  5  1  0  0  0  0
  1 25  1  0  0  0  0
  1 26  1  0  0  0  0
  2  6  1  0  0  0  0
  2 27  1  0  0  0  0
  2 28  1  0  0  0  0
  3  4  1  0  0  0  0
  3  7  1  0  0  0  0
  3 29  1  0  0  0  0
  3 30  1  0  0  0  0
  4  8  1  0  0  0  0
  4 31  1  0  0  0  0
  4 32  1  0  0  0  0
  5  9  1  0  0  0  0
  5 33  1  0  0  0  0
  5 34  1  0  0  0  0
  6 10  1  0  0  0  0
  6 35  1  0  0  0  0
  6 36  1  0  0  0  0
  7 11  1  0  0  0  0
  7 37  1  0  0  0  0
  7 38  1  0  0  0  0
  8 12  1  0  0  0  0
  8 39  1  0  0  0  0
  8 40  1  0  0  0  0
  9 13  1  0  0  0  0
  9 41  1  0  0  0  0
  9 42  1  0  0  0  0
 10 14  1  0  0  0  0
 10 43  1  0  0  0  0
 10 44  1  0  0  0  0
 11 15  1  0  0  0  0
 11 45  1  0  0  0  0
 11 46  1  0  0  0  0
 12 16  1  0  0  0  0
 12 47  1  0  0  0  0
 12 48  1  0  0  0  0
 13 17  2  0  0  0  0
 13 21  1  0  0  0  0
 14 18  2  0  0  0  0
 14 22  1  0  0  0  0
 15 19  2  0  0  0  0
 15 23  1  0  0  0  0
 16 20  2  0  0  0  0
 16 24  1  0  0  0  0
 17 19  1  0  0  0  0
 17 49  1  0  0  0  0
 18 20  1  0  0  0  0
 18 50  1  0  0  0  0
 19 51  1  0  0  0  0
 20 52  1  0  0  0  0
 21 23  2  0  0  0  0
 21 53  1  0  0  0  0
 22 24  2  0  0  0  0
 22 54  1  0  0  0  0
 23 55  1  0  0  0  0
 24 56  1  0  0  0  0
M  END
> <PUBCHEM_COMPOUND_CID>
138215

> <PUBCHEM_CONFORMER_RMSD>
0.6

> <PUBCHEM_CONFORMER_DIVERSEORDER>
1
7
10
18
12
17
8
9
6
19
15
16
2
11
14
3
4
13
5

> <PUBCHEM_MMFF94_PARTIAL_CHARGES>
24
10 0.14
11 0.14
12 0.14
13 -0.14
14 -0.14
15 -0.14
16 -0.14
17 -0.15
18 -0.15
19 -0.15
20 -0.15
21 -0.15
22 -0.15
23 -0.15
24 -0.15
49 0.15
50 0.15
51 0.15
52 0.15
53 0.15
54 0.15
55 0.15
56 0.15
9 0.14

> <PUBCHEM_EFFECTIVE_ROTOR_COUNT>
2.4

> <PUBCHEM_PHARMACOPHORE_FEATURES>
2
6 13 15 17 19 21 23 rings
6 14 16 18 20 22 24 rings

> <PUBCHEM_HEAVY_ATOM_COUNT>
24

> <PUBCHEM_ATOM_DEF_STEREO_COUNT>
0

> <PUBCHEM_ATOM_UDEF_STEREO_COUNT>
0

> <PUBCHEM_BOND_DEF_STEREO_COUNT>
0

> <PUBCHEM_BOND_UDEF_STEREO_COUNT>
0

> <PUBCHEM_ISOTOPIC_ATOM_COUNT>
0

> <PUBCHEM_COMPONENT_COUNT>
1

> <PUBCHEM_CACTVS_TAUTO_COUNT>
1

> <PUBCHEM_CONFORMER_ID>
00021BE700000001

> <PUBCHEM_MMFF94_ENERGY>
47.0361

> <PUBCHEM_FEATURE_SELFOVERLAP>
10.149

> <PUBCHEM_SHAPE_FINGERPRINT>
10119406 146 17909282291525161182
10675989 125 17543332870300123740
108634 29 18341339903363338094
11112241 14 17559091380539872289
11513181 2 17697890507188752214
12038231 1 18122907521041730992
12100795 323 17834387204570035552
12156800 1 12334404801627823840
12422481 6 17903374928611806427
12539773 59 16910293457423190361
12553582 1 17909830929338750445
12596599 1 17487063249560537988
12633257 1 17978229357253206106
12645989 146 18272091608558160902
12838863 1 18195499641029822546
13122387 1 17978509737087031152
13140716 1 18050566553688516042
13402501 40 18410572920004849480
14081887 123 18408603651735416391
14251757 5 16895133893711224860
14725015 67 18337939143440944257
17093844 170 18339637944767034056
17859628 37 17907304599869038438
19026451 147 17693339310649086333
19930381 70 18266458698681763953
20764821 26 18337957774903442802
238918 7 17983569990747083064
3052486 1 18262243321910081140
35225 105 17968915557705808882
3524813 1 18341334486881946546
392239 28 18412263925970442066
7097593 13 16824746955798029542

> <PUBCHEM_SHAPE_MULTIPOLES>
493.91
6.97
5.43
1.38
0.49
0.24
-0.15
-0.26
-0.01
-0.01
1.45
-0.08
0.03
1.35

> <PUBCHEM_SHAPE_SELFOVERLAP>
1018.945

> <PUBCHEM_SHAPE_VOLUME>
270.6

> <PUBCHEM_COORDINATE_TYPE>
2
5
10

$$$$
