147178
  -OEChem-11012401233D

 33 35  0     1  0  0  0  0  0999 V2000
    0.2015    2.4593    0.0146 O   0  0  0  0  0  0  0  0  0  0  0  0
    2.8745    2.3421   -0.8361 O   0  0  0  0  0  0  0  0  0  0  0  0
   -5.3401   -0.7811   -0.0234 O   0  0  0  0  0  0  0  0  0  0  0  0
   -0.0693    1.1501    0.5319 C   0  0  2  0  0  0  0  0  0  0  0  0
    0.7474    1.3544   -0.6872 C   0  0  2  0  0  0  0  0  0  0  0  0
   -1.4516    0.6439    0.3858 C   0  0  0  0  0  0  0  0  0  0  0  0
    2.2510    1.2961   -0.5999 C   0  0  0  0  0  0  0  0  0  0  0  0
   -2.5364    1.4060    0.8366 C   0  0  0  0  0  0  0  0  0  0  0  0
   -1.6905   -0.6035   -0.2043 C   0  0  0  0  0  0  0  0  0  0  0  0
    2.9240    0.0614   -0.2299 C   0  0  0  0  0  0  0  0  0  0  0  0
   -3.8398    0.9284    0.6996 C   0  0  0  0  0  0  0  0  0  0  0  0
   -2.9939   -1.0812   -0.3413 C   0  0  0  0  0  0  0  0  0  0  0  0
   -4.0686   -0.3152    0.1105 C   0  0  0  0  0  0  0  0  0  0  0  0
    2.3482   -1.1690   -0.5472 C   0  0  0  0  0  0  0  0  0  0  0  0
    4.1457    0.1071    0.4419 C   0  0  0  0  0  0  0  0  0  0  0  0
    2.9938   -2.3535   -0.1925 C   0  0  0  0  0  0  0  0  0  0  0  0
    4.7913   -1.0775    0.7964 C   0  0  0  0  0  0  0  0  0  0  0  0
    4.2153   -2.3077    0.4793 C   0  0  0  0  0  0  0  0  0  0  0  0
   -5.5023   -2.0601   -0.6347 C   0  0  0  0  0  0  0  0  0  0  0  0
    0.4485    0.8849    1.4486 H   0  0  0  0  0  0  0  0  0  0  0  0
    0.3331    1.1476   -1.6667 H   0  0  0  0  0  0  0  0  0  0  0  0
   -2.3730    2.3759    1.2999 H   0  0  0  0  0  0  0  0  0  0  0  0
   -0.8665   -1.2163   -0.5569 H   0  0  0  0  0  0  0  0  0  0  0  0
   -4.6729    1.5292    1.0540 H   0  0  0  0  0  0  0  0  0  0  0  0
   -3.0998   -2.0552   -0.8065 H   0  0  0  0  0  0  0  0  0  0  0  0
    1.4111   -1.2331   -1.0909 H   0  0  0  0  0  0  0  0  0  0  0  0
    4.6078    1.0562    0.7008 H   0  0  0  0  0  0  0  0  0  0  0  0
    2.5483   -3.3115   -0.4442 H   0  0  0  0  0  0  0  0  0  0  0  0
    5.7421   -1.0422    1.3201 H   0  0  0  0  0  0  0  0  0  0  0  0
    4.7187   -3.2299    0.7543 H   0  0  0  0  0  0  0  0  0  0  0  0
   -6.5762   -2.2723   -0.6600 H   0  0  0  0  0  0  0  0  0  0  0  0
   -5.0338   -2.8523   -0.0407 H   0  0  0  0  0  0  0  0  0  0  0  0
   -5.1524   -2.0574   -1.6725 H   0  0  0  0  0  0  0  0  0  0  0  0
  1  4  1  0  0  0  0
  1  5  1  0  0  0  0
  2  7  2  0  0  0  0
  3 13  1  0  0  0  0
  3 19  1  0  0  0  0
  4  5  1  0  0  0  0
  4  6  1  0  0  0  0
  4 20  1  0  0  0  0
  5  7  1  0  0  0  0
  5 21  1  0  0  0  0
  6  8  2  0  0  0  0
  6  9  1  0  0  0  0
  7 10  1  0  0  0  0
  8 11  1  0  0  0  0
  8 22  1  0  0  0  0
  9 12  2  0  0  0  0
  9 23  1  0  0  0  0
 10 14  2  0  0  0  0
 10 15  1  0  0  0  0
 11 13  2  0  0  0  0
 11 24  1  0  0  0  0
 12 13  1  0  0  0  0
 12 25  1  0  0  0  0
 14 16  1  0  0  0  0
 14 26  1  0  0  0  0
 15 17  2  0  0  0  0
 15 27  1  0  0  0  0
 16 18  2  0  0  0  0
 16 28  1  0  0  0  0
 17 18  1  0  0  0  0
 17 29  1  0  0  0  0
 18 30  1  0  0  0  0
 19 31  1  0  0  0  0
 19 32  1  0  0  0  0
 19 33  1  0  0  0  0
M  END
> <PUBCHEM_COMPOUND_CID>
147178

> <PUBCHEM_CONFORMER_RMSD>
0.6

> <PUBCHEM_CONFORMER_DIVERSEORDER>
1
35
31
25
4
41
28
27
3
2
40
32
33
21
11
26
10
22
14
30
13
37
24
12
29
5
39
18
15
8
34
23
36
9
38
19
20
16
17
6
7

> <PUBCHEM_MMFF94_PARTIAL_CHARGES>
30
1 -0.3
10 0.09
11 -0.15
12 -0.15
13 0.08
14 -0.15
15 -0.15
16 -0.15
17 -0.15
18 -0.15
19 0.28
2 -0.57
20 0.1
21 0.1
22 0.15
23 0.15
24 0.15
25 0.15
26 0.15
27 0.15
28 0.15
29 0.15
3 -0.36
30 0.15
4 0.08
5 0.05
6 -0.03
7 0.48
8 -0.15
9 -0.15

> <PUBCHEM_EFFECTIVE_ROTOR_COUNT>
4.6

> <PUBCHEM_PHARMACOPHORE_FEATURES>
5
1 1 acceptor
1 2 acceptor
1 3 acceptor
6 10 14 15 16 17 18 rings
6 6 8 9 11 12 13 rings

> <PUBCHEM_HEAVY_ATOM_COUNT>
19

> <PUBCHEM_ATOM_DEF_STEREO_COUNT>
2

> <PUBCHEM_ATOM_UDEF_STEREO_COUNT>
0

> <PUBCHEM_BOND_DEF_STEREO_COUNT>
0

> <PUBCHEM_BOND_UDEF_STEREO_COUNT>
0

> <PUBCHEM_ISOTOPIC_ATOM_COUNT>
0

> <PUBCHEM_COMPONENT_COUNT>
1

> <PUBCHEM_CACTVS_TAUTO_COUNT>
2

> <PUBCHEM_CONFORMER_ID>
00023EEA00000001

> <PUBCHEM_MMFF94_ENERGY>
58.2255

> <PUBCHEM_FEATURE_SELFOVERLAP>
25.376

> <PUBCHEM_SHAPE_FINGERPRINT>
10062212 137 18272652333875796823
10447042 23 18341040899912617678
11159736 12 18413106165120870919
12107183 9 17979925912517193753
12410352 35 18343299284222722215
12553582 1 18264223434560668404
12596602 18 17346600789488868026
12839892 36 17632578262537426607
12892183 10 17632009746063237424
13083527 12 18335696144495581908
13167823 11 18413673517363016687
13533116 47 18339923822290587387
13583140 156 17417233356333066889
1420 369 18412827962545522306
14251740 57 17989496203401553494
14576447 43 18411422855488902676
15196674 1 18412263895884643386
15210252 30 10375577223128723058
15342816 4 18341906211263779740
15352361 1 18410292493016327667
17492 89 18342461387337392711
17818456 19 18127140666811354225
17857418 61 18343298197912442247
1813 80 17749677298614077604
18186145 218 16660370280957394913
19141452 34 18267026046629377313
200 152 18412542124293248733
20028762 73 18341608192606573966
20281475 54 18411141324677915773
20369508 70 18130787922979217945
20626108 58 18410287004142887312
20645477 70 18186518842991193372
21033648 29 14333135130785161817
21065198 48 18343025479809617272
21250096 35 18413387626843395217
21267235 1 18412554205604015054
21501925 9 18411982451268096356
21673915 165 18341610382880918322
22079108 93 12247674994106748733
22224240 67 18340477981052868936
2255824 54 18263093261336050404
22646028 28 18410294700618689003
23559900 14 18271240517722006400
3004659 81 18334295374574994862
339767 52 18341037550023119443
439807 62 18194677297613619991
46194498 28 17386002931205037141
5104073 3 18343590663668149257
559249 180 18337387141802206779
56633871 153 17980770328936791443
573450 72 18202005404524082833
6025842 7 18188775088317842852
633830 44 17167870755300052241
67856867 119 18340485672432239728
7064713 232 17845653638263664234
7164475 11 18334861584509645868
76465 3 18408601439874523744
7970288 3 18263077721865324810
960060 61 17676214571512414118
9709674 26 18335148595619436539
9981440 41 17472135553948071289

> <PUBCHEM_SHAPE_MULTIPOLES>
373.4
11.34
2.58
0.88
6.22
0.12
0.02
7.25
0.86
-1.01
-0.29
-0.15
-0.1
-1.43

> <PUBCHEM_SHAPE_SELFOVERLAP>
807.008

> <PUBCHEM_SHAPE_VOLUME>
205.5

> <PUBCHEM_COORDINATE_TYPE>
2
5
10

$$$$
