12011
  -OEChem-11012400313D

 12 12  0     0  0  0  0  0  0999 V2000
    2.9282    1.1557    0.0010 Cl  0  0  0  0  0  0  0  0  0  0  0  0
   -2.9281   -1.1557    0.0005 Cl  0  0  0  0  0  0  0  0  0  0  0  0
    2.0619   -1.6925   -0.0005 O   0  0  0  0  0  0  0  0  0  0  0  0
   -2.0619    1.6924   -0.0002 O   0  0  0  0  0  0  0  0  0  0  0  0
    1.3103    0.5644   -0.0002 C   0  0  0  0  0  0  0  0  0  0  0  0
   -1.3103   -0.5644    0.0003 C   0  0  0  0  0  0  0  0  0  0  0  0
    1.1216   -0.9051   -0.0004 C   0  0  0  0  0  0  0  0  0  0  0  0
   -1.1216    0.9051   -0.0004 C   0  0  0  0  0  0  0  0  0  0  0  0
    0.2717    1.4035   -0.0003 C   0  0  0  0  0  0  0  0  0  0  0  0
   -0.2717   -1.4034    0.0002 C   0  0  0  0  0  0  0  0  0  0  0  0
    0.4055    2.4805   -0.0001 H   0  0  0  0  0  0  0  0  0  0  0  0
   -0.4056   -2.4805    0.0004 H   0  0  0  0  0  0  0  0  0  0  0  0
  1  5  1  0  0  0  0
  2  6  1  0  0  0  0
  3  7  2  0  0  0  0
  4  8  2  0  0  0  0
  5  7  1  0  0  0  0
  5  9  2  0  0  0  0
  6  8  1  0  0  0  0
  6 10  2  0  0  0  0
  7 10  1  0  0  0  0
  8  9  1  0  0  0  0
  9 11  1  0  0  0  0
 10 12  1  0  0  0  0
M  END
> <PUBCHEM_COMPOUND_CID>
12011

> <PUBCHEM_CONFORMER_RMSD>
0.4

> <PUBCHEM_CONFORMER_DIVERSEORDER>
1

> <PUBCHEM_MMFF94_PARTIAL_CHARGES>
12
1 -0.14
10 -0.14
11 0.15
12 0.15
2 -0.14
3 -0.57
4 -0.57
5 0.15
6 0.15
7 0.54
8 0.54
9 -0.14

> <PUBCHEM_EFFECTIVE_ROTOR_COUNT>
0

> <PUBCHEM_PHARMACOPHORE_FEATURES>
3
1 3 acceptor
1 4 acceptor
6 5 6 7 8 9 10 rings

> <PUBCHEM_HEAVY_ATOM_COUNT>
10

> <PUBCHEM_ATOM_DEF_STEREO_COUNT>
0

> <PUBCHEM_ATOM_UDEF_STEREO_COUNT>
0

> <PUBCHEM_BOND_DEF_STEREO_COUNT>
0

> <PUBCHEM_BOND_UDEF_STEREO_COUNT>
0

> <PUBCHEM_ISOTOPIC_ATOM_COUNT>
0

> <PUBCHEM_COMPONENT_COUNT>
1

> <PUBCHEM_CACTVS_TAUTO_COUNT>
1

> <PUBCHEM_CONFORMER_ID>
00002EEB00000001

> <PUBCHEM_MMFF94_ENERGY>
17.6809

> <PUBCHEM_FEATURE_SELFOVERLAP>
15.223

> <PUBCHEM_SHAPE_FINGERPRINT>
12897270 3 18338797939136352517
13380535 21 18339656550327866168
16945 1 18338797951989579782
18185500 45 18125156297330483903
193761 8 18338797801665724423
19973954 147 18411136892165749002
20201158 50 18262514935119880915
21040471 1 18410855438832926724
21501502 16 18410855430068665529
23235685 24 18192142909259882260
23402655 69 18340470228641888821
23552423 10 18261675882935236918
241688 4 18263643978615496449
2748010 2 18410855421473456327
29004967 10 18262804106582845747
5084963 1 18201162134454713714
528886 8 18123747818513670098
68250623 7 18411141290238841747

> <PUBCHEM_SHAPE_MULTIPOLES>
197.8
3.86
1.94
0.61
0
0
0
0
0
0
0
0
0
0

> <PUBCHEM_SHAPE_SELFOVERLAP>
396.114

> <PUBCHEM_SHAPE_VOLUME>
117.3

> <PUBCHEM_COORDINATE_TYPE>
2
5
10

$$$$
