94834
  -OEChem-11012401223D

 27 28  0     1  0  0  0  0  0999 V2000
   -1.2252    1.2457   -0.2074 O   0  0  0  0  0  0  0  0  0  0  0  0
    0.5484    2.6283   -0.2047 O   0  0  0  0  0  0  0  0  0  0  0  0
   -2.9654   -0.1935   -0.2207 O   0  0  0  0  0  0  0  0  0  0  0  0
    0.5106   -0.9567   -0.5456 C   0  0  0  0  0  0  0  0  0  0  0  0
    1.0151    0.2866    0.2188 C   0  0  1  0  0  0  0  0  0  0  0  0
   -0.8054   -1.1264    0.2220 C   0  0  1  0  0  0  0  0  0  0  0  0
    0.7821   -0.0555    1.7092 C   0  0  0  0  0  0  0  0  0  0  0  0
   -0.4314   -0.9947    1.7050 C   0  0  0  0  0  0  0  0  0  0  0  0
    0.3311   -0.7592   -2.0628 C   0  0  0  0  0  0  0  0  0  0  0  0
    1.4079   -2.2047   -0.3694 C   0  0  0  0  0  0  0  0  0  0  0  0
    2.4774    0.6468   -0.0507 C   0  0  0  0  0  0  0  0  0  0  0  0
    0.1126    1.4843   -0.0929 C   0  0  0  0  0  0  0  0  0  0  0  0
   -1.7578   -0.0010   -0.1008 C   0  0  0  0  0  0  0  0  0  0  0  0
   -1.2985   -2.0797    0.0041 H   0  0  0  0  0  0  0  0  0  0  0  0
    0.5837    0.8346    2.3175 H   0  0  0  0  0  0  0  0  0  0  0  0
    1.6453   -0.5657    2.1522 H   0  0  0  0  0  0  0  0  0  0  0  0
   -0.1547   -1.9679    2.1258 H   0  0  0  0  0  0  0  0  0  0  0  0
   -1.2465   -0.5921    2.3164 H   0  0  0  0  0  0  0  0  0  0  0  0
    1.3005   -0.6286   -2.5568 H   0  0  0  0  0  0  0  0  0  0  0  0
   -0.1530   -1.6356   -2.5091 H   0  0  0  0  0  0  0  0  0  0  0  0
   -0.2779    0.1099   -2.3258 H   0  0  0  0  0  0  0  0  0  0  0  0
    1.6671   -2.4088    0.6732 H   0  0  0  0  0  0  0  0  0  0  0  0
    0.9042   -3.0976   -0.7579 H   0  0  0  0  0  0  0  0  0  0  0  0
    2.3489   -2.0960   -0.9204 H   0  0  0  0  0  0  0  0  0  0  0  0
    3.1560   -0.1707    0.2127 H   0  0  0  0  0  0  0  0  0  0  0  0
    2.6372    0.8946   -1.1056 H   0  0  0  0  0  0  0  0  0  0  0  0
    2.7844    1.5188    0.5385 H   0  0  0  0  0  0  0  0  0  0  0  0
  1 12  1  0  0  0  0
  1 13  1  0  0  0  0
  2 12  2  0  0  0  0
  3 13  2  0  0  0  0
  4  5  1  0  0  0  0
  4  6  1  0  0  0  0
  4  9  1  0  0  0  0
  4 10  1  0  0  0  0
  5  7  1  0  0  0  0
  5 11  1  0  0  0  0
  5 12  1  0  0  0  0
  6  8  1  0  0  0  0
  6 13  1  0  0  0  0
  6 14  1  0  0  0  0
  7  8  1  0  0  0  0
  7 15  1  0  0  0  0
  7 16  1  0  0  0  0
  8 17  1  0  0  0  0
  8 18  1  0  0  0  0
  9 19  1  0  0  0  0
  9 20  1  0  0  0  0
  9 21  1  0  0  0  0
 10 22  1  0  0  0  0
 10 23  1  0  0  0  0
 10 24  1  0  0  0  0
 11 25  1  0  0  0  0
 11 26  1  0  0  0  0
 11 27  1  0  0  0  0
M  END
> <PUBCHEM_COMPOUND_CID>
94834

> <PUBCHEM_CONFORMER_RMSD>
0.4

> <PUBCHEM_CONFORMER_DIVERSEORDER>
1
2

> <PUBCHEM_MMFF94_PARTIAL_CHARGES>
7
1 -0.3
12 0.66
13 0.66
2 -0.57
3 -0.57
5 0.06
6 0.06

> <PUBCHEM_EFFECTIVE_ROTOR_COUNT>
0.8

> <PUBCHEM_PHARMACOPHORE_FEATURES>
4
1 2 acceptor
1 3 acceptor
3 4 9 10 hydrophobe
8 1 4 5 6 7 8 12 13 rings

> <PUBCHEM_HEAVY_ATOM_COUNT>
13

> <PUBCHEM_ATOM_DEF_STEREO_COUNT>
0

> <PUBCHEM_ATOM_UDEF_STEREO_COUNT>
2

> <PUBCHEM_BOND_DEF_STEREO_COUNT>
0

> <PUBCHEM_BOND_UDEF_STEREO_COUNT>
0

> <PUBCHEM_ISOTOPIC_ATOM_COUNT>
0

> <PUBCHEM_COMPONENT_COUNT>
1

> <PUBCHEM_CACTVS_TAUTO_COUNT>
1

> <PUBCHEM_CONFORMER_ID>
0001727200000001

> <PUBCHEM_MMFF94_ENERGY>
48.1833

> <PUBCHEM_FEATURE_SELFOVERLAP>
20.297

> <PUBCHEM_SHAPE_FINGERPRINT>
10702982 57 17838045271212840308
12423570 1 14008308192686240440
13024252 1 15588199439987962996
137420 1 13179636210638078386
144361 1 17988933257726806870
14817 1 9333142471846121122
15557651 10 17702925024618359712
16945 1 18411417353588291057
20511035 2 17755307008243076093
23559900 14 16685689521828472982
241688 4 18122350068725680297
2748010 2 18266455399967629781
5084963 1 17699859719249381498
528886 8 18270394013647596006
68250623 7 18124034524976727522

> <PUBCHEM_SHAPE_MULTIPOLES>
249.93
2.37
2.02
1.48
0.87
0.57
-0.12
0.03
0.19
-0.64
0.29
-0.15
-0.48
0.22

> <PUBCHEM_SHAPE_SELFOVERLAP>
538.176

> <PUBCHEM_SHAPE_VOLUME>
139.8

> <PUBCHEM_COORDINATE_TYPE>
2
5
10

$$$$
