13307608
  -OEChem-11012401163D

 30 29  0     0  0  0  0  0  0999 V2000
   -3.6642    0.0249    1.0106 S   0  0  0  0  0  0  0  0  0  0  0  0
    1.1836   -0.0263   -0.0801 Si  0  0  0  0  0  0  0  0  0  0  0  0
    2.1598   -0.4633    1.2129 O   0  0  0  0  0  0  0  0  0  0  0  0
    1.9149    1.2204   -0.9306 O   0  0  0  0  0  0  0  0  0  0  0  0
    1.0123   -1.3507   -1.0954 O   0  0  0  0  0  0  0  0  0  0  0  0
   -0.4973    0.5109    0.5646 C   0  0  0  0  0  0  0  0  0  0  0  0
   -1.5023    0.9419   -0.5130 C   0  0  0  0  0  0  0  0  0  0  0  0
   -2.8707    1.3418    0.0424 C   0  0  0  0  0  0  0  0  0  0  0  0
    3.4866   -0.9071    0.9655 C   0  0  0  0  0  0  0  0  0  0  0  0
    2.1887    2.4502   -0.2750 C   0  0  0  0  0  0  0  0  0  0  0  0
    0.4408   -2.5493   -0.5913 C   0  0  0  0  0  0  0  0  0  0  0  0
   -3.8521   -1.1936   -0.3107 C   0  0  0  0  0  0  0  0  0  0  0  0
   -0.3525    1.3370    1.2707 H   0  0  0  0  0  0  0  0  0  0  0  0
   -0.8875   -0.3303    1.1455 H   0  0  0  0  0  0  0  0  0  0  0  0
   -1.6168    0.1550   -1.2683 H   0  0  0  0  0  0  0  0  0  0  0  0
   -1.0973    1.8073   -1.0550 H   0  0  0  0  0  0  0  0  0  0  0  0
   -3.5382    1.6408   -0.7726 H   0  0  0  0  0  0  0  0  0  0  0  0
   -2.7580    2.2110    0.6992 H   0  0  0  0  0  0  0  0  0  0  0  0
    4.0837   -0.1246    0.4847 H   0  0  0  0  0  0  0  0  0  0  0  0
    3.4941   -1.8170    0.3554 H   0  0  0  0  0  0  0  0  0  0  0  0
    3.9507   -1.1423    1.9282 H   0  0  0  0  0  0  0  0  0  0  0  0
    2.7029    3.1057   -0.9846 H   0  0  0  0  0  0  0  0  0  0  0  0
    2.8467    2.3054    0.5889 H   0  0  0  0  0  0  0  0  0  0  0  0
    1.2629    2.9479    0.0334 H   0  0  0  0  0  0  0  0  0  0  0  0
   -0.5946   -2.3938   -0.2725 H   0  0  0  0  0  0  0  0  0  0  0  0
    1.0333   -2.9561    0.2355 H   0  0  0  0  0  0  0  0  0  0  0  0
    0.4368   -3.2883   -1.3984 H   0  0  0  0  0  0  0  0  0  0  0  0
   -2.8883   -1.6251   -0.5875 H   0  0  0  0  0  0  0  0  0  0  0  0
   -4.3269   -0.7465   -1.1880 H   0  0  0  0  0  0  0  0  0  0  0  0
   -4.4920   -2.0052    0.0471 H   0  0  0  0  0  0  0  0  0  0  0  0
  1  8  1  0  0  0  0
  1 12  1  0  0  0  0
  2  3  1  0  0  0  0
  2  4  1  0  0  0  0
  2  5  1  0  0  0  0
  2  6  1  0  0  0  0
  3  9  1  0  0  0  0
  4 10  1  0  0  0  0
  5 11  1  0  0  0  0
  6  7  1  0  0  0  0
  6 13  1  0  0  0  0
  6 14  1  0  0  0  0
  7  8  1  0  0  0  0
  7 15  1  0  0  0  0
  7 16  1  0  0  0  0
  8 17  1  0  0  0  0
  8 18  1  0  0  0  0
  9 19  1  0  0  0  0
  9 20  1  0  0  0  0
  9 21  1  0  0  0  0
 10 22  1  0  0  0  0
 10 23  1  0  0  0  0
 10 24  1  0  0  0  0
 11 25  1  0  0  0  0
 11 26  1  0  0  0  0
 11 27  1  0  0  0  0
 12 28  1  0  0  0  0
 12 29  1  0  0  0  0
 12 30  1  0  0  0  0
M  END
> <PUBCHEM_COMPOUND_CID>
13307608

> <PUBCHEM_CONFORMER_RMSD>
0.8

> <PUBCHEM_CONFORMER_DIVERSEORDER>
3
34
7
11
33
20
23
22
10
29
4
27
13
6
8
30
24
19
32
16
1
35
5
26
31
9
14
21
2
17
12
28
15
25
18

> <PUBCHEM_MMFF94_PARTIAL_CHARGES>
11
1 -0.46
10 0.28
11 0.28
12 0.23
2 0.97
3 -0.58
4 -0.58
5 -0.58
6 -0.08
8 0.23
9 0.28

> <PUBCHEM_EFFECTIVE_ROTOR_COUNT>
7

> <PUBCHEM_PHARMACOPHORE_FEATURES>
1
1 12 hydrophobe

> <PUBCHEM_HEAVY_ATOM_COUNT>
12

> <PUBCHEM_ATOM_DEF_STEREO_COUNT>
0

> <PUBCHEM_ATOM_UDEF_STEREO_COUNT>
0

> <PUBCHEM_BOND_DEF_STEREO_COUNT>
0

> <PUBCHEM_BOND_UDEF_STEREO_COUNT>
0

> <PUBCHEM_ISOTOPIC_ATOM_COUNT>
0

> <PUBCHEM_COMPONENT_COUNT>
1

> <PUBCHEM_CACTVS_TAUTO_COUNT>
1

> <PUBCHEM_CONFORMER_ID>
00CB0ED800000003

> <PUBCHEM_MMFF94_ENERGY>
16.7521

> <PUBCHEM_FEATURE_SELFOVERLAP>
5.074

> <PUBCHEM_SHAPE_FINGERPRINT>
10219947 1 18267575824033711080
12932764 1 17822584815272300653
14178342 30 18198626523502724481
14993402 34 18410571756764979742
17990270 104 18337680702379057879
20201158 50 18338517435297153851
20279233 1 18271521980056193721
20645477 70 18334573547375950143
21501502 16 18408326600991719489
21524375 3 18046640163628418884
21730867 7 17703222906270083115
22959321 4 18334575780521612633
23235687 12 18261957349580540845
23557571 272 14996569563949781765
3248919 1 18270963445255598529
58051976 378 18343587356274298861
581208 293 18343867714759946431
81539 233 17677618746761779044

> <PUBCHEM_SHAPE_MULTIPOLES>
251.41
6.21
2.31
1.12
4.6
0.18
0.13
0.31
1.56
-1
-0.65
-0.29
0.18
-0.52

> <PUBCHEM_SHAPE_SELFOVERLAP>
432.773

> <PUBCHEM_SHAPE_VOLUME>
169.8

> <PUBCHEM_COORDINATE_TYPE>
2
5
10

$$$$
