135431066
  -OEChem-10312420392D

 86 94  0     0  0  0  0  0  0999 V2000
    8.2516   -0.0175    0.0000 N   0  0  0  0  0  0  0  0  0  0  0  0
    5.2464   -0.0175    0.0000 N   0  0  0  0  0  0  0  0  0  0  0  0
    6.7498   -1.3870    0.0000 N   0  0  0  0  0  0  0  0  0  0  0  0
    6.7163    1.3520    0.0000 N   0  0  0  0  0  0  0  0  0  0  0  0
    8.2933   -4.1002    0.0000 N   0  0  0  0  0  0  0  0  0  0  0  0
    8.3562    4.1072    0.0000 N   0  0  0  0  0  0  0  0  0  0  0  0
    2.5901   -1.5812    0.0000 N   0  0  0  0  0  0  0  0  0  0  0  0
    5.2252    4.0965    0.0000 N   0  0  0  0  0  0  0  0  0  0  0  0
    8.8526   -0.7525    0.0000 C   0  0  0  0  0  0  0  0  0  0  0  0
    8.8192    0.7844    0.0000 C   0  0  0  0  0  0  0  0  0  0  0  0
    4.6788   -0.7860    0.0000 C   0  0  0  0  0  0  0  0  0  0  0  0
    4.6788    0.7509    0.0000 C   0  0  0  0  0  0  0  0  0  0  0  0
    8.5529   -1.7202    0.0000 C   0  0  0  0  0  0  0  0  0  0  0  0
    8.5195    1.7186    0.0000 C   0  0  0  0  0  0  0  0  0  0  0  0
    4.9802   -1.7202    0.0000 C   0  0  0  0  0  0  0  0  0  0  0  0
    4.9467    1.7186    0.0000 C   0  0  0  0  0  0  0  0  0  0  0  0
    7.5518   -1.9881    0.0000 C   0  0  0  0  0  0  0  0  0  0  0  0
    7.5518    2.0200    0.0000 C   0  0  0  0  0  0  0  0  0  0  0  0
    5.9479   -2.0216    0.0000 C   0  0  0  0  0  0  0  0  0  0  0  0
    5.9144    1.9865    0.0000 C   0  0  0  0  0  0  0  0  0  0  0  0
    9.7885   -0.4846    0.0000 C   0  0  0  0  0  0  0  0  0  0  0  0
    9.7885    0.5165    0.0000 C   0  0  0  0  0  0  0  0  0  0  0  0
    3.7112   -0.5181    0.0000 C   0  0  0  0  0  0  0  0  0  0  0  0
    3.7112    0.4831    0.0000 C   0  0  0  0  0  0  0  0  0  0  0  0
    9.2598   -2.4275    0.0000 C   0  0  0  0  0  0  0  0  0  0  0  0
    9.2543    2.3968    0.0000 C   0  0  0  0  0  0  0  0  0  0  0  0
    4.3095   -2.4619    0.0000 C   0  0  0  0  0  0  0  0  0  0  0  0
    4.2455    2.4315    0.0000 C   0  0  0  0  0  0  0  0  0  0  0  0
    7.2504   -2.9558    0.0000 C   0  0  0  0  0  0  0  0  0  0  0  0
    7.2169    2.9542    0.0000 C   0  0  0  0  0  0  0  0  0  0  0  0
    6.2492   -2.9558    0.0000 C   0  0  0  0  0  0  0  0  0  0  0  0
    6.2158    2.9542    0.0000 C   0  0  0  0  0  0  0  0  0  0  0  0
    9.0007   -3.3934    0.0000 C   0  0  0  0  0  0  0  0  0  0  0  0
    9.0344    3.3723    0.0000 C   0  0  0  0  0  0  0  0  0  0  0  0
    3.3318   -2.2519    0.0000 C   0  0  0  0  0  0  0  0  0  0  0  0
    4.5122    3.3953    0.0000 C   0  0  0  0  0  0  0  0  0  0  0  0
   10.2258   -2.1690    0.0000 C   0  0  0  0  0  0  0  0  0  0  0  0
   10.2091    2.0995    0.0000 C   0  0  0  0  0  0  0  0  0  0  0  0
    4.6165   -3.4136    0.0000 C   0  0  0  0  0  0  0  0  0  0  0  0
    3.2774    2.1807    0.0000 C   0  0  0  0  0  0  0  0  0  0  0  0
    9.7076   -4.1007    0.0000 C   0  0  0  0  0  0  0  0  0  0  0  0
    9.7693    4.0506    0.0000 C   0  0  0  0  0  0  0  0  0  0  0  0
    2.6610   -2.9936    0.0000 C   0  0  0  0  0  0  0  0  0  0  0  0
    3.8110    4.1082    0.0000 C   0  0  0  0  0  0  0  0  0  0  0  0
   10.9327   -2.8764    0.0000 C   0  0  0  0  0  0  0  0  0  0  0  0
   10.9440    2.7777    0.0000 C   0  0  0  0  0  0  0  0  0  0  0  0
    3.9457   -4.1553    0.0000 C   0  0  0  0  0  0  0  0  0  0  0  0
    2.5762    2.8936    0.0000 C   0  0  0  0  0  0  0  0  0  0  0  0
   10.6736   -3.8422    0.0000 C   0  0  0  0  0  0  0  0  0  0  0  0
   10.7241    3.7532    0.0000 C   0  0  0  0  0  0  0  0  0  0  0  0
    2.9680   -3.9453    0.0000 C   0  0  0  0  0  0  0  0  0  0  0  0
    2.8430    3.8574    0.0000 C   0  0  0  0  0  0  0  0  0  0  0  0
    7.6320   -0.0391    0.0000 H   0  0  0  0  0  0  0  0  0  0  0  0
    5.8664   -0.0175    0.0000 H   0  0  0  0  0  0  0  0  0  0  0  0
   10.2836   -0.8579    0.0000 H   0  0  0  0  0  0  0  0  0  0  0  0
   10.2819    0.8920    0.0000 H   0  0  0  0  0  0  0  0  0  0  0  0
    3.2177   -0.8935    0.0000 H   0  0  0  0  0  0  0  0  0  0  0  0
    3.2177    0.8584    0.0000 H   0  0  0  0  0  0  0  0  0  0  0  0
    7.6179   -3.4551    0.0000 H   0  0  0  0  0  0  0  0  0  0  0  0
    7.5738    3.4612    0.0000 H   0  0  0  0  0  0  0  0  0  0  0  0
    5.8843   -3.4570    0.0000 H   0  0  0  0  0  0  0  0  0  0  0  0
    5.8483    3.4535    0.0000 H   0  0  0  0  0  0  0  0  0  0  0  0
   10.3865   -1.5702    0.0000 H   0  0  0  0  0  0  0  0  0  0  0  0
   10.3455    1.4947    0.0000 H   0  0  0  0  0  0  0  0  0  0  0  0
    5.2226   -3.5438    0.0000 H   0  0  0  0  0  0  0  0  0  0  0  0
    3.1120    1.5832    0.0000 H   0  0  0  0  0  0  0  0  0  0  0  0
    9.5469   -4.6995    0.0000 H   0  0  0  0  0  0  0  0  0  0  0  0
    9.6329    4.6554    0.0000 H   0  0  0  0  0  0  0  0  0  0  0  0
    2.0549   -2.8634    0.0000 H   0  0  0  0  0  0  0  0  0  0  0  0
    3.9764    4.7057    0.0000 H   0  0  0  0  0  0  0  0  0  0  0  0
   11.5316   -2.7161    0.0000 H   0  0  0  0  0  0  0  0  0  0  0  0
   11.5360    2.5934    0.0000 H   0  0  0  0  0  0  0  0  0  0  0  0
    4.1361   -4.7454    0.0000 H   0  0  0  0  0  0  0  0  0  0  0  0
    1.9760    2.7381    0.0000 H   0  0  0  0  0  0  0  0  0  0  0  0
   11.1118   -4.2808    0.0000 H   0  0  0  0  0  0  0  0  0  0  0  0
   11.1797    4.1737    0.0000 H   0  0  0  0  0  0  0  0  0  0  0  0
    2.5522   -4.4052    0.0000 H   0  0  0  0  0  0  0  0  0  0  0  0
    2.4082    4.2993    0.0000 H   0  0  0  0  0  0  0  0  0  0  0  0
    8.4536   -4.6992    0.0000 H   0  0  0  0  0  0  0  0  0  0  0  0
    7.6945   -3.9396    0.0000 H   0  0  0  0  0  0  0  0  0  0  0  0
    8.5406    4.6992    0.0000 H   0  0  0  0  0  0  0  0  0  0  0  0
    7.7514    3.9710    0.0000 H   0  0  0  0  0  0  0  0  0  0  0  0
    2.0000   -1.7715    0.0000 H   0  0  0  0  0  0  0  0  0  0  0  0
    2.7203   -0.9750    0.0000 H   0  0  0  0  0  0  0  0  0  0  0  0
    5.0696    4.6967    0.0000 H   0  0  0  0  0  0  0  0  0  0  0  0
    5.8227    3.9311    0.0000 H   0  0  0  0  0  0  0  0  0  0  0  0
  1  9  1  0  0  0  0
  1 10  1  0  0  0  0
  1 53  1  0  0  0  0
  2 11  1  0  0  0  0
  2 12  1  0  0  0  0
  2 54  1  0  0  0  0
  3 17  2  0  0  0  0
  3 19  1  0  0  0  0
  4 18  2  0  0  0  0
  4 20  1  0  0  0  0
  5 33  1  0  0  0  0
  5 79  1  0  0  0  0
  5 80  1  0  0  0  0
  6 34  1  0  0  0  0
  6 81  1  0  0  0  0
  6 82  1  0  0  0  0
  7 35  1  0  0  0  0
  7 83  1  0  0  0  0
  7 84  1  0  0  0  0
  8 36  1  0  0  0  0
  8 85  1  0  0  0  0
  8 86  1  0  0  0  0
  9 13  2  0  0  0  0
  9 21  1  0  0  0  0
 10 14  2  0  0  0  0
 10 22  1  0  0  0  0
 11 15  1  0  0  0  0
 11 23  2  0  0  0  0
 12 16  1  0  0  0  0
 12 24  2  0  0  0  0
 13 17  1  0  0  0  0
 13 25  1  0  0  0  0
 14 18  1  0  0  0  0
 14 26  1  0  0  0  0
 15 19  2  0  0  0  0
 15 27  1  0  0  0  0
 16 20  2  0  0  0  0
 16 28  1  0  0  0  0
 17 29  1  0  0  0  0
 18 30  1  0  0  0  0
 19 31  1  0  0  0  0
 20 32  1  0  0  0  0
 21 22  2  0  0  0  0
 21 55  1  0  0  0  0
 22 56  1  0  0  0  0
 23 24  1  0  0  0  0
 23 57  1  0  0  0  0
 24 58  1  0  0  0  0
 25 33  1  0  0  0  0
 25 37  2  0  0  0  0
 26 34  1  0  0  0  0
 26 38  2  0  0  0  0
 27 35  1  0  0  0  0
 27 39  2  0  0  0  0
 28 36  1  0  0  0  0
 28 40  2  0  0  0  0
 29 31  2  0  0  0  0
 29 59  1  0  0  0  0
 30 32  2  0  0  0  0
 30 60  1  0  0  0  0
 31 61  1  0  0  0  0
 32 62  1  0  0  0  0
 33 41  2  0  0  0  0
 34 42  2  0  0  0  0
 35 43  2  0  0  0  0
 36 44  2  0  0  0  0
 37 45  1  0  0  0  0
 37 63  1  0  0  0  0
 38 46  1  0  0  0  0
 38 64  1  0  0  0  0
 39 47  1  0  0  0  0
 39 65  1  0  0  0  0
 40 48  1  0  0  0  0
 40 66  1  0  0  0  0
 41 49  1  0  0  0  0
 41 67  1  0  0  0  0
 42 50  1  0  0  0  0
 42 68  1  0  0  0  0
 43 51  1  0  0  0  0
 43 69  1  0  0  0  0
 44 52  1  0  0  0  0
 44 70  1  0  0  0  0
 45 49  2  0  0  0  0
 45 71  1  0  0  0  0
 46 50  2  0  0  0  0
 46 72  1  0  0  0  0
 47 51  2  0  0  0  0
 47 73  1  0  0  0  0
 48 52  2  0  0  0  0
 48 74  1  0  0  0  0
 49 75  1  0  0  0  0
 50 76  1  0  0  0  0
 51 77  1  0  0  0  0
 52 78  1  0  0  0  0
M  END
> <PUBCHEM_COMPOUND_CID>
135431066

> <PUBCHEM_COMPOUND_CANONICALIZED>
1

> <PUBCHEM_CACTVS_COMPLEXITY>
997

> <PUBCHEM_CACTVS_HBOND_ACCEPTOR>
6

> <PUBCHEM_CACTVS_HBOND_DONOR>
6

> <PUBCHEM_CACTVS_ROTATABLE_BOND>
4

> <PUBCHEM_CACTVS_SUBSKEYS>
AAADcfB/wAAAAAAAAAAAAAAAAAAAAWLFiwAwYMGAAAAAAAAB/gAAHAAQAAAADAiBHgAwwLLJkACgAyRiRACCgCAhAiAImSAwZJgIIOLA0dGEJAhgkADIyAcQgMAOgAAAAAACAAAAAAAAAAQAAAAAAAAAAA==

> <PUBCHEM_IUPAC_OPENEYE_NAME>
2-[10,15,20-tris(2-aminophenyl)-21,23-dihydroporphyrin-5-yl]aniline

> <PUBCHEM_IUPAC_CAS_NAME>
2-[10,15,20-tris(2-aminophenyl)-21,23-dihydroporphyrin-5-yl]aniline

> <PUBCHEM_IUPAC_NAME_MARKUP>
2-[10,15,20-tris(2-aminophenyl)-21,23-dihydroporphyrin-5-yl]aniline

> <PUBCHEM_IUPAC_NAME>
2-[10,15,20-tris(2-aminophenyl)-21,23-dihydroporphyrin-5-yl]aniline

> <PUBCHEM_IUPAC_SYSTEMATIC_NAME>
2-[10,15,20-tris(2-aminophenyl)-21,23-dihydroporphyrin-5-yl]aniline

> <PUBCHEM_IUPAC_TRADITIONAL_NAME>
[2-[10,15,20-tris(2-aminophenyl)-21,23-dihydroporphin-5-yl]phenyl]amine

> <PUBCHEM_IUPAC_INCHI>
InChI=1S/C44H34N8/c45-29-13-5-1-9-25(29)41-33-17-19-35(49-33)42(26-10-2-6-14-30(26)46)37-21-23-39(51-37)44(28-12-4-8-16-32(28)48)40-24-22-38(52-40)43(36-20-18-34(41)50-36)27-11-3-7-15-31(27)47/h1-24,49,52H,45-48H2

> <PUBCHEM_IUPAC_INCHIKEY>
FDJUBNCEVCSIAV-UHFFFAOYSA-N

> <PUBCHEM_XLOGP3_AA>
7.7

> <PUBCHEM_EXACT_MASS>
674.29064312

> <PUBCHEM_MOLECULAR_FORMULA>
C44H34N8

> <PUBCHEM_MOLECULAR_WEIGHT>
674.8

> <PUBCHEM_OPENEYE_CAN_SMILES>
C1=CC=C(C(=C1)C2=C3C=CC(=C(C4=NC(=C(C5=CC=C(N5)C(=C6C=CC2=N6)C7=CC=CC=C7N)C8=CC=CC=C8N)C=C4)C9=CC=CC=C9N)N3)N

> <PUBCHEM_OPENEYE_ISO_SMILES>
C1=CC=C(C(=C1)C2=C3C=CC(=C(C4=NC(=C(C5=CC=C(N5)C(=C6C=CC2=N6)C7=CC=CC=C7N)C8=CC=CC=C8N)C=C4)C9=CC=CC=C9N)N3)N

> <PUBCHEM_CACTVS_TPSA>
161

> <PUBCHEM_MONOISOTOPIC_WEIGHT>
674.29064312

> <PUBCHEM_TOTAL_CHARGE>
0

> <PUBCHEM_HEAVY_ATOM_COUNT>
52

> <PUBCHEM_ATOM_DEF_STEREO_COUNT>
0

> <PUBCHEM_ATOM_UDEF_STEREO_COUNT>
0

> <PUBCHEM_BOND_DEF_STEREO_COUNT>
0

> <PUBCHEM_BOND_UDEF_STEREO_COUNT>
0

> <PUBCHEM_ISOTOPIC_ATOM_COUNT>
0

> <PUBCHEM_COMPONENT_COUNT>
1

> <PUBCHEM_CACTVS_TAUTO_COUNT>
-1

> <PUBCHEM_COORDINATE_TYPE>
1
5
255

> <PUBCHEM_BONDANNOTATIONS>
1  10  8
1  9  8
10  14  8
10  22  8
11  15  8
11  23  8
12  16  8
12  24  8
13  17  8
14  18  8
15  19  8
16  20  8
2  11  8
2  12  8
21  22  8
23  24  8
25  33  8
25  37  8
26  34  8
26  38  8
27  35  8
27  39  8
28  36  8
28  40  8
3  17  8
3  19  8
33  41  8
34  42  8
35  43  8
36  44  8
37  45  8
38  46  8
39  47  8
4  18  8
4  20  8
40  48  8
41  49  8
42  50  8
43  51  8
44  52  8
45  49  8
46  50  8
47  51  8
48  52  8
9  13  8
9  21  8

$$$$
