12239
  -OEChem-11012401223D

 31 30  0     0  0  0  0  0  0999 V2000
    0.0003   -0.9054   -0.0239 S   0  0  0  0  0  0  0  0  0  0  0  0
    1.2732    0.1160   -0.1099 O   0  0  0  0  0  0  0  0  0  0  0  0
   -1.2747    0.1133   -0.1233 O   0  0  0  0  0  0  0  0  0  0  0  0
   -0.0061   -1.5064    1.2971 O   0  0  0  0  0  0  0  0  0  0  0  0
    0.0072   -1.7349   -1.2150 O   0  0  0  0  0  0  0  0  0  0  0  0
    3.5849    0.7367   -0.0499 C   0  0  0  0  0  0  0  0  0  0  0  0
   -3.5869    0.7303   -0.0882 C   0  0  0  0  0  0  0  0  0  0  0  0
    5.0198    0.2471    0.1241 C   0  0  0  0  0  0  0  0  0  0  0  0
   -5.0206    0.2434    0.1021 C   0  0  0  0  0  0  0  0  0  0  0  0
    2.5830   -0.4022    0.0763 C   0  0  0  0  0  0  0  0  0  0  0  0
   -2.5843   -0.4068    0.0488 C   0  0  0  0  0  0  0  0  0  0  0  0
    6.0195    1.3797   -0.0456 C   0  0  0  0  0  0  0  0  0  0  0  0
   -6.0153    1.3892    0.0074 C   0  0  0  0  0  0  0  0  0  0  0  0
    3.3540    1.5098    0.6936 H   0  0  0  0  0  0  0  0  0  0  0  0
    3.4639    1.2173   -1.0289 H   0  0  0  0  0  0  0  0  0  0  0  0
   -3.4725    1.2008   -1.0728 H   0  0  0  0  0  0  0  0  0  0  0  0
   -3.3504    1.5108    0.6460 H   0  0  0  0  0  0  0  0  0  0  0  0
    5.2382   -0.5360   -0.6113 H   0  0  0  0  0  0  0  0  0  0  0  0
    5.1433   -0.1979    1.1183 H   0  0  0  0  0  0  0  0  0  0  0  0
   -5.1235   -0.2396    1.0808 H   0  0  0  0  0  0  0  0  0  0  0  0
   -5.2624   -0.5086   -0.6579 H   0  0  0  0  0  0  0  0  0  0  0  0
    2.7778   -1.1687   -0.6817 H   0  0  0  0  0  0  0  0  0  0  0  0
    2.6545   -0.8614    1.0684 H   0  0  0  0  0  0  0  0  0  0  0  0
   -2.6647   -0.8656    1.0403 H   0  0  0  0  0  0  0  0  0  0  0  0
   -2.7712   -1.1742   -0.7105 H   0  0  0  0  0  0  0  0  0  0  0  0
    5.9446    1.8232   -1.0435 H   0  0  0  0  0  0  0  0  0  0  0  0
    5.8486    2.1678    0.6947 H   0  0  0  0  0  0  0  0  0  0  0  0
    7.0403    1.0069    0.0845 H   0  0  0  0  0  0  0  0  0  0  0  0
   -5.8211    2.1422    0.7778 H   0  0  0  0  0  0  0  0  0  0  0  0
   -5.9602    1.8764   -0.9712 H   0  0  0  0  0  0  0  0  0  0  0  0
   -7.0356    1.0178    0.1451 H   0  0  0  0  0  0  0  0  0  0  0  0
  1  2  1  0  0  0  0
  1  3  1  0  0  0  0
  1  4  2  0  0  0  0
  1  5  2  0  0  0  0
  2 10  1  0  0  0  0
  3 11  1  0  0  0  0
  6  8  1  0  0  0  0
  6 10  1  0  0  0  0
  6 14  1  0  0  0  0
  6 15  1  0  0  0  0
  7  9  1  0  0  0  0
  7 11  1  0  0  0  0
  7 16  1  0  0  0  0
  7 17  1  0  0  0  0
  8 12  1  0  0  0  0
  8 18  1  0  0  0  0
  8 19  1  0  0  0  0
  9 13  1  0  0  0  0
  9 20  1  0  0  0  0
  9 21  1  0  0  0  0
 10 22  1  0  0  0  0
 10 23  1  0  0  0  0
 11 24  1  0  0  0  0
 11 25  1  0  0  0  0
 12 26  1  0  0  0  0
 12 27  1  0  0  0  0
 12 28  1  0  0  0  0
 13 29  1  0  0  0  0
 13 30  1  0  0  0  0
 13 31  1  0  0  0  0
M  END
> <PUBCHEM_COMPOUND_CID>
12239

> <PUBCHEM_CONFORMER_RMSD>
0.8

> <PUBCHEM_CONFORMER_DIVERSEORDER>
1
9
72
91
79
75
5
130
108
133
25
6
99
49
21
116
83
78
101
117
63
127
55
29
24
123
90
58
4
28
81
87
48
16
56
126
121
86
62
111
74
3
112
105
98
77
68
17
40
26
64
84
71
102
54
113
52
61
44
89
10
65
100
19
94
110
59
85
115
23
104
106
69
34
73
43
18
22
95
53
30
125
88
70
7
45
107
46
36
129
66
42
80
20
103
132
51
124
47
122
92
37
32
128
14
27
33
2
13
114
57
118
67
82
35
119
60
31
76
93
131
109
41
120
96
15
12
97
38
50
8
39
11

> <PUBCHEM_MMFF94_PARTIAL_CHARGES>
7
1 1.67
10 0.28
11 0.28
2 -0.46
3 -0.46
4 -0.65
5 -0.65

> <PUBCHEM_EFFECTIVE_ROTOR_COUNT>
8

> <PUBCHEM_PHARMACOPHORE_FEATURES>
4
1 12 hydrophobe
1 13 hydrophobe
1 4 acceptor
1 5 acceptor

> <PUBCHEM_HEAVY_ATOM_COUNT>
13

> <PUBCHEM_ATOM_DEF_STEREO_COUNT>
0

> <PUBCHEM_ATOM_UDEF_STEREO_COUNT>
0

> <PUBCHEM_BOND_DEF_STEREO_COUNT>
0

> <PUBCHEM_BOND_UDEF_STEREO_COUNT>
0

> <PUBCHEM_ISOTOPIC_ATOM_COUNT>
0

> <PUBCHEM_COMPONENT_COUNT>
1

> <PUBCHEM_CACTVS_TAUTO_COUNT>
1

> <PUBCHEM_CONFORMER_ID>
00002FCF00000001

> <PUBCHEM_MMFF94_ENERGY>
-2.9063

> <PUBCHEM_FEATURE_SELFOVERLAP>
20.315

> <PUBCHEM_SHAPE_FINGERPRINT>
100836 57 18409732871889277644
10354089 29 17603305955801836156
117890 112 18411699911493086640
12714333 28 17632576045790644385
14251752 14 12823028477870837033
14252887 29 13695865883396542712
14911166 2 15482669091321724710
15048467 5 18411699885074520793
15501527 16 18411702114156980441
15501527 24 15985104115204574721
17834072 8 15769773567519192560
17834076 25 18202282502385786569
18006028 8 11674876705865276462
187816 3 15769780169105485562
200 152 9367353626237124022
20281389 69 18333166154690619988
20526848 3 18410860961987237816
20605781 2 18410856555392489940
20621476 66 18410296921133020957
20645477 56 18271806851755949678
20645477 70 17346045459229462046
20767249 13 9295289443176155472
20767249 213 18409166623390423437
212847 35 18341609313629026240
21637258 2 9151174216450946640
22224240 67 17312822688993601345
23402539 116 17989200473317097556
23402655 69 17846497023779795589
2916195 48 18410008870582388392
293599 30 18413670214232583084
351380 3 9151173138440821433
366044 4 18343020003763264030
42788 4 18410855464423291496
465052 167 10809346624632510328

> <PUBCHEM_SHAPE_MULTIPOLES>
247.91
14.23
1.43
0.79
0.02
0.18
-0.02
-9.72
-0.26
-0.01
0.05
0
0.3
-0.03

> <PUBCHEM_SHAPE_SELFOVERLAP>
439.267

> <PUBCHEM_SHAPE_VOLUME>
161.6

> <PUBCHEM_COORDINATE_TYPE>
2
5
10

$$$$
