12484750
  -OEChem-11012401123D

 27 26  0     0  0  0  0  0  0999 V2000
    2.0084   -0.0532    0.4706 S   0  0  0  0  0  0  0  0  0  0  0  0
   -0.9478    0.0694   -0.0132 Si  0  0  0  0  0  0  0  0  0  0  0  0
   -1.0274    1.6067    0.6561 O   0  0  0  0  0  0  0  0  0  0  0  0
   -1.1859   -1.0694    1.1976 O   0  0  0  0  0  0  0  0  0  0  0  0
   -2.1759   -0.0718   -1.1489 O   0  0  0  0  0  0  0  0  0  0  0  0
    0.7340   -0.2220   -0.8127 C   0  0  0  0  0  0  0  0  0  0  0  0
    3.4646   -0.3679   -0.5541 C   0  0  0  0  0  0  0  0  0  0  0  0
    4.7296   -0.2902    0.2793 C   0  0  0  0  0  0  0  0  0  0  0  0
   -0.8565    2.7454   -0.1757 C   0  0  0  0  0  0  0  0  0  0  0  0
   -2.3923   -1.0502    1.9478 C   0  0  0  0  0  0  0  0  0  0  0  0
   -2.3506   -1.2967   -1.8468 C   0  0  0  0  0  0  0  0  0  0  0  0
    0.7770   -1.2288   -1.2379 H   0  0  0  0  0  0  0  0  0  0  0  0
    0.9069    0.5090   -1.6077 H   0  0  0  0  0  0  0  0  0  0  0  0
    3.3822   -1.3623   -1.0041 H   0  0  0  0  0  0  0  0  0  0  0  0
    3.5085    0.3740   -1.3577 H   0  0  0  0  0  0  0  0  0  0  0  0
    4.8564    0.7016    0.7268 H   0  0  0  0  0  0  0  0  0  0  0  0
    4.7300   -1.0368    1.0809 H   0  0  0  0  0  0  0  0  0  0  0  0
    5.6039   -0.4822   -0.3515 H   0  0  0  0  0  0  0  0  0  0  0  0
   -0.9814    3.6392    0.4432 H   0  0  0  0  0  0  0  0  0  0  0  0
   -1.6117    2.7753   -0.9690 H   0  0  0  0  0  0  0  0  0  0  0  0
    0.1491    2.7729   -0.6087 H   0  0  0  0  0  0  0  0  0  0  0  0
   -3.2635   -1.2134    1.3038 H   0  0  0  0  0  0  0  0  0  0  0  0
   -2.4997   -0.1095    2.4989 H   0  0  0  0  0  0  0  0  0  0  0  0
   -2.3524   -1.8663    2.6758 H   0  0  0  0  0  0  0  0  0  0  0  0
   -1.4822   -1.5187   -2.4763 H   0  0  0  0  0  0  0  0  0  0  0  0
   -3.2229   -1.1937   -2.4996 H   0  0  0  0  0  0  0  0  0  0  0  0
   -2.5406   -2.1263   -1.1570 H   0  0  0  0  0  0  0  0  0  0  0  0
  1  6  1  0  0  0  0
  1  7  1  0  0  0  0
  2  3  1  0  0  0  0
  2  4  1  0  0  0  0
  2  5  1  0  0  0  0
  2  6  1  0  0  0  0
  3  9  1  0  0  0  0
  4 10  1  0  0  0  0
  5 11  1  0  0  0  0
  6 12  1  0  0  0  0
  6 13  1  0  0  0  0
  7  8  1  0  0  0  0
  7 14  1  0  0  0  0
  7 15  1  0  0  0  0
  8 16  1  0  0  0  0
  8 17  1  0  0  0  0
  8 18  1  0  0  0  0
  9 19  1  0  0  0  0
  9 20  1  0  0  0  0
  9 21  1  0  0  0  0
 10 22  1  0  0  0  0
 10 23  1  0  0  0  0
 10 24  1  0  0  0  0
 11 25  1  0  0  0  0
 11 26  1  0  0  0  0
 11 27  1  0  0  0  0
M  END
> <PUBCHEM_COMPOUND_CID>
12484750

> <PUBCHEM_CONFORMER_RMSD>
0.6

> <PUBCHEM_CONFORMER_DIVERSEORDER>
2
23
28
24
9
1
25
5
22
11
27
16
19
20
15
21
10
26
3
18
14
12
17
13
4
6
29
7
8

> <PUBCHEM_MMFF94_PARTIAL_CHARGES>
10
1 -0.46
10 0.28
11 0.28
2 0.97
3 -0.58
4 -0.58
5 -0.58
6 0.15
7 0.23
9 0.28

> <PUBCHEM_EFFECTIVE_ROTOR_COUNT>
6

> <PUBCHEM_PHARMACOPHORE_FEATURES>
1
1 8 hydrophobe

> <PUBCHEM_HEAVY_ATOM_COUNT>
11

> <PUBCHEM_ATOM_DEF_STEREO_COUNT>
0

> <PUBCHEM_ATOM_UDEF_STEREO_COUNT>
0

> <PUBCHEM_BOND_DEF_STEREO_COUNT>
0

> <PUBCHEM_BOND_UDEF_STEREO_COUNT>
0

> <PUBCHEM_ISOTOPIC_ATOM_COUNT>
0

> <PUBCHEM_COMPONENT_COUNT>
1

> <PUBCHEM_CACTVS_TAUTO_COUNT>
1

> <PUBCHEM_CONFORMER_ID>
00BE808E00000002

> <PUBCHEM_MMFF94_ENERGY>
13.6963

> <PUBCHEM_FEATURE_SELFOVERLAP>
5.074

> <PUBCHEM_SHAPE_FINGERPRINT>
10680689 15 18201162075153333638
12423570 1 12154543674731777133
12932764 1 17917157109117776726
13024252 1 17967816020345022197
14817 1 11866936867701947929
18342897 96 18192707839225174493
187816 3 18187916275194222815
20711985 344 18337094675403266832
20871998 184 18270694064331657093
21061003 4 18190192345678135369
21339142 36 18187084013453477307
21524375 3 17689713056623684384
2306618 200 17489301945724181650
23211744 41 17473563355896082513
23402539 116 18409159996081624271
23419403 2 17752487830839207125
23526113 38 17899113182154207749
3248919 1 18114466674066744110
5084963 1 17418083339240588182

> <PUBCHEM_SHAPE_MULTIPOLES>
230.83
5.87
1.84
1.62
9.51
1.75
0.15
-1.96
0.06
-1.43
-0.05
-1.7
-0.82
0.02

> <PUBCHEM_SHAPE_SELFOVERLAP>
394.086

> <PUBCHEM_SHAPE_VOLUME>
156.4

> <PUBCHEM_COORDINATE_TYPE>
2
5
10

$$$$
