17903
  -OEChem-11012401163D

 31 31  0     0  0  0  0  0  0999 V2000
   -1.2984   -2.3853    0.3318 O   0  0  0  0  0  0  0  0  0  0  0  0
    2.1215    1.8958   -0.2961 O   0  0  0  0  0  0  0  0  0  0  0  0
    3.0979   -0.7057   -0.3524 O   0  0  0  0  0  0  0  0  0  0  0  0
   -0.9568   -0.0099    0.2065 C   0  0  0  0  0  0  0  0  0  0  0  0
   -0.4669   -1.3156    0.1783 C   0  0  0  0  0  0  0  0  0  0  0  0
    1.2789    0.8367   -0.1411 C   0  0  0  0  0  0  0  0  0  0  0  0
    1.7691   -0.4690   -0.1693 C   0  0  0  0  0  0  0  0  0  0  0  0
   -0.0840    1.0663    0.0468 C   0  0  0  0  0  0  0  0  0  0  0  0
    0.8961   -1.5453   -0.0096 C   0  0  0  0  0  0  0  0  0  0  0  0
   -2.3759    0.2556    0.4015 C   0  0  0  0  0  0  0  0  0  0  0  0
   -3.0515    1.3265   -0.0698 C   0  0  0  0  0  0  0  0  0  0  0  0
   -1.8730   -2.9331   -0.8524 C   0  0  0  0  0  0  0  0  0  0  0  0
    1.5405    3.1977   -0.2548 C   0  0  0  0  0  0  0  0  0  0  0  0
   -4.5085    1.5629    0.1631 C   0  0  0  0  0  0  0  0  0  0  0  0
    3.9109   -0.7776    0.8173 C   0  0  0  0  0  0  0  0  0  0  0  0
   -0.4916    2.0687    0.1015 H   0  0  0  0  0  0  0  0  0  0  0  0
    1.2786   -2.5627   -0.0315 H   0  0  0  0  0  0  0  0  0  0  0  0
   -2.9238   -0.4825    0.9832 H   0  0  0  0  0  0  0  0  0  0  0  0
   -2.5543    2.0782   -0.6763 H   0  0  0  0  0  0  0  0  0  0  0  0
   -2.5371   -3.7522   -0.5631 H   0  0  0  0  0  0  0  0  0  0  0  0
   -1.0911   -3.3322   -1.5064 H   0  0  0  0  0  0  0  0  0  0  0  0
   -2.4603   -2.1804   -1.3875 H   0  0  0  0  0  0  0  0  0  0  0  0
    1.1024    3.4140    0.7256 H   0  0  0  0  0  0  0  0  0  0  0  0
    0.8311    3.3512   -1.0753 H   0  0  0  0  0  0  0  0  0  0  0  0
    2.3535    3.9165   -0.4022 H   0  0  0  0  0  0  0  0  0  0  0  0
   -4.6526    2.5152    0.6825 H   0  0  0  0  0  0  0  0  0  0  0  0
   -5.0362    1.6090   -0.7943 H   0  0  0  0  0  0  0  0  0  0  0  0
   -4.9651    0.7723    0.7669 H   0  0  0  0  0  0  0  0  0  0  0  0
    3.5857   -1.6019    1.4600 H   0  0  0  0  0  0  0  0  0  0  0  0
    3.8757    0.1665    1.3701 H   0  0  0  0  0  0  0  0  0  0  0  0
    4.9429   -0.9626    0.5066 H   0  0  0  0  0  0  0  0  0  0  0  0
  1  5  1  0  0  0  0
  1 12  1  0  0  0  0
  2  6  1  0  0  0  0
  2 13  1  0  0  0  0
  3  7  1  0  0  0  0
  3 15  1  0  0  0  0
  4  5  1  0  0  0  0
  4  8  2  0  0  0  0
  4 10  1  0  0  0  0
  5  9  2  0  0  0  0
  6  7  2  0  0  0  0
  6  8  1  0  0  0  0
  7  9  1  0  0  0  0
  8 16  1  0  0  0  0
  9 17  1  0  0  0  0
 10 11  2  3  0  0  0
 10 18  1  0  0  0  0
 11 14  1  0  0  0  0
 11 19  1  0  0  0  0
 12 20  1  0  0  0  0
 12 21  1  0  0  0  0
 12 22  1  0  0  0  0
 13 23  1  0  0  0  0
 13 24  1  0  0  0  0
 13 25  1  0  0  0  0
 14 26  1  0  0  0  0
 14 27  1  0  0  0  0
 14 28  1  0  0  0  0
 15 29  1  0  0  0  0
 15 30  1  0  0  0  0
 15 31  1  0  0  0  0
M  END
> <PUBCHEM_COMPOUND_CID>
17903

> <PUBCHEM_CONFORMER_RMSD>
0.6

> <PUBCHEM_CONFORMER_DIVERSEORDER>
5
8
7
9
1
6
3
2
4

> <PUBCHEM_MMFF94_PARTIAL_CHARGES>
19
1 -0.36
10 -0.18
11 -0.29
12 0.28
13 0.28
14 0.14
15 0.28
16 0.15
17 0.15
18 0.15
19 0.15
2 -0.36
3 -0.36
4 0.03
5 0.08
6 0.08
7 0.08
8 -0.15
9 -0.15

> <PUBCHEM_EFFECTIVE_ROTOR_COUNT>
4

> <PUBCHEM_PHARMACOPHORE_FEATURES>
5
1 1 acceptor
1 14 hydrophobe
1 2 acceptor
1 3 acceptor
6 4 5 6 7 8 9 rings

> <PUBCHEM_HEAVY_ATOM_COUNT>
15

> <PUBCHEM_ATOM_DEF_STEREO_COUNT>
0

> <PUBCHEM_ATOM_UDEF_STEREO_COUNT>
0

> <PUBCHEM_BOND_DEF_STEREO_COUNT>
0

> <PUBCHEM_BOND_UDEF_STEREO_COUNT>
1

> <PUBCHEM_ISOTOPIC_ATOM_COUNT>
0

> <PUBCHEM_COMPONENT_COUNT>
1

> <PUBCHEM_CACTVS_TAUTO_COUNT>
1

> <PUBCHEM_CONFORMER_ID>
000045EF00000005

> <PUBCHEM_MMFF94_ENERGY>
69.3476

> <PUBCHEM_FEATURE_SELFOVERLAP>
25.376

> <PUBCHEM_SHAPE_FINGERPRINT>
1 1 18264773169000005151
10756046 5 18268158723925651860
10967382 1 18265899064052698152
11471102 20 18192993712839168429
12507560 14 18266735779685364930
13140716 1 18409165553895951440
13380535 76 18341612568824158023
13380536 305 18338524040756440389
13380536 55 18122626325275006148
13836976 161 18338797815336733693
13922767 16 18337390444104906985
14251717 144 18266458711804139837
14648413 74 18337116773225925184
14911166 2 18339653230571107438
14993402 34 18339085869575490062
15279308 100 18337965553089482020
15442244 35 18409726304794429338
16945 1 18340780255643421162
18186145 218 18270970050852028685
18511873 20 18408602539502085776
193761 8 18266461103510047432
20233049 118 18042127557238000012
20511035 2 18043270078604636629
20606313 2 18265336101536342741
20645476 183 17460063779700199126
20671657 1 18335709380899317332
20711985 365 18340485693996694935
21501502 16 18265613367286659428
21524375 3 18334016051946592131
22094290 62 18408888433905549105
2334 1 18194405730096721144
23402539 116 18199173006403943566
23402655 69 18123742064138870933
23419403 2 16756270879180060858
23552423 10 18118968233204834182
23558518 356 18117276075898051195
23559900 14 18272095972808428806
2748010 2 18267312108461874316
3060560 45 18268145353950844271
34934 24 18408601440476040482
350125 39 18266185117591250961
4072396 5 17972304127946261097
57177213 63 17685783818946502412
58051976 378 18270678663449092525
589210 1 18194120939263002109
69090 78 18411696574044807387
7164475 11 18197489843191467799
74978 22 18410576222913905900
7832392 63 18410572907457564242
81228 2 17974845378891767707

> <PUBCHEM_SHAPE_MULTIPOLES>
291.09
5.86
3.2
0.74
2.03
0.03
0
1.79
-0.75
0.46
0.66
-0.07
-0.15
-0.6

> <PUBCHEM_SHAPE_SELFOVERLAP>
593.896

> <PUBCHEM_SHAPE_VOLUME>
170.8

> <PUBCHEM_COORDINATE_TYPE>
2
5
10

$$$$
