74090
  -OEChem-11012401063D

 21 21  0     0  0  0  0  0  0999 V2000
    0.8890    1.7770   -0.3520 O   0  0  0  0  0  0  0  0  0  0  0  0
    3.5052    0.8040   -0.1026 O   0  0  0  0  0  0  0  0  0  0  0  0
    1.5222   -0.4209    0.0853 N   0  0  0  0  0  0  0  0  0  0  0  0
   -0.8279    0.2099   -0.0580 C   0  0  0  0  0  0  0  0  0  0  0  0
   -1.7922    1.1519    0.3002 C   0  0  0  0  0  0  0  0  0  0  0  0
   -1.2067   -1.1015   -0.3446 C   0  0  0  0  0  0  0  0  0  0  0  0
    0.5725    0.5947   -0.1324 C   0  0  0  0  0  0  0  0  0  0  0  0
   -3.1354    0.7825    0.3720 C   0  0  0  0  0  0  0  0  0  0  0  0
   -2.5499   -1.4710   -0.2730 C   0  0  0  0  0  0  0  0  0  0  0  0
   -3.5142   -0.5290    0.0852 C   0  0  0  0  0  0  0  0  0  0  0  0
    2.9059   -0.2510    0.0857 C   0  0  0  0  0  0  0  0  0  0  0  0
    3.6315   -1.5464    0.3341 C   0  0  0  0  0  0  0  0  0  0  0  0
   -1.5178    2.1778    0.5318 H   0  0  0  0  0  0  0  0  0  0  0  0
   -0.4965   -1.8592   -0.6618 H   0  0  0  0  0  0  0  0  0  0  0  0
   -3.8864    1.5157    0.6516 H   0  0  0  0  0  0  0  0  0  0  0  0
   -2.8466   -2.4900   -0.5040 H   0  0  0  0  0  0  0  0  0  0  0  0
    1.1907   -1.3550    0.3069 H   0  0  0  0  0  0  0  0  0  0  0  0
   -4.5602   -0.8162    0.1394 H   0  0  0  0  0  0  0  0  0  0  0  0
    3.3927   -2.2626   -0.4572 H   0  0  0  0  0  0  0  0  0  0  0  0
    3.3349   -1.9590    1.3026 H   0  0  0  0  0  0  0  0  0  0  0  0
    4.7106   -1.3698    0.3401 H   0  0  0  0  0  0  0  0  0  0  0  0
  1  7  2  0  0  0  0
  2 11  2  0  0  0  0
  3  7  1  0  0  0  0
  3 11  1  0  0  0  0
  3 17  1  0  0  0  0
  4  5  2  0  0  0  0
  4  6  1  0  0  0  0
  4  7  1  0  0  0  0
  5  8  1  0  0  0  0
  5 13  1  0  0  0  0
  6  9  2  0  0  0  0
  6 14  1  0  0  0  0
  8 10  2  0  0  0  0
  8 15  1  0  0  0  0
  9 10  1  0  0  0  0
  9 16  1  0  0  0  0
 10 18  1  0  0  0  0
 11 12  1  0  0  0  0
 12 19  1  0  0  0  0
 12 20  1  0  0  0  0
 12 21  1  0  0  0  0
M  END
> <PUBCHEM_COMPOUND_CID>
74090

> <PUBCHEM_CONFORMER_RMSD>
0.6

> <PUBCHEM_CONFORMER_DIVERSEORDER>
1
2
3

> <PUBCHEM_MMFF94_PARTIAL_CHARGES>
18
1 -0.57
10 -0.15
11 0.57
12 0.06
13 0.15
14 0.15
15 0.15
16 0.15
17 0.37
18 0.15
2 -0.57
3 -0.49
4 0.09
5 -0.15
6 -0.15
7 0.54
8 -0.15
9 -0.15

> <PUBCHEM_EFFECTIVE_ROTOR_COUNT>
3

> <PUBCHEM_PHARMACOPHORE_FEATURES>
4
1 1 acceptor
1 2 acceptor
1 3 donor
6 4 5 6 8 9 10 rings

> <PUBCHEM_HEAVY_ATOM_COUNT>
12

> <PUBCHEM_ATOM_DEF_STEREO_COUNT>
0

> <PUBCHEM_ATOM_UDEF_STEREO_COUNT>
0

> <PUBCHEM_BOND_DEF_STEREO_COUNT>
0

> <PUBCHEM_BOND_UDEF_STEREO_COUNT>
0

> <PUBCHEM_ISOTOPIC_ATOM_COUNT>
0

> <PUBCHEM_COMPONENT_COUNT>
1

> <PUBCHEM_CACTVS_TAUTO_COUNT>
3

> <PUBCHEM_CONFORMER_ID>
0001216A00000001

> <PUBCHEM_MMFF94_ENERGY>
31.5066

> <PUBCHEM_FEATURE_SELFOVERLAP>
20.301

> <PUBCHEM_SHAPE_FINGERPRINT>
11769659 78 18412257363297427895
12032990 46 18409172082167262626
12932764 1 17676480610487360838
13024252 1 15646772284779403381
13296908 3 18334855000471700746
13690532 89 18410570678549035127
14144814 61 18411700988875483906
14325111 11 18411982450998954104
15442244 35 18339081493120100360
15669948 3 18131066090614690222
16945 1 18342188747587619717
17804303 29 18272937089685295162
18186145 218 16660364770730261498
18511873 20 18411140216813373081
19422 9 18408326575016063946
20645477 70 18336540538712226326
207724 885 18334016085942444025
20871998 184 17988927820572666503
22485316 2 18335697230705193034
23402539 116 17988353798694611885
23463225 33 18410292467504960766
23552423 10 18191870252130663765
23559900 14 18201996612810371904
2748010 2 17764322647625336749
7364860 26 18126565849799749792

> <PUBCHEM_SHAPE_MULTIPOLES>
230.23
6.57
1.6
0.65
3.25
0.05
-0.01
1.53
-0.66
0.05
0.06
-0.06
0.02
-0.47

> <PUBCHEM_SHAPE_SELFOVERLAP>
476.321

> <PUBCHEM_SHAPE_VOLUME>
131.1

> <PUBCHEM_COORDINATE_TYPE>
2
5
10

$$$$
