65723
  -OEChem-11012401223D

 19 19  0     0  0  0  0  0  0999 V2000
    1.3940    0.0142   -0.4481 S   0  0  0  0  0  0  0  0  0  0  0  0
    1.7559    1.2827   -1.0689 O   0  0  0  0  0  0  0  0  0  0  0  0
    1.7397   -1.2375   -1.1112 O   0  0  0  0  0  0  0  0  0  0  0  0
    1.9823    0.0003    1.1716 N   0  0  0  0  0  0  0  0  0  0  0  0
    3.3605   -0.0454    1.0918 N   0  0  0  0  0  0  0  0  0  0  0  0
   -0.3290    0.0049   -0.1654 C   0  0  0  0  0  0  0  0  0  0  0  0
   -1.0218    1.2092   -0.0405 C   0  0  0  0  0  0  0  0  0  0  0  0
   -1.0127   -1.2068   -0.0642 C   0  0  0  0  0  0  0  0  0  0  0  0
   -2.3981    1.2019    0.1858 C   0  0  0  0  0  0  0  0  0  0  0  0
   -2.3891   -1.2140    0.1621 C   0  0  0  0  0  0  0  0  0  0  0  0
   -3.0817   -0.0097    0.2871 C   0  0  0  0  0  0  0  0  0  0  0  0
   -0.5085    2.1641   -0.1092 H   0  0  0  0  0  0  0  0  0  0  0  0
   -0.4929   -2.1568   -0.1509 H   0  0  0  0  0  0  0  0  0  0  0  0
    1.6895    0.7821    1.7729 H   0  0  0  0  0  0  0  0  0  0  0  0
   -2.9374    2.1394    0.2850 H   0  0  0  0  0  0  0  0  0  0  0  0
   -2.9215   -2.1572    0.2427 H   0  0  0  0  0  0  0  0  0  0  0  0
   -4.1532   -0.0154    0.4641 H   0  0  0  0  0  0  0  0  0  0  0  0
    3.6962   -0.1783    2.0449 H   0  0  0  0  0  0  0  0  0  0  0  0
    3.6699    0.8856    0.8133 H   0  0  0  0  0  0  0  0  0  0  0  0
  1  2  2  0  0  0  0
  1  3  2  0  0  0  0
  1  4  1  0  0  0  0
  1  6  1  0  0  0  0
  4  5  1  0  0  0  0
  4 14  1  0  0  0  0
  5 18  1  0  0  0  0
  5 19  1  0  0  0  0
  6  7  2  0  0  0  0
  6  8  1  0  0  0  0
  7  9  1  0  0  0  0
  7 12  1  0  0  0  0
  8 10  2  0  0  0  0
  8 13  1  0  0  0  0
  9 11  2  0  0  0  0
  9 15  1  0  0  0  0
 10 11  1  0  0  0  0
 10 16  1  0  0  0  0
 11 17  1  0  0  0  0
M  END
> <PUBCHEM_COMPOUND_CID>
65723

> <PUBCHEM_CONFORMER_RMSD>
0.4

> <PUBCHEM_CONFORMER_DIVERSEORDER>
1
2
3

> <PUBCHEM_MMFF94_PARTIAL_CHARGES>
19
1 1.45
10 -0.15
11 -0.15
12 0.15
13 0.15
14 0.42
15 0.15
16 0.15
17 0.15
18 0.36
19 0.36
2 -0.65
3 -0.65
4 -0.63
5 -0.65
6 -0.01
7 -0.15
8 -0.15
9 -0.15

> <PUBCHEM_EFFECTIVE_ROTOR_COUNT>
2

> <PUBCHEM_PHARMACOPHORE_FEATURES>
4
1 2 acceptor
1 3 acceptor
1 4 donor
6 6 7 8 9 10 11 rings

> <PUBCHEM_HEAVY_ATOM_COUNT>
11

> <PUBCHEM_ATOM_DEF_STEREO_COUNT>
0

> <PUBCHEM_ATOM_UDEF_STEREO_COUNT>
0

> <PUBCHEM_BOND_DEF_STEREO_COUNT>
0

> <PUBCHEM_BOND_UDEF_STEREO_COUNT>
0

> <PUBCHEM_ISOTOPIC_ATOM_COUNT>
0

> <PUBCHEM_COMPONENT_COUNT>
1

> <PUBCHEM_CACTVS_TAUTO_COUNT>
1

> <PUBCHEM_CONFORMER_ID>
000100BB00000001

> <PUBCHEM_MMFF94_ENERGY>
11.9423

> <PUBCHEM_FEATURE_SELFOVERLAP>
20.315

> <PUBCHEM_SHAPE_FINGERPRINT>
10857977 72 18343303708065059859
12716758 59 18270688549999687971
12932764 1 17240493506687768317
15219456 202 17917711262529737346
15310529 11 16371014017994355749
16945 1 18260836947326516295
20201158 50 17989483017756359091
20645464 45 17775564238806190283
21040471 1 18339651014484091925
23552423 10 18334587827752150575
2748010 2 17903928751426900437
3248919 1 18411985762698262349
369184 2 17240765111935134037
5084963 1 18198920127345720415

> <PUBCHEM_SHAPE_MULTIPOLES>
208.52
4.63
1.39
0.99
0.88
0.01
0.05
-0.03
1.12
-0.49
-0.22
0.83
-0.01
-0.02

> <PUBCHEM_SHAPE_SELFOVERLAP>
415.77

> <PUBCHEM_SHAPE_VOLUME>
123.4

> <PUBCHEM_COORDINATE_TYPE>
2
5
10

$$$$
