136460
  -OEChem-11012401083D

 26 25  0     1  0  0  0  0  0999 V2000
    0.5171   -1.3386   -1.1174 O   0  0  0  0  0  0  0  0  0  0  0  0
   -0.5135    1.3289   -1.1210 O   0  0  0  0  0  0  0  0  0  0  0  0
    2.0680    1.0261    1.2089 O   0  0  0  0  0  0  0  0  0  0  0  0
   -2.0656   -1.0237    1.2164 O   0  0  0  0  0  0  0  0  0  0  0  0
    4.3593    0.1200   -0.0766 O   0  0  0  0  0  0  0  0  0  0  0  0
   -4.3713   -0.1016   -0.0822 O   0  0  0  0  0  0  0  0  0  0  0  0
    0.6069   -0.4761    0.0163 C   0  0  2  0  0  0  0  0  0  0  0  0
   -0.6046    0.4714    0.0162 C   0  0  2  0  0  0  0  0  0  0  0  0
    1.9641    0.2556    0.0047 C   0  0  2  0  0  0  0  0  0  0  0  0
   -1.9623   -0.2595    0.0083 C   0  0  2  0  0  0  0  0  0  0  0  0
    3.1756   -0.6732   -0.0373 C   0  0  0  0  0  0  0  0  0  0  0  0
   -3.1738    0.6707   -0.0362 C   0  0  0  0  0  0  0  0  0  0  0  0
    0.5560   -1.1091    0.9101 H   0  0  0  0  0  0  0  0  0  0  0  0
   -0.5444    1.1012    0.9128 H   0  0  0  0  0  0  0  0  0  0  0  0
    2.0190    0.9528   -0.8396 H   0  0  0  0  0  0  0  0  0  0  0  0
   -2.0198   -0.9579   -0.8349 H   0  0  0  0  0  0  0  0  0  0  0  0
    3.1658   -1.3237   -0.9167 H   0  0  0  0  0  0  0  0  0  0  0  0
    3.2286   -1.2928    0.8633 H   0  0  0  0  0  0  0  0  0  0  0  0
   -3.1608    1.3014   -0.9290 H   0  0  0  0  0  0  0  0  0  0  0  0
   -3.2216    1.3134    0.8491 H   0  0  0  0  0  0  0  0  0  0  0  0
    0.5547   -0.7815   -1.9138 H   0  0  0  0  0  0  0  0  0  0  0  0
   -1.1039    2.0858   -0.9694 H   0  0  0  0  0  0  0  0  0  0  0  0
    2.9170    1.4996    1.1790 H   0  0  0  0  0  0  0  0  0  0  0  0
   -2.8142   -1.6352    1.1135 H   0  0  0  0  0  0  0  0  0  0  0  0
    4.3311    0.6471   -0.8934 H   0  0  0  0  0  0  0  0  0  0  0  0
   -4.4802   -0.5256    0.7856 H   0  0  0  0  0  0  0  0  0  0  0  0
  1  7  1  0  0  0  0
  1 21  1  0  0  0  0
  2  8  1  0  0  0  0
  2 22  1  0  0  0  0
  3  9  1  0  0  0  0
  3 23  1  0  0  0  0
  4 10  1  0  0  0  0
  4 24  1  0  0  0  0
  5 11  1  0  0  0  0
  5 25  1  0  0  0  0
  6 12  1  0  0  0  0
  6 26  1  0  0  0  0
  7  8  1  0  0  0  0
  7  9  1  0  0  0  0
  7 13  1  0  0  0  0
  8 10  1  0  0  0  0
  8 14  1  0  0  0  0
  9 11  1  0  0  0  0
  9 15  1  0  0  0  0
 10 12  1  0  0  0  0
 10 16  1  0  0  0  0
 11 17  1  0  0  0  0
 11 18  1  0  0  0  0
 12 19  1  0  0  0  0
 12 20  1  0  0  0  0
M  END
> <PUBCHEM_COMPOUND_CID>
136460

> <PUBCHEM_CONFORMER_RMSD>
0.6

> <PUBCHEM_CONFORMER_DIVERSEORDER>
4
1
21
11
18
3
16
12
8
15
20
17
6
7
10
19
5
2
13
9
14

> <PUBCHEM_MMFF94_PARTIAL_CHARGES>
18
1 -0.68
10 0.28
11 0.28
12 0.28
2 -0.68
21 0.4
22 0.4
23 0.4
24 0.4
25 0.4
26 0.4
3 -0.68
4 -0.68
5 -0.68
6 -0.68
7 0.28
8 0.28
9 0.28

> <PUBCHEM_EFFECTIVE_ROTOR_COUNT>
5

> <PUBCHEM_PHARMACOPHORE_FEATURES>
12
1 1 acceptor
1 1 donor
1 2 acceptor
1 2 donor
1 3 acceptor
1 3 donor
1 4 acceptor
1 4 donor
1 5 acceptor
1 5 donor
1 6 acceptor
1 6 donor

> <PUBCHEM_HEAVY_ATOM_COUNT>
12

> <PUBCHEM_ATOM_DEF_STEREO_COUNT>
4

> <PUBCHEM_ATOM_UDEF_STEREO_COUNT>
0

> <PUBCHEM_BOND_DEF_STEREO_COUNT>
0

> <PUBCHEM_BOND_UDEF_STEREO_COUNT>
0

> <PUBCHEM_ISOTOPIC_ATOM_COUNT>
0

> <PUBCHEM_COMPONENT_COUNT>
1

> <PUBCHEM_CACTVS_TAUTO_COUNT>
1

> <PUBCHEM_CONFORMER_ID>
0002150C00000004

> <PUBCHEM_MMFF94_ENERGY>
27.446

> <PUBCHEM_FEATURE_SELFOVERLAP>
60.925

> <PUBCHEM_SHAPE_FINGERPRINT>
10219947 1 18412267237406006077
10857977 72 18187362172551658177
11062470 55 15285359513487706141
12932764 1 18337935836236939622
14325111 11 17988920106431243520
14993402 34 14979951458743778833
15775835 57 18273492381865132110
18175812 5 18410856593999528039
20201158 50 18411421678699622371
20645477 70 18201440208297867910
23402539 116 18259977172404840799
265663 24 15841832243893965637
5084963 1 18408040697856071960
75552 356 17894917338492711315

> <PUBCHEM_SHAPE_MULTIPOLES>
211.74
6.62
1.1
0.94
0.04
0
0.05
-0.02
0.39
-0.01
-0.08
0
0
0.48

> <PUBCHEM_SHAPE_SELFOVERLAP>
396.983

> <PUBCHEM_SHAPE_VOLUME>
131.4

> <PUBCHEM_COORDINATE_TYPE>
2
5
10

$$$$
