136146
  -OEChem-11012400553D

 51 51  0     0  0  0  0  0  0999 V2000
    3.3551   -0.8215   -0.3534 C   0  0  0  0  0  0  0  0  0  0  0  0
    2.8747   -1.4564    0.9550 C   0  0  0  0  0  0  0  0  0  0  0  0
    2.5629    0.4017   -0.8237 C   0  0  0  0  0  0  0  0  0  0  0  0
    1.4186   -1.9352    0.9687 C   0  0  0  0  0  0  0  0  0  0  0  0
    2.6828    1.5969    0.1254 C   0  0  0  0  0  0  0  0  0  0  0  0
    1.0889   -2.9028   -0.1706 C   0  0  0  0  0  0  0  0  0  0  0  0
    2.1063    2.8858   -0.4706 C   0  0  0  0  0  0  0  0  0  0  0  0
   -0.2520   -3.6225   -0.0016 C   0  0  0  0  0  0  0  0  0  0  0  0
    0.5862    2.8924   -0.6632 C   0  0  0  0  0  0  0  0  0  0  0  0
   -1.4810   -2.7255    0.1690 C   0  0  0  0  0  0  0  0  0  0  0  0
   -0.1794    2.9469    0.6617 C   0  0  0  0  0  0  0  0  0  0  0  0
   -1.6758   -1.7212   -0.9696 C   0  0  0  0  0  0  0  0  0  0  0  0
   -1.6859    3.1501    0.4690 C   0  0  0  0  0  0  0  0  0  0  0  0
   -3.0516   -1.0448   -0.9524 C   0  0  0  0  0  0  0  0  0  0  0  0
   -2.4351    1.9525   -0.1253 C   0  0  0  0  0  0  0  0  0  0  0  0
   -3.4352   -0.3490    0.3570 C   0  0  0  0  0  0  0  0  0  0  0  0
   -2.4796    0.7525    0.8244 C   0  0  0  0  0  0  0  0  0  0  0  0
    3.3385   -1.5755   -1.1495 H   0  0  0  0  0  0  0  0  0  0  0  0
    4.4088   -0.5390   -0.2342 H   0  0  0  0  0  0  0  0  0  0  0  0
    3.5245   -2.3135    1.1737 H   0  0  0  0  0  0  0  0  0  0  0  0
    3.0204   -0.7513    1.7818 H   0  0  0  0  0  0  0  0  0  0  0  0
    1.5118    0.1340   -0.9687 H   0  0  0  0  0  0  0  0  0  0  0  0
    2.9481    0.6905   -1.8097 H   0  0  0  0  0  0  0  0  0  0  0  0
    1.2337   -2.4297    1.9305 H   0  0  0  0  0  0  0  0  0  0  0  0
    0.7502   -1.0681    0.9329 H   0  0  0  0  0  0  0  0  0  0  0  0
    3.7442    1.7723    0.3412 H   0  0  0  0  0  0  0  0  0  0  0  0
    2.2023    1.3744    1.0833 H   0  0  0  0  0  0  0  0  0  0  0  0
    1.0942   -2.3707   -1.1284 H   0  0  0  0  0  0  0  0  0  0  0  0
    1.8743   -3.6661   -0.2357 H   0  0  0  0  0  0  0  0  0  0  0  0
    2.5823    3.0706   -1.4419 H   0  0  0  0  0  0  0  0  0  0  0  0
    2.3892    3.7279    0.1732 H   0  0  0  0  0  0  0  0  0  0  0  0
   -0.4059   -4.2721   -0.8725 H   0  0  0  0  0  0  0  0  0  0  0  0
   -0.1890   -4.2884    0.8683 H   0  0  0  0  0  0  0  0  0  0  0  0
    0.2746    2.0253   -1.2534 H   0  0  0  0  0  0  0  0  0  0  0  0
    0.3274    3.7798   -1.2545 H   0  0  0  0  0  0  0  0  0  0  0  0
   -1.4123   -2.1984    1.1271 H   0  0  0  0  0  0  0  0  0  0  0  0
   -2.3640   -3.3737    0.2346 H   0  0  0  0  0  0  0  0  0  0  0  0
    0.0094    2.0461    1.2536 H   0  0  0  0  0  0  0  0  0  0  0  0
    0.1998    3.7911    1.2513 H   0  0  0  0  0  0  0  0  0  0  0  0
   -1.5637   -2.2364   -1.9316 H   0  0  0  0  0  0  0  0  0  0  0  0
   -0.8935   -0.9553   -0.9354 H   0  0  0  0  0  0  0  0  0  0  0  0
   -2.1316    3.4001    1.4400 H   0  0  0  0  0  0  0  0  0  0  0  0
   -1.8498    4.0224   -0.1759 H   0  0  0  0  0  0  0  0  0  0  0  0
   -3.8147   -1.8035   -1.1687 H   0  0  0  0  0  0  0  0  0  0  0  0
   -3.1001   -0.3265   -1.7792 H   0  0  0  0  0  0  0  0  0  0  0  0
   -3.4625    2.2722   -0.3399 H   0  0  0  0  0  0  0  0  0  0  0  0
   -1.9911    1.6653   -1.0838 H   0  0  0  0  0  0  0  0  0  0  0  0
   -3.5213   -1.0977    1.1535 H   0  0  0  0  0  0  0  0  0  0  0  0
   -4.4398    0.0770    0.2405 H   0  0  0  0  0  0  0  0  0  0  0  0
   -1.4753    0.3416    0.9668 H   0  0  0  0  0  0  0  0  0  0  0  0
   -2.8183    1.0923    1.8112 H   0  0  0  0  0  0  0  0  0  0  0  0
  1  2  1  0  0  0  0
  1  3  1  0  0  0  0
  1 18  1  0  0  0  0
  1 19  1  0  0  0  0
  2  4  1  0  0  0  0
  2 20  1  0  0  0  0
  2 21  1  0  0  0  0
  3  5  1  0  0  0  0
  3 22  1  0  0  0  0
  3 23  1  0  0  0  0
  4  6  1  0  0  0  0
  4 24  1  0  0  0  0
  4 25  1  0  0  0  0
  5  7  1  0  0  0  0
  5 26  1  0  0  0  0
  5 27  1  0  0  0  0
  6  8  1  0  0  0  0
  6 28  1  0  0  0  0
  6 29  1  0  0  0  0
  7  9  1  0  0  0  0
  7 30  1  0  0  0  0
  7 31  1  0  0  0  0
  8 10  1  0  0  0  0
  8 32  1  0  0  0  0
  8 33  1  0  0  0  0
  9 11  1  0  0  0  0
  9 34  1  0  0  0  0
  9 35  1  0  0  0  0
 10 12  1  0  0  0  0
 10 36  1  0  0  0  0
 10 37  1  0  0  0  0
 11 13  1  0  0  0  0
 11 38  1  0  0  0  0
 11 39  1  0  0  0  0
 12 14  1  0  0  0  0
 12 40  1  0  0  0  0
 12 41  1  0  0  0  0
 13 15  1  0  0  0  0
 13 42  1  0  0  0  0
 13 43  1  0  0  0  0
 14 16  1  0  0  0  0
 14 44  1  0  0  0  0
 14 45  1  0  0  0  0
 15 17  1  0  0  0  0
 15 46  1  0  0  0  0
 15 47  1  0  0  0  0
 16 17  1  0  0  0  0
 16 48  1  0  0  0  0
 16 49  1  0  0  0  0
 17 50  1  0  0  0  0
 17 51  1  0  0  0  0
M  END
> <PUBCHEM_COMPOUND_CID>
136146

> <PUBCHEM_CONFORMER_RMSD>
0.6

> <PUBCHEM_CONFORMER_DIVERSEORDER>
1
31
18
28
32
29
33
15
26
21
8
24
20
30
16
7
23
12
5
11
25
22
10
27
19
6
4
13
9
14
3
17
2

> <PUBCHEM_MMFF94_PARTIAL_CHARGES>
0

> <PUBCHEM_EFFECTIVE_ROTOR_COUNT>
3.4

> <PUBCHEM_PHARMACOPHORE_FEATURES>
0

> <PUBCHEM_HEAVY_ATOM_COUNT>
17

> <PUBCHEM_ATOM_DEF_STEREO_COUNT>
0

> <PUBCHEM_ATOM_UDEF_STEREO_COUNT>
0

> <PUBCHEM_BOND_DEF_STEREO_COUNT>
0

> <PUBCHEM_BOND_UDEF_STEREO_COUNT>
0

> <PUBCHEM_ISOTOPIC_ATOM_COUNT>
0

> <PUBCHEM_COMPONENT_COUNT>
1

> <PUBCHEM_CACTVS_TAUTO_COUNT>
1

> <PUBCHEM_CONFORMER_ID>
000213D200000001

> <PUBCHEM_MMFF94_ENERGY>
4.8426

> <PUBCHEM_FEATURE_SELFOVERLAP>
0

> <PUBCHEM_SHAPE_FINGERPRINT>
10616163 171 18049168765325149712
10759866 29 15018551631245737311
12038231 1 18338799987888493636
12156800 1 14871970783837726816
12539773 59 17703516575059704723
12553582 1 18410577266517242152
13122387 1 18123190104125304505
14114207 22 15890158125124190667
1420 336 18410578387640668120
14251705 54 17112699185667896768
14251711 518 18410575067483222726
14251745 187 17838334442908511336
14251757 5 18267048114624973558
14931854 50 17906171002990230180
15006816 218 15816782796460414188
17093844 170 16250813547167606113
17859628 37 17331399766494036015
19930381 70 18194123155814695795
20621476 7 17043178164981959769
20765182 20 17547050375258822633
20765182 5 18338785780854051616
21141583 151 17186454975520536828
23590187 86 16104731341257955686
2803657 2 18336533950495709598
3014063 31 16970267929767764719
3524813 1 16318080556047259044
44154327 71 17907583523608632473
58250162 1 18267292321753387304
59345606 82 15961175070076840665

> <PUBCHEM_SHAPE_MULTIPOLES>
349.85
5.46
5.44
1.01
0
0.45
0
-0.02
0.14
-0.03
-0.14
0.01
-0.08
-1.06

> <PUBCHEM_SHAPE_SELFOVERLAP>
647.335

> <PUBCHEM_SHAPE_VOLUME>
217.9

> <PUBCHEM_COORDINATE_TYPE>
2
5
10

$$$$
