142513
  -OEChem-11012400383D

 33 35  0     0  0  0  0  0  0999 V2000
    0.0000   -0.3724   -0.0121 S   0  0  0  0  0  0  0  0  0  0  0  0
   -0.0004   -1.0900   -1.2770 O   0  0  0  0  0  0  0  0  0  0  0  0
    0.0002   -1.1225    1.2339 O   0  0  0  0  0  0  0  0  0  0  0  0
    0.0001    3.9780    0.0045 O   0  0  0  0  0  0  0  0  0  0  0  0
    1.3661    0.6746    0.0013 C   0  0  0  0  0  0  0  0  0  0  0  0
   -1.3662    0.6748    0.0018 C   0  0  0  0  0  0  0  0  0  0  0  0
    2.6064   -0.0698    0.0018 C   0  0  0  0  0  0  0  0  0  0  0  0
   -2.6063   -0.0697    0.0022 C   0  0  0  0  0  0  0  0  0  0  0  0
    1.2741    2.0042    0.0068 C   0  0  0  0  0  0  0  0  0  0  0  0
   -1.2742    2.0042    0.0072 C   0  0  0  0  0  0  0  0  0  0  0  0
    0.0000    2.7497    0.0053 C   0  0  0  0  0  0  0  0  0  0  0  0
    3.2077   -0.4382    1.2100 C   0  0  0  0  0  0  0  0  0  0  0  0
   -3.2147   -0.4278   -1.2056 C   0  0  0  0  0  0  0  0  0  0  0  0
    3.2147   -0.4282   -1.2059 C   0  0  0  0  0  0  0  0  0  0  0  0
   -3.2077   -0.4386    1.2102 C   0  0  0  0  0  0  0  0  0  0  0  0
    4.4034   -1.1566    1.2106 C   0  0  0  0  0  0  0  0  0  0  0  0
   -4.4103   -1.1462   -1.2055 C   0  0  0  0  0  0  0  0  0  0  0  0
    4.4102   -1.1467   -1.2053 C   0  0  0  0  0  0  0  0  0  0  0  0
   -4.4032   -1.1571    1.2105 C   0  0  0  0  0  0  0  0  0  0  0  0
    5.0046   -1.5109    0.0029 C   0  0  0  0  0  0  0  0  0  0  0  0
   -5.0046   -1.5109    0.0025 C   0  0  0  0  0  0  0  0  0  0  0  0
    2.1729    2.6157    0.0127 H   0  0  0  0  0  0  0  0  0  0  0  0
   -2.1728    2.6159    0.0132 H   0  0  0  0  0  0  0  0  0  0  0  0
    2.7541   -0.1694    2.1613 H   0  0  0  0  0  0  0  0  0  0  0  0
   -2.7668   -0.1507   -2.1573 H   0  0  0  0  0  0  0  0  0  0  0  0
    2.7667   -0.1515   -2.1576 H   0  0  0  0  0  0  0  0  0  0  0  0
   -2.7542   -0.1701    2.1616 H   0  0  0  0  0  0  0  0  0  0  0  0
    4.8663   -1.4399    2.1513 H   0  0  0  0  0  0  0  0  0  0  0  0
   -4.8788   -1.4214   -2.1459 H   0  0  0  0  0  0  0  0  0  0  0  0
    4.8787   -1.4224   -2.1456 H   0  0  0  0  0  0  0  0  0  0  0  0
   -4.8663   -1.4408    2.1511 H   0  0  0  0  0  0  0  0  0  0  0  0
    5.9356   -2.0702    0.0032 H   0  0  0  0  0  0  0  0  0  0  0  0
   -5.9356   -2.0701    0.0028 H   0  0  0  0  0  0  0  0  0  0  0  0
  1  2  2  0  0  0  0
  1  3  2  0  0  0  0
  1  5  1  0  0  0  0
  1  6  1  0  0  0  0
  4 11  2  0  0  0  0
  5  7  1  0  0  0  0
  5  9  2  0  0  0  0
  6  8  1  0  0  0  0
  6 10  2  0  0  0  0
  7 12  2  0  0  0  0
  7 14  1  0  0  0  0
  8 13  2  0  0  0  0
  8 15  1  0  0  0  0
  9 11  1  0  0  0  0
  9 22  1  0  0  0  0
 10 11  1  0  0  0  0
 10 23  1  0  0  0  0
 12 16  1  0  0  0  0
 12 24  1  0  0  0  0
 13 17  1  0  0  0  0
 13 25  1  0  0  0  0
 14 18  2  0  0  0  0
 14 26  1  0  0  0  0
 15 19  2  0  0  0  0
 15 27  1  0  0  0  0
 16 20  2  0  0  0  0
 16 28  1  0  0  0  0
 17 21  2  0  0  0  0
 17 29  1  0  0  0  0
 18 20  1  0  0  0  0
 18 30  1  0  0  0  0
 19 21  1  0  0  0  0
 19 31  1  0  0  0  0
 20 32  1  0  0  0  0
 21 33  1  0  0  0  0
M  END
> <PUBCHEM_COMPOUND_CID>
142513

> <PUBCHEM_CONFORMER_RMSD>
0.6

> <PUBCHEM_CONFORMER_DIVERSEORDER>
1
2

> <PUBCHEM_MMFF94_PARTIAL_CHARGES>
33
1 1.33
10 -0.14
11 0.54
12 -0.15
13 -0.15
14 -0.15
15 -0.15
16 -0.15
17 -0.15
18 -0.15
19 -0.15
2 -0.65
20 -0.15
21 -0.15
22 0.15
23 0.15
24 0.15
25 0.15
26 0.15
27 0.15
28 0.15
29 0.15
3 -0.65
30 0.15
31 0.15
32 0.15
33 0.15
4 -0.57
5 -0.05
6 -0.05
7 0.03
8 0.03
9 -0.14

> <PUBCHEM_EFFECTIVE_ROTOR_COUNT>
2

> <PUBCHEM_PHARMACOPHORE_FEATURES>
6
1 2 acceptor
1 3 acceptor
1 4 acceptor
6 1 5 6 9 10 11 rings
6 7 12 14 16 18 20 rings
6 8 13 15 17 19 21 rings

> <PUBCHEM_HEAVY_ATOM_COUNT>
21

> <PUBCHEM_ATOM_DEF_STEREO_COUNT>
0

> <PUBCHEM_ATOM_UDEF_STEREO_COUNT>
0

> <PUBCHEM_BOND_DEF_STEREO_COUNT>
0

> <PUBCHEM_BOND_UDEF_STEREO_COUNT>
0

> <PUBCHEM_ISOTOPIC_ATOM_COUNT>
0

> <PUBCHEM_COMPONENT_COUNT>
1

> <PUBCHEM_CACTVS_TAUTO_COUNT>
1

> <PUBCHEM_CONFORMER_ID>
00022CB100000001

> <PUBCHEM_MMFF94_ENERGY>
65.2978

> <PUBCHEM_FEATURE_SELFOVERLAP>
30.466

> <PUBCHEM_SHAPE_FINGERPRINT>
10366900 7 17676481783456921339
11543360 7 15719397251859294626
11796584 16 17458339741215122851
12236239 1 17846501474220735787
12363563 72 18409735062074431852
12403259 118 12895064124410039851
12553582 1 18410859862475259238
12707595 3 18334294305312780419
12788726 201 18335145254667513218
12892183 10 15698001829335212142
13009979 54 17702956953822086459
13134695 92 18337670935739906789
13544653 18 18408040727546472108
13675066 3 15913334567411847191
13862211 1 18410852161593954054
14178342 30 17916601825380253049
15042514 8 18194969543259999897
15188451 53 17274812597918361111
15848700 24 18412825798103245942
15885798 251 18412265029871943664
16752209 62 18114173086786295722
17349148 13 17988650743621484503
17357779 13 18341315726354183973
17492 89 18053664965025173343
1798214 55 9223232953008028698
1813 80 18272097101340400685
18222031 100 18343300392197502031
19141452 34 17846499214640508015
193927 3 18410863161004789867
200 152 18040996224086628026
20028762 73 18058449975284172135
20645477 70 18265605671158913397
20671657 53 18408602595574342665
20832881 197 18333169475327678433
21041028 32 18412271644512495961
21304303 282 17395823524162240093
22182313 1 18266718303374526820
22950370 63 18410584984562871587
23175994 123 18335138709110921757
23402539 116 18412544275708049007
23557571 272 18128539271218103916
23559900 14 17386282211643369325
2748010 2 18339908372861479980
312423 11 18335714818812866380
314173 85 18342458127419551064
3286 77 18261673778812523893
38570 142 14188150384279684290
463206 1 18261107491285437947
465052 167 18339090379381464751
5104073 3 18413389830156681873
7495541 125 18188498002808342427
7970288 3 18410855464424226919
8863177 126 17825120448332468019

> <PUBCHEM_SHAPE_MULTIPOLES>
418.41
9.93
2.59
1.29
0
3.44
0
-8.35
0.01
0
0.01
0
-0.57
0

> <PUBCHEM_SHAPE_SELFOVERLAP>
911.872

> <PUBCHEM_SHAPE_VOLUME>
226.2

> <PUBCHEM_COORDINATE_TYPE>
2
5
10

$$$$
