5368324
  -OEChem-11012400463D

 27 28  0     0  0  0  0  0  0999 V2000
   -0.3843    1.8501   -0.7077 O   0  0  0  0  0  0  0  0  0  0  0  0
    2.3975   -2.3124   -0.4851 O   0  0  0  0  0  0  0  0  0  0  0  0
   -0.6683    0.5112   -0.4075 N   0  0  0  0  0  0  0  0  0  0  0  0
   -2.0298    0.1654   -0.1266 C   0  0  0  0  0  0  0  0  0  0  0  0
    1.6653   -0.0509   -0.1145 C   0  0  0  0  0  0  0  0  0  0  0  0
    0.3883   -0.3345   -0.4058 C   0  0  0  0  0  0  0  0  0  0  0  0
   -2.3438   -1.1469    0.1812 C   0  0  0  0  0  0  0  0  0  0  0  0
   -2.9998    1.1518   -0.1700 C   0  0  0  0  0  0  0  0  0  0  0  0
    2.6758   -1.1583   -0.1796 C   0  0  0  0  0  0  0  0  0  0  0  0
    2.1042    1.2787    0.2586 C   0  0  0  0  0  0  0  0  0  0  0  0
    4.0783   -0.7839    0.1544 C   0  0  0  0  0  0  0  0  0  0  0  0
    3.3903    1.5239    0.5425 C   0  0  0  0  0  0  0  0  0  0  0  0
   -3.6696   -1.4836    0.4540 C   0  0  0  0  0  0  0  0  0  0  0  0
   -4.3255    0.8150    0.1030 C   0  0  0  0  0  0  0  0  0  0  0  0
    4.3818    0.4772    0.4880 C   0  0  0  0  0  0  0  0  0  0  0  0
   -4.6604   -0.5028    0.4150 C   0  0  0  0  0  0  0  0  0  0  0  0
    0.1280   -1.3555   -0.6608 H   0  0  0  0  0  0  0  0  0  0  0  0
   -1.6126   -1.9447    0.2429 H   0  0  0  0  0  0  0  0  0  0  0  0
   -2.7707    2.1856   -0.4094 H   0  0  0  0  0  0  0  0  0  0  0  0
    1.4307    2.1105    0.4006 H   0  0  0  0  0  0  0  0  0  0  0  0
    4.8349   -1.5591    0.1191 H   0  0  0  0  0  0  0  0  0  0  0  0
    3.7139    2.5121    0.8514 H   0  0  0  0  0  0  0  0  0  0  0  0
   -3.9308   -2.5086    0.7011 H   0  0  0  0  0  0  0  0  0  0  0  0
   -5.0975    1.5785    0.0731 H   0  0  0  0  0  0  0  0  0  0  0  0
    5.4041    0.7461    0.7329 H   0  0  0  0  0  0  0  0  0  0  0  0
   -5.6926   -0.7647    0.6286 H   0  0  0  0  0  0  0  0  0  0  0  0
   -0.4818    1.8627   -1.6758 H   0  0  0  0  0  0  0  0  0  0  0  0
  1  3  1  0  0  0  0
  1 27  1  0  0  0  0
  2  9  2  0  0  0  0
  3  4  1  0  0  0  0
  3  6  1  0  0  0  0
  4  7  2  0  0  0  0
  4  8  1  0  0  0  0
  5  6  2  0  0  0  0
  5  9  1  0  0  0  0
  5 10  1  0  0  0  0
  6 17  1  0  0  0  0
  7 13  1  0  0  0  0
  7 18  1  0  0  0  0
  8 14  2  0  0  0  0
  8 19  1  0  0  0  0
  9 11  1  0  0  0  0
 10 12  2  0  0  0  0
 10 20  1  0  0  0  0
 11 15  2  0  0  0  0
 11 21  1  0  0  0  0
 12 15  1  0  0  0  0
 12 22  1  0  0  0  0
 13 16  2  0  0  0  0
 13 23  1  0  0  0  0
 14 16  1  0  0  0  0
 14 24  1  0  0  0  0
 15 25  1  0  0  0  0
 16 26  1  0  0  0  0
M  END
> <PUBCHEM_COMPOUND_CID>
5368324

> <PUBCHEM_CONFORMER_RMSD>
0.6

> <PUBCHEM_CONFORMER_DIVERSEORDER>
1
6
2
7
10
9
5
8
4
3

> <PUBCHEM_MMFF94_PARTIAL_CHARGES>
27
1 -0.38
10 -0.15
11 -0.14
12 -0.15
13 -0.15
14 -0.15
15 -0.15
16 -0.15
17 0.15
18 0.15
19 0.15
2 -0.57
20 0.15
21 0.15
22 0.15
23 0.15
24 0.15
25 0.15
26 0.15
27 0.4
3 -0.22
4 0.1
5 0.01
6 -0.05
7 -0.15
8 -0.15
9 0.54

> <PUBCHEM_EFFECTIVE_ROTOR_COUNT>
2

> <PUBCHEM_PHARMACOPHORE_FEATURES>
4
1 1 anion
1 2 acceptor
6 4 7 8 13 14 16 rings
6 5 9 10 11 12 15 rings

> <PUBCHEM_HEAVY_ATOM_COUNT>
16

> <PUBCHEM_ATOM_DEF_STEREO_COUNT>
0

> <PUBCHEM_ATOM_UDEF_STEREO_COUNT>
0

> <PUBCHEM_BOND_DEF_STEREO_COUNT>
1

> <PUBCHEM_BOND_UDEF_STEREO_COUNT>
0

> <PUBCHEM_ISOTOPIC_ATOM_COUNT>
0

> <PUBCHEM_COMPONENT_COUNT>
1

> <PUBCHEM_CACTVS_TAUTO_COUNT>
1

> <PUBCHEM_CONFORMER_ID>
0051EA0400000001

> <PUBCHEM_MMFF94_ENERGY>
53.8945

> <PUBCHEM_FEATURE_SELFOVERLAP>
20.297

> <PUBCHEM_SHAPE_FINGERPRINT>
10608611 8 18411133610895455749
1100329 8 14374513545662801259
11132069 177 18260266352289142565
11471102 20 18343861109079094140
11615757 297 17561367304735920177
12107183 9 17623862227478457363
12251169 10 18343864428603452447
12507560 40 18412826876171822157
13296908 3 18334013891293199135
13675066 3 18187089451287950465
14252887 29 18335709333712127722
14289901 80 18202560696271116995
14341114 176 18412833485905035752
14866123 147 16614210270294104314
15196674 1 18410292523059700930
15219456 202 18411980251954567135
15375358 24 18407758140357900043
15536298 74 18412827975430320235
17834072 33 18131063874817578319
17834074 16 18411982450956730098
1813 80 17095527292100912005
18186145 218 17967810535487194807
19050596 39 18413387656887047698
19141452 34 18410013260798425079
200 152 18060411439765865207
20279233 1 18409171008536143439
20645477 56 18260829251046257117
20645477 70 18130223765965900590
21065198 57 18411419492587441073
21065199 12 18411982464100101553
21267235 1 18410020939429849483
21501925 9 18260829336306961701
21637258 2 15864615182443781930
22485316 2 18334293158582983547
22854114 59 18272650172985014136
23402539 116 18113609101561100502
23557571 272 17821723905772377565
23559900 14 18409727318475211510
26918003 58 18411978052968287009
33824 294 18410854356765139730
3421961 26 18127411160005016566
3545911 37 18412265034251384913
42 15 18407761434507852937
4214541 1 18410292489101038577
449060 50 18342457066620768073
5104073 3 18410855447248548601
69090 78 18413103974793363375
77779 3 18411420617784496113
9709674 26 18410017653985947187

> <PUBCHEM_SHAPE_MULTIPOLES>
312.55
9.75
1.82
0.73
2.34
0.25
0.02
0.54
1.85
-0.53
-0.11
-0.04
-0.03
0.7

> <PUBCHEM_SHAPE_SELFOVERLAP>
671.442

> <PUBCHEM_SHAPE_VOLUME>
170.4

> <PUBCHEM_COORDINATE_TYPE>
2
5
10

$$$$
