5463072
  -OEChem-11012400423D

 19 18  0     0  0  0  0  0  0999 V2000
    2.2229   -0.0191    0.2232 N   0  0  0  0  0  0  0  0  0  0  0  0
    2.9272   -1.2726   -0.0030 C   0  0  0  0  0  0  0  0  0  0  0  0
    2.9819    1.2154    0.0880 C   0  0  0  0  0  0  0  0  0  0  0  0
    0.8124    0.0220   -0.0508 C   0  0  0  0  0  0  0  0  0  0  0  0
   -2.6733   -0.0700    0.4088 C   0  0  0  0  0  0  0  0  0  0  0  0
   -1.7585    0.1001   -0.5553 C   0  0  0  0  0  0  0  0  0  0  0  0
   -4.1467   -0.0326    0.1674 C   0  0  0  0  0  0  0  0  0  0  0  0
   -0.3659    0.0567   -0.2783 C   0  0  0  0  0  0  0  0  0  0  0  0
    3.8901   -1.2746    0.5182 H   0  0  0  0  0  0  0  0  0  0  0  0
    3.1098   -1.4219   -1.0722 H   0  0  0  0  0  0  0  0  0  0  0  0
    2.3449   -2.1202    0.3744 H   0  0  0  0  0  0  0  0  0  0  0  0
    2.4371    2.0580    0.5272 H   0  0  0  0  0  0  0  0  0  0  0  0
    3.1726    1.4343   -0.9678 H   0  0  0  0  0  0  0  0  0  0  0  0
    3.9432    1.1371    0.6064 H   0  0  0  0  0  0  0  0  0  0  0  0
   -2.3571   -0.2467    1.4344 H   0  0  0  0  0  0  0  0  0  0  0  0
   -2.0657    0.2770   -1.5810 H   0  0  0  0  0  0  0  0  0  0  0  0
   -4.6019    0.7627    0.7655 H   0  0  0  0  0  0  0  0  0  0  0  0
   -4.3907    0.1490   -0.8841 H   0  0  0  0  0  0  0  0  0  0  0  0
   -4.5966   -0.9854    0.4623 H   0  0  0  0  0  0  0  0  0  0  0  0
  1  2  1  0  0  0  0
  1  3  1  0  0  0  0
  1  4  1  0  0  0  0
  2  9  1  0  0  0  0
  2 10  1  0  0  0  0
  2 11  1  0  0  0  0
  3 12  1  0  0  0  0
  3 13  1  0  0  0  0
  3 14  1  0  0  0  0
  4  8  3  0  0  0  0
  5  6  2  0  0  0  0
  5  7  1  0  0  0  0
  5 15  1  0  0  0  0
  6  8  1  0  0  0  0
  6 16  1  0  0  0  0
  7 17  1  0  0  0  0
  7 18  1  0  0  0  0
  7 19  1  0  0  0  0
M  END
> <PUBCHEM_COMPOUND_CID>
5463072

> <PUBCHEM_CONFORMER_RMSD>
0.4

> <PUBCHEM_CONFORMER_DIVERSEORDER>
1

> <PUBCHEM_MMFF94_PARTIAL_CHARGES>
10
1 -0.8
15 0.15
16 0.15
2 0.37
3 0.37
4 0.06
5 -0.29
6 -0.09
7 0.14
8 -0.06

> <PUBCHEM_EFFECTIVE_ROTOR_COUNT>
0

> <PUBCHEM_PHARMACOPHORE_FEATURES>
2
1 1 cation
1 7 hydrophobe

> <PUBCHEM_HEAVY_ATOM_COUNT>
8

> <PUBCHEM_ATOM_DEF_STEREO_COUNT>
0

> <PUBCHEM_ATOM_UDEF_STEREO_COUNT>
0

> <PUBCHEM_BOND_DEF_STEREO_COUNT>
1

> <PUBCHEM_BOND_UDEF_STEREO_COUNT>
0

> <PUBCHEM_ISOTOPIC_ATOM_COUNT>
0

> <PUBCHEM_COMPONENT_COUNT>
1

> <PUBCHEM_CACTVS_TAUTO_COUNT>
1

> <PUBCHEM_CONFORMER_ID>
00535C2000000001

> <PUBCHEM_MMFF94_ENERGY>
6.1632

> <PUBCHEM_FEATURE_SELFOVERLAP>
10.148

> <PUBCHEM_SHAPE_FINGERPRINT>
11062470 55 18259984886029018953
12932764 1 17703780435916722013
14325111 11 18411699893917338175
20645477 70 18338229375830019751
20871998 22 18056199060380760326
3248919 1 17132114636768592383
5460574 1 12535349003988646181

> <PUBCHEM_SHAPE_MULTIPOLES>
159.66
6.97
1.01
0.69
3.32
0.04
-0.02
0.12
0.75
-1.18
0.02
0.15
0
0.07

> <PUBCHEM_SHAPE_SELFOVERLAP>
288.082

> <PUBCHEM_SHAPE_VOLUME>
101.4

> <PUBCHEM_COORDINATE_TYPE>
2
5
10

$$$$
