140290
  -OEChem-11012400543D

 68 73  0     0  0  0  0  0  0999 V2000
   -2.3305   -0.0010    0.1781 C   0  0  0  0  0  0  0  0  0  0  0  0
   -1.1497   -0.0053    1.1494 C   0  0  0  0  0  0  0  0  0  0  0  0
   -3.1939   -1.2930    0.4277 C   0  0  0  0  0  0  0  0  0  0  0  0
   -1.7741    0.0055   -1.2942 C   0  0  0  0  0  0  0  0  0  0  0  0
   -3.1947    1.2886    0.4379 C   0  0  0  0  0  0  0  0  0  0  0  0
   -0.3338    1.2614    0.9791 C   0  0  0  0  0  0  0  0  0  0  0  0
   -0.3337   -1.2703    0.9680 C   0  0  0  0  0  0  0  0  0  0  0  0
    0.9854    1.2582    0.7299 C   0  0  0  0  0  0  0  0  0  0  0  0
    0.9855   -1.2648    0.7185 C   0  0  0  0  0  0  0  0  0  0  0  0
   -3.8730   -1.7934   -0.6335 C   0  0  0  0  0  0  0  0  0  0  0  0
   -1.5389    1.2160   -1.8573 C   0  0  0  0  0  0  0  0  0  0  0  0
   -3.1906    1.7880    1.6982 C   0  0  0  0  0  0  0  0  0  0  0  0
   -3.1893   -1.8029    1.6838 C   0  0  0  0  0  0  0  0  0  0  0  0
   -1.5738   -1.1998   -1.8814 C   0  0  0  0  0  0  0  0  0  0  0  0
   -3.8738    1.7974   -0.6192 C   0  0  0  0  0  0  0  0  0  0  0  0
    1.7054   -0.0028    0.6065 C   0  0  0  0  0  0  0  0  0  0  0  0
    3.0289   -0.0018    0.3766 C   0  0  0  0  0  0  0  0  0  0  0  0
   -4.6381   -2.9387   -0.4124 C   0  0  0  0  0  0  0  0  0  0  0  0
   -1.0455    1.2219   -3.1620 C   0  0  0  0  0  0  0  0  0  0  0  0
   -3.9562    2.9309    1.9286 C   0  0  0  0  0  0  0  0  0  0  0  0
   -3.9542   -2.9482    1.9047 C   0  0  0  0  0  0  0  0  0  0  0  0
   -1.0802   -1.1937   -3.1861 C   0  0  0  0  0  0  0  0  0  0  0  0
   -4.6393    2.9404   -0.3887 C   0  0  0  0  0  0  0  0  0  0  0  0
   -4.6786   -3.5160    0.8565 C   0  0  0  0  0  0  0  0  0  0  0  0
   -0.8162    0.0172   -3.8263 C   0  0  0  0  0  0  0  0  0  0  0  0
   -4.6805    3.5071    0.8852 C   0  0  0  0  0  0  0  0  0  0  0  0
    3.7206    1.3083    0.2539 C   0  0  0  0  0  0  0  0  0  0  0  0
    3.7245   -1.3101    0.2575 C   0  0  0  0  0  0  0  0  0  0  0  0
    3.8228    1.8927   -0.9913 C   0  0  0  0  0  0  0  0  0  0  0  0
    4.2433   -1.8938    1.3944 C   0  0  0  0  0  0  0  0  0  0  0  0
    4.2377    1.8968    1.3889 C   0  0  0  0  0  0  0  0  0  0  0  0
    3.8287   -1.8978   -0.9859 C   0  0  0  0  0  0  0  0  0  0  0  0
    4.4720    3.1219   -1.1066 C   0  0  0  0  0  0  0  0  0  0  0  0
    4.8963   -3.1213    1.2827 C   0  0  0  0  0  0  0  0  0  0  0  0
    4.8868    3.1261    1.2735 C   0  0  0  0  0  0  0  0  0  0  0  0
    4.4816   -3.1254   -1.0974 C   0  0  0  0  0  0  0  0  0  0  0  0
    5.0040    3.7386    0.0257 C   0  0  0  0  0  0  0  0  0  0  0  0
    5.0153   -3.7371    0.0370 C   0  0  0  0  0  0  0  0  0  0  0  0
   -1.4065   -0.0097    2.2116 H   0  0  0  0  0  0  0  0  0  0  0  0
   -0.7857    2.2405    1.1015 H   0  0  0  0  0  0  0  0  0  0  0  0
   -0.7857   -2.2506    1.0800 H   0  0  0  0  0  0  0  0  0  0  0  0
    1.4695    2.2234    0.6451 H   0  0  0  0  0  0  0  0  0  0  0  0
    1.4697   -2.2291    0.6243 H   0  0  0  0  0  0  0  0  0  0  0  0
   -3.9748   -1.3196   -1.6029 H   0  0  0  0  0  0  0  0  0  0  0  0
   -1.6005    2.1791   -1.3657 H   0  0  0  0  0  0  0  0  0  0  0  0
   -2.7068    1.3635    2.5650 H   0  0  0  0  0  0  0  0  0  0  0  0
   -2.7057   -1.3854    2.5541 H   0  0  0  0  0  0  0  0  0  0  0  0
   -1.6456   -2.1708   -1.4070 H   0  0  0  0  0  0  0  0  0  0  0  0
   -3.9667    1.3351   -1.5949 H   0  0  0  0  0  0  0  0  0  0  0  0
   -5.2250   -3.3650   -1.2209 H   0  0  0  0  0  0  0  0  0  0  0  0
   -0.8164    2.1635   -3.6526 H   0  0  0  0  0  0  0  0  0  0  0  0
   -4.0013    3.3644    2.9236 H   0  0  0  0  0  0  0  0  0  0  0  0
   -3.9989   -3.3901    2.8959 H   0  0  0  0  0  0  0  0  0  0  0  0
   -0.8747   -2.1314   -3.6943 H   0  0  0  0  0  0  0  0  0  0  0  0
   -5.2247    3.3744   -1.1943 H   0  0  0  0  0  0  0  0  0  0  0  0
   -5.2821   -4.4020    1.0309 H   0  0  0  0  0  0  0  0  0  0  0  0
   -0.4206    0.0216   -4.8378 H   0  0  0  0  0  0  0  0  0  0  0  0
   -5.2840    4.3916    1.0667 H   0  0  0  0  0  0  0  0  0  0  0  0
    3.4115    1.4221   -1.8799 H   0  0  0  0  0  0  0  0  0  0  0  0
    4.1562   -1.4236    2.3698 H   0  0  0  0  0  0  0  0  0  0  0  0
    4.1523    1.4294    2.3657 H   0  0  0  0  0  0  0  0  0  0  0  0
    3.4162   -1.4311   -1.8760 H   0  0  0  0  0  0  0  0  0  0  0  0
    4.5629    3.5991   -2.0780 H   0  0  0  0  0  0  0  0  0  0  0  0
    5.3117   -3.5978    2.1659 H   0  0  0  0  0  0  0  0  0  0  0  0
    5.3009    3.6065    2.1552 H   0  0  0  0  0  0  0  0  0  0  0  0
    4.5740   -3.6052   -2.0673 H   0  0  0  0  0  0  0  0  0  0  0  0
    5.5092    4.6957   -0.0640 H   0  0  0  0  0  0  0  0  0  0  0  0
    5.5235   -4.6930   -0.0499 H   0  0  0  0  0  0  0  0  0  0  0  0
  1  2  1  0  0  0  0
  1  3  1  0  0  0  0
  1  4  1  0  0  0  0
  1  5  1  0  0  0  0
  2  6  1  0  0  0  0
  2  7  1  0  0  0  0
  2 39  1  0  0  0  0
  3 10  2  0  0  0  0
  3 13  1  0  0  0  0
  4 11  2  0  0  0  0
  4 14  1  0  0  0  0
  5 12  2  0  0  0  0
  5 15  1  0  0  0  0
  6  8  2  0  0  0  0
  6 40  1  0  0  0  0
  7  9  2  0  0  0  0
  7 41  1  0  0  0  0
  8 16  1  0  0  0  0
  8 42  1  0  0  0  0
  9 16  1  0  0  0  0
  9 43  1  0  0  0  0
 10 18  1  0  0  0  0
 10 44  1  0  0  0  0
 11 19  1  0  0  0  0
 11 45  1  0  0  0  0
 12 20  1  0  0  0  0
 12 46  1  0  0  0  0
 13 21  2  0  0  0  0
 13 47  1  0  0  0  0
 14 22  2  0  0  0  0
 14 48  1  0  0  0  0
 15 23  2  0  0  0  0
 15 49  1  0  0  0  0
 16 17  2  0  0  0  0
 17 27  1  0  0  0  0
 17 28  1  0  0  0  0
 18 24  2  0  0  0  0
 18 50  1  0  0  0  0
 19 25  2  0  0  0  0
 19 51  1  0  0  0  0
 20 26  2  0  0  0  0
 20 52  1  0  0  0  0
 21 24  1  0  0  0  0
 21 53  1  0  0  0  0
 22 25  1  0  0  0  0
 22 54  1  0  0  0  0
 23 26  1  0  0  0  0
 23 55  1  0  0  0  0
 24 56  1  0  0  0  0
 25 57  1  0  0  0  0
 26 58  1  0  0  0  0
 27 29  2  0  0  0  0
 27 31  1  0  0  0  0
 28 30  2  0  0  0  0
 28 32  1  0  0  0  0
 29 33  1  0  0  0  0
 29 59  1  0  0  0  0
 30 34  1  0  0  0  0
 30 60  1  0  0  0  0
 31 35  2  0  0  0  0
 31 61  1  0  0  0  0
 32 36  2  0  0  0  0
 32 62  1  0  0  0  0
 33 37  2  0  0  0  0
 33 63  1  0  0  0  0
 34 38  2  0  0  0  0
 34 64  1  0  0  0  0
 35 37  1  0  0  0  0
 35 65  1  0  0  0  0
 36 38  1  0  0  0  0
 36 66  1  0  0  0  0
 37 67  1  0  0  0  0
 38 68  1  0  0  0  0
M  END
> <PUBCHEM_COMPOUND_CID>
140290

> <PUBCHEM_CONFORMER_RMSD>
1

> <PUBCHEM_CONFORMER_DIVERSEORDER>
1

> <PUBCHEM_MMFF94_PARTIAL_CHARGES>
66
1 0.43
10 -0.15
11 -0.15
12 -0.15
13 -0.15
14 -0.15
15 -0.15
17 -0.06
18 -0.15
19 -0.15
2 0.28
20 -0.15
21 -0.15
22 -0.15
23 -0.15
24 -0.15
25 -0.15
26 -0.15
27 0.03
28 0.03
29 -0.15
3 -0.14
30 -0.15
31 -0.15
32 -0.15
33 -0.15
34 -0.15
35 -0.15
36 -0.15
37 -0.15
38 -0.15
4 -0.14
40 0.15
41 0.15
42 0.15
43 0.15
44 0.15
45 0.15
46 0.15
47 0.15
48 0.15
49 0.15
5 -0.14
50 0.15
51 0.15
52 0.15
53 0.15
54 0.15
55 0.15
56 0.15
57 0.15
58 0.15
59 0.15
6 -0.29
60 0.15
61 0.15
62 0.15
63 0.15
64 0.15
65 0.15
66 0.15
67 0.15
68 0.15
7 -0.29
8 -0.15
9 -0.15

> <PUBCHEM_EFFECTIVE_ROTOR_COUNT>
6.2

> <PUBCHEM_PHARMACOPHORE_FEATURES>
6
6 2 6 7 8 9 16 rings
6 27 29 31 33 35 37 rings
6 28 30 32 34 36 38 rings
6 3 10 13 18 21 24 rings
6 4 11 14 19 22 25 rings
6 5 12 15 20 23 26 rings

> <PUBCHEM_HEAVY_ATOM_COUNT>
38

> <PUBCHEM_ATOM_DEF_STEREO_COUNT>
0

> <PUBCHEM_ATOM_UDEF_STEREO_COUNT>
0

> <PUBCHEM_BOND_DEF_STEREO_COUNT>
0

> <PUBCHEM_BOND_UDEF_STEREO_COUNT>
0

> <PUBCHEM_ISOTOPIC_ATOM_COUNT>
0

> <PUBCHEM_COMPONENT_COUNT>
1

> <PUBCHEM_CACTVS_TAUTO_COUNT>
1

> <PUBCHEM_CONFORMER_ID>
0002240200000001

> <PUBCHEM_MMFF94_ENERGY>
202.9603

> <PUBCHEM_FEATURE_SELFOVERLAP>
30.452

> <PUBCHEM_SHAPE_FINGERPRINT>
10050765 1 18410577283702172299
10369192 42 18046349893112496132
11405975 8 18410576137125317306
11763715 3 18119834618708991171
12633046 712 18410293566868629572
13583140 156 18059570338465687392
13726171 33 17488486202502023488
140371 6 17680442331154976099
14068700 686 18192437582982401768
14910302 57 17894901915249814222
150020 26 15910546111946470958
15219462 58 18268420407709230737
15392192 29 17912942582301628498
15444296 121 17983874280668996258
18393751 57 17761203724122330840
19309040 13 18341901813655670420
21033648 29 17604712136795894181
2260408 40 17898880055930460051
23559900 14 18341611452570154242
249057 3 18194404390040557978
27425 322 18126007062529624325
460360 51 18060420196697838090
469060 322 17684629310310156286
497634 4 17968928824643884945
5081480 168 18262234392620533644
57527293 21 17988378043511022235
9981440 41 17058927737579452703

> <PUBCHEM_SHAPE_MULTIPOLES>
782.02
12.51
5.15
2.62
6.9
0.02
2.66
0.05
-3.65
1.79
-1.44
-1.48
-0.02
-0.04

> <PUBCHEM_SHAPE_SELFOVERLAP>
1774.902

> <PUBCHEM_SHAPE_VOLUME>
380.6

> <PUBCHEM_COORDINATE_TYPE>
2
5
10

$$$$
