223402
  -OEChem-11012400533D

 41 43  0     0  0  0  0  0  0999 V2000
    6.4108    0.3808    0.3339 O   0  5  0  0  0  0  0  0  0  0  0  0
   -3.6014    5.2295    0.3178 O   0  5  0  0  0  0  0  0  0  0  0  0
   -2.9513   -5.6337    0.3439 O   0  5  0  0  0  0  0  0  0  0  0  0
    5.9307   -0.7036   -1.5135 O   0  0  0  0  0  0  0  0  0  0  0  0
   -2.3716    5.4217   -1.4904 O   0  0  0  0  0  0  0  0  0  0  0  0
   -3.5718   -4.6872   -1.5371 O   0  0  0  0  0  0  0  0  0  0  0  0
    5.5803   -0.1456   -0.4457 N   0  3  0  0  0  0  0  0  0  0  0  0
   -2.6947    4.8118   -0.4426 N   0  3  0  0  0  0  0  0  0  0  0  0
   -2.9425   -4.6634   -0.4517 N   0  3  0  0  0  0  0  0  0  0  0  0
    0.0444   -0.0020    0.9090 C   0  0  0  0  0  0  0  0  0  0  0  0
    1.4924   -0.0388    0.5544 C   0  0  0  0  0  0  0  0  0  0  0  0
   -0.6989    1.3025    0.5424 C   0  0  0  0  0  0  0  0  0  0  0  0
   -0.7646   -1.2661    0.5399 C   0  0  0  0  0  0  0  0  0  0  0  0
    2.4338    0.5405    1.4051 C   0  0  0  0  0  0  0  0  0  0  0  0
   -1.6846    1.7399    1.3847 C   0  0  0  0  0  0  0  0  0  0  0  0
   -0.7601   -2.3129    1.4213 C   0  0  0  0  0  0  0  0  0  0  0  0
    1.9054   -0.6532   -0.6279 C   0  0  0  0  0  0  0  0  0  0  0  0
   -0.3310    1.9514   -0.6052 C   0  0  0  0  0  0  0  0  0  0  0  0
   -1.4431   -1.2710   -0.6487 C   0  0  0  0  0  0  0  0  0  0  0  0
    3.7882    0.5055    1.0735 C   0  0  0  0  0  0  0  0  0  0  0  0
   -2.3549    2.9175    1.0539 C   0  0  0  0  0  0  0  0  0  0  0  0
   -1.4907   -3.4534    1.0883 C   0  0  0  0  0  0  0  0  0  0  0  0
    3.2598   -0.6883   -0.9594 C   0  0  0  0  0  0  0  0  0  0  0  0
   -1.0012    3.1292   -0.9360 C   0  0  0  0  0  0  0  0  0  0  0  0
   -2.1739   -2.4115   -0.9818 C   0  0  0  0  0  0  0  0  0  0  0  0
    4.2013   -0.1091   -0.1087 C   0  0  0  0  0  0  0  0  0  0  0  0
   -2.0131    3.6123   -0.1063 C   0  0  0  0  0  0  0  0  0  0  0  0
   -2.1978   -3.5028   -0.1133 C   0  0  0  0  0  0  0  0  0  0  0  0
    0.0353    0.0010    2.0129 H   0  0  0  0  0  0  0  0  0  0  0  0
    2.1276    1.0252    2.3285 H   0  0  0  0  0  0  0  0  0  0  0  0
   -1.9566    1.2029    2.2876 H   0  0  0  0  0  0  0  0  0  0  0  0
   -0.2099   -2.2819    2.3562 H   0  0  0  0  0  0  0  0  0  0  0  0
    1.2043   -1.1021   -1.3234 H   0  0  0  0  0  0  0  0  0  0  0  0
    0.4396    1.5955   -1.2782 H   0  0  0  0  0  0  0  0  0  0  0  0
   -1.4297   -0.4488   -1.3539 H   0  0  0  0  0  0  0  0  0  0  0  0
    4.4933    0.9676    1.7598 H   0  0  0  0  0  0  0  0  0  0  0  0
   -3.1382    3.2637    1.7236 H   0  0  0  0  0  0  0  0  0  0  0  0
   -1.4859   -4.2846    1.7888 H   0  0  0  0  0  0  0  0  0  0  0  0
    3.5450   -1.1726   -1.8899 H   0  0  0  0  0  0  0  0  0  0  0  0
   -0.7106    3.6423   -1.8493 H   0  0  0  0  0  0  0  0  0  0  0  0
   -2.7092   -2.4162   -1.9279 H   0  0  0  0  0  0  0  0  0  0  0  0
  1  7  1  0  0  0  0
  2  8  1  0  0  0  0
  3  9  1  0  0  0  0
  4  7  2  0  0  0  0
  5  8  2  0  0  0  0
  6  9  2  0  0  0  0
  7 26  1  0  0  0  0
  8 27  1  0  0  0  0
  9 28  1  0  0  0  0
 10 11  1  0  0  0  0
 10 12  1  0  0  0  0
 10 13  1  0  0  0  0
 10 29  1  0  0  0  0
 11 14  2  0  0  0  0
 11 17  1  0  0  0  0
 12 15  2  0  0  0  0
 12 18  1  0  0  0  0
 13 16  2  0  0  0  0
 13 19  1  0  0  0  0
 14 20  1  0  0  0  0
 14 30  1  0  0  0  0
 15 21  1  0  0  0  0
 15 31  1  0  0  0  0
 16 22  1  0  0  0  0
 16 32  1  0  0  0  0
 17 23  2  0  0  0  0
 17 33  1  0  0  0  0
 18 24  2  0  0  0  0
 18 34  1  0  0  0  0
 19 25  2  0  0  0  0
 19 35  1  0  0  0  0
 20 26  2  0  0  0  0
 20 36  1  0  0  0  0
 21 27  2  0  0  0  0
 21 37  1  0  0  0  0
 22 28  2  0  0  0  0
 22 38  1  0  0  0  0
 23 26  1  0  0  0  0
 23 39  1  0  0  0  0
 24 27  1  0  0  0  0
 24 40  1  0  0  0  0
 25 28  1  0  0  0  0
 25 41  1  0  0  0  0
M  CHG  6   1  -1   2  -1   3  -1   7   1   8   1   9   1
M  END
> <PUBCHEM_COMPOUND_CID>
223402

> <PUBCHEM_CONFORMER_RMSD>
0.8

> <PUBCHEM_CONFORMER_DIVERSEORDER>
2
1

> <PUBCHEM_MMFF94_PARTIAL_CHARGES>
40
1 -0.52
10 0.43
11 -0.14
12 -0.14
13 -0.14
14 -0.15
15 -0.15
16 -0.15
17 -0.15
18 -0.15
19 -0.15
2 -0.52
20 -0.15
21 -0.15
22 -0.15
23 -0.15
24 -0.15
25 -0.15
26 0.13
27 0.13
28 0.13
3 -0.52
30 0.15
31 0.15
32 0.15
33 0.15
34 0.15
35 0.15
36 0.15
37 0.15
38 0.15
39 0.15
4 -0.52
40 0.15
41 0.15
5 -0.52
6 -0.52
7 0.91
8 0.91
9 0.91

> <PUBCHEM_EFFECTIVE_ROTOR_COUNT>
6

> <PUBCHEM_PHARMACOPHORE_FEATURES>
12
1 1 acceptor
1 1 anion
1 2 acceptor
1 2 anion
1 3 acceptor
1 3 anion
1 4 acceptor
1 5 acceptor
1 6 acceptor
6 11 14 17 20 23 26 rings
6 12 15 18 21 24 27 rings
6 13 16 19 22 25 28 rings

> <PUBCHEM_HEAVY_ATOM_COUNT>
28

> <PUBCHEM_ATOM_DEF_STEREO_COUNT>
0

> <PUBCHEM_ATOM_UDEF_STEREO_COUNT>
0

> <PUBCHEM_BOND_DEF_STEREO_COUNT>
0

> <PUBCHEM_BOND_UDEF_STEREO_COUNT>
0

> <PUBCHEM_ISOTOPIC_ATOM_COUNT>
0

> <PUBCHEM_COMPONENT_COUNT>
1

> <PUBCHEM_CACTVS_TAUTO_COUNT>
1

> <PUBCHEM_CONFORMER_ID>
000368AA00000002

> <PUBCHEM_MMFF94_ENERGY>
101.377

> <PUBCHEM_FEATURE_SELFOVERLAP>
61.145

> <PUBCHEM_SHAPE_FINGERPRINT>
10254770 206 17327741692116904202
10721379 63 17329727920620286767
10815517 723 18271535273285988843
11045515 52 18193555798865840206
11297750 10 18129370678677238880
11386260 185 17691943262307300479
11488393 25 17256826494368043003
11763715 3 18119550961709358004
11991303 11 18267318546786695510
12730499 353 17690007739020748857
12788726 201 18334848424702918627
13540713 4 17989481945053908424
13590594 115 18193280913218275179
13681431 1 17762055840689413227
13757389 114 18337692848552144861
13955234 65 17257658820323113001
14508225 48 18195523920505735854
14556957 393 17971774400050327724
14955137 171 17186436288223405232
15131766 46 15071198919985236478
15219462 58 17837164412866596794
15230672 131 15595258356274157212
15878777 1 11393100759300105883
15927050 60 18194401096202438746
17539 30 18411698815764534794
1813 80 17768832083881634662
21033648 29 18268145349799276360
21120745 212 18193573365630526636
21304303 282 18050531141683115174
21641784 216 18050304836199963348
21927370 108 18119543282192158706
23559900 14 17544182135990519067
23929065 36 18267562737526934128
24771750 20 17615424566414382790
255183 313 18269294407852332819
283562 15 18263356044683491866
3057174 1 17906452125800662661
3729539 64 17331984728619443646
44802255 64 17469936174626738294
5219985 13 18045228128800359964
59755656 520 17986122811617339952
6442390 28 18195248815071416625
6669772 16 17838340675059097374
6677587 24 15030821730139476981
6679774 75 17538561002825882850
7399639 24 17914322735882524040
77188 2 17978228588432882823
81228 2 18410574028106412393
9925002 15 18191888892173119085

> <PUBCHEM_SHAPE_MULTIPOLES>
526.07
8.5
8.15
1.39
18.46
1.15
0.02
-1.11
-2.07
-18.03
-2.05
0
-0.05
0.03

> <PUBCHEM_SHAPE_SELFOVERLAP>
1158.806

> <PUBCHEM_SHAPE_VOLUME>
283.1

> <PUBCHEM_COORDINATE_TYPE>
2
5
10

$$$$
