61150
  -OEChem-11012401183D

 12 11  0     0  0  0  0  0  0999 V2000
    2.0413    0.8910    0.4487 O   0  5  0  0  0  0  0  0  0  0  0  0
   -1.5386    1.4350    0.3412 O   0  5  0  0  0  0  0  0  0  0  0  0
    1.2879   -0.2366   -1.2828 O   0  0  0  0  0  0  0  0  0  0  0  0
   -1.7714   -0.4207   -0.8164 O   0  0  0  0  0  0  0  0  0  0  0  0
    1.2148    0.1586   -0.1119 N   0  3  0  0  0  0  0  0  0  0  0  0
   -1.1939    0.2907    0.0161 N   0  3  0  0  0  0  0  0  0  0  0  0
    0.0201   -0.3024    0.6791 C   0  0  0  0  0  0  0  0  0  0  0  0
   -0.0601   -1.8157    0.7259 C   0  0  0  0  0  0  0  0  0  0  0  0
    0.0874    0.1299    1.6829 H   0  0  0  0  0  0  0  0  0  0  0  0
   -0.9484   -2.1439    1.2772 H   0  0  0  0  0  0  0  0  0  0  0  0
   -0.0969   -2.2757   -0.2685 H   0  0  0  0  0  0  0  0  0  0  0  0
    0.8184   -2.2279    1.2354 H   0  0  0  0  0  0  0  0  0  0  0  0
  1  5  1  0  0  0  0
  2  6  1  0  0  0  0
  3  5  2  0  0  0  0
  4  6  2  0  0  0  0
  5  7  1  0  0  0  0
  6  7  1  0  0  0  0
  7  8  1  0  0  0  0
  7  9  1  0  0  0  0
  8 10  1  0  0  0  0
  8 11  1  0  0  0  0
  8 12  1  0  0  0  0
M  CHG  4   1  -1   2  -1   5   1   6   1
M  END
> <PUBCHEM_COMPOUND_CID>
61150

> <PUBCHEM_CONFORMER_RMSD>
0.4

> <PUBCHEM_CONFORMER_DIVERSEORDER>
1
9
8
2
3
7
4
6
5

> <PUBCHEM_MMFF94_PARTIAL_CHARGES>
7
1 -0.52
2 -0.52
3 -0.52
4 -0.52
5 0.8
6 0.8
7 0.48

> <PUBCHEM_EFFECTIVE_ROTOR_COUNT>
2

> <PUBCHEM_PHARMACOPHORE_FEATURES>
6
1 1 acceptor
1 1 anion
1 2 acceptor
1 2 anion
1 3 acceptor
1 4 acceptor

> <PUBCHEM_HEAVY_ATOM_COUNT>
8

> <PUBCHEM_ATOM_DEF_STEREO_COUNT>
0

> <PUBCHEM_ATOM_UDEF_STEREO_COUNT>
0

> <PUBCHEM_BOND_DEF_STEREO_COUNT>
0

> <PUBCHEM_BOND_UDEF_STEREO_COUNT>
0

> <PUBCHEM_ISOTOPIC_ATOM_COUNT>
0

> <PUBCHEM_COMPONENT_COUNT>
1

> <PUBCHEM_CACTVS_TAUTO_COUNT>
2

> <PUBCHEM_CONFORMER_ID>
0000EEDE00000001

> <PUBCHEM_MMFF94_ENERGY>
12.1526

> <PUBCHEM_FEATURE_SELFOVERLAP>
30.609

> <PUBCHEM_SHAPE_FINGERPRINT>
137420 1 13272439535897390082
20096714 4 18267307525700296409
21040471 1 18187655686369133306
23552449 1 17905605858498378384
24536 1 18263098754160884748
29004967 10 15841550816156802218
5084963 1 17312824874520161466
5943 1 15955865562865293426

> <PUBCHEM_SHAPE_MULTIPOLES>
131.2
2.15
1.43
0.97
0.19
0.58
0.23
-0.83
0.21
-0.24
-0.4
0.12
0.05
-0.06

> <PUBCHEM_SHAPE_SELFOVERLAP>
245.111

> <PUBCHEM_SHAPE_VOLUME>
81.7

> <PUBCHEM_COORDINATE_TYPE>
2
5
10

$$$$
