140581
  -OEChem-11012401103D

 27 29  0     0  0  0  0  0  0999 V2000
   -0.0011   -3.3269   -0.0003 O   0  0  0  0  0  0  0  0  0  0  0  0
    1.1513   -2.5386    0.0006 N   0  0  0  0  0  0  0  0  0  0  0  0
   -1.1529   -2.5378   -0.0003 N   0  0  0  0  0  0  0  0  0  0  0  0
    0.6966   -1.2864    0.0005 C   0  0  0  0  0  0  0  0  0  0  0  0
   -0.6970   -1.2865   -0.0002 C   0  0  0  0  0  0  0  0  0  0  0  0
    1.6001   -0.1699    0.0003 C   0  0  0  0  0  0  0  0  0  0  0  0
   -1.6008   -0.1686   -0.0002 C   0  0  0  0  0  0  0  0  0  0  0  0
    2.0382    0.3730    1.2082 C   0  0  0  0  0  0  0  0  0  0  0  0
   -2.0378    0.3733   -1.2082 C   0  0  0  0  0  0  0  0  0  0  0  0
    2.0397    0.3714   -1.2077 C   0  0  0  0  0  0  0  0  0  0  0  0
   -2.0393    0.3720    1.2078 C   0  0  0  0  0  0  0  0  0  0  0  0
    2.9159    1.4572    1.2082 C   0  0  0  0  0  0  0  0  0  0  0  0
   -2.9149    1.4579   -1.2083 C   0  0  0  0  0  0  0  0  0  0  0  0
    2.9176    1.4554   -1.2079 C   0  0  0  0  0  0  0  0  0  0  0  0
   -2.9166    1.4565    1.2078 C   0  0  0  0  0  0  0  0  0  0  0  0
    3.3555    1.9984    0.0001 C   0  0  0  0  0  0  0  0  0  0  0  0
   -3.3543    1.9995   -0.0003 C   0  0  0  0  0  0  0  0  0  0  0  0
    1.7044   -0.0367    2.1587 H   0  0  0  0  0  0  0  0  0  0  0  0
   -1.7041   -0.0367   -2.1585 H   0  0  0  0  0  0  0  0  0  0  0  0
    1.7073   -0.0395   -2.1581 H   0  0  0  0  0  0  0  0  0  0  0  0
   -1.7069   -0.0391    2.1580 H   0  0  0  0  0  0  0  0  0  0  0  0
    3.2567    1.8802    2.1485 H   0  0  0  0  0  0  0  0  0  0  0  0
   -3.2556    1.8810   -2.1487 H   0  0  0  0  0  0  0  0  0  0  0  0
    3.2597    1.8771   -2.1484 H   0  0  0  0  0  0  0  0  0  0  0  0
   -3.2585    1.8785    2.1482 H   0  0  0  0  0  0  0  0  0  0  0  0
    4.0388    2.8426   -0.0001 H   0  0  0  0  0  0  0  0  0  0  0  0
   -4.0372    2.8440   -0.0002 H   0  0  0  0  0  0  0  0  0  0  0  0
  1  2  1  0  0  0  0
  1  3  1  0  0  0  0
  2  4  2  0  0  0  0
  3  5  2  0  0  0  0
  4  5  1  0  0  0  0
  4  6  1  0  0  0  0
  5  7  1  0  0  0  0
  6  8  2  0  0  0  0
  6 10  1  0  0  0  0
  7  9  2  0  0  0  0
  7 11  1  0  0  0  0
  8 12  1  0  0  0  0
  8 18  1  0  0  0  0
  9 13  1  0  0  0  0
  9 19  1  0  0  0  0
 10 14  2  0  0  0  0
 10 20  1  0  0  0  0
 11 15  2  0  0  0  0
 11 21  1  0  0  0  0
 12 16  2  0  0  0  0
 12 22  1  0  0  0  0
 13 17  2  0  0  0  0
 13 23  1  0  0  0  0
 14 16  1  0  0  0  0
 14 24  1  0  0  0  0
 15 17  1  0  0  0  0
 15 25  1  0  0  0  0
 16 26  1  0  0  0  0
 17 27  1  0  0  0  0
M  END
> <PUBCHEM_COMPOUND_CID>
140581

> <PUBCHEM_CONFORMER_RMSD>
0.6

> <PUBCHEM_CONFORMER_DIVERSEORDER>
1
3
4
2

> <PUBCHEM_MMFF94_PARTIAL_CHARGES>
27
1 0.24
10 -0.15
11 -0.15
12 -0.15
13 -0.15
14 -0.15
15 -0.15
16 -0.15
17 -0.15
18 0.15
19 0.15
2 -0.41
20 0.15
21 0.15
22 0.15
23 0.15
24 0.15
25 0.15
26 0.15
27 0.15
3 -0.41
4 0.23
5 0.23
6 0.05
7 0.05
8 -0.15
9 -0.15

> <PUBCHEM_EFFECTIVE_ROTOR_COUNT>
2

> <PUBCHEM_PHARMACOPHORE_FEATURES>
5
1 2 acceptor
1 3 acceptor
5 1 2 3 4 5 rings
6 6 8 10 12 14 16 rings
6 7 9 11 13 15 17 rings

> <PUBCHEM_HEAVY_ATOM_COUNT>
17

> <PUBCHEM_ATOM_DEF_STEREO_COUNT>
0

> <PUBCHEM_ATOM_UDEF_STEREO_COUNT>
0

> <PUBCHEM_BOND_DEF_STEREO_COUNT>
0

> <PUBCHEM_BOND_UDEF_STEREO_COUNT>
0

> <PUBCHEM_ISOTOPIC_ATOM_COUNT>
0

> <PUBCHEM_COMPONENT_COUNT>
1

> <PUBCHEM_CACTVS_TAUTO_COUNT>
1

> <PUBCHEM_CONFORMER_ID>
0002252500000001

> <PUBCHEM_MMFF94_ENERGY>
45.9538

> <PUBCHEM_FEATURE_SELFOVERLAP>
25.422

> <PUBCHEM_SHAPE_FINGERPRINT>
10165383 225 18050045217636503829
11221954 11 17388803202738330157
11640471 11 18338497703711065156
11725454 13 16663140990625571709
12173636 292 18341056301955848349
128993 33 18341065054803804941
13132413 78 17550391739550204882
13134695 92 17615679644538026759
13294875 104 18271801273105128738
13464514 151 18130801010066062444
13693222 7 18410575088958202116
13764800 53 18339652255508107681
13965767 371 18187632571061640976
14386348 128 18338817657299852129
14614273 12 18265893738425457807
15309172 13 18335145297274600021
15342168 16 18336272266971515621
16945 1 18122343750807844482
17134986 127 18409454656681910100
1741750 31 18339922722673691936
1813 80 17122555246433154967
18186145 218 18272098170882371612
18219364 16 18410863169790189481
18981168 100 18410866455244439552
19765921 60 18131340895834075369
20510252 161 18051692440789617170
20671657 1 18268431235099984551
21041028 32 17403185793817737323
21524375 3 18410292514475313858
21639500 275 18194677060656123381
21731228 192 18261108582221987104
2255824 54 18124876750973606167
22802520 49 17702406085500898812
23419403 2 13350322325396277878
23557571 272 17693378154449517652
25 1 18058748926144146992
2748010 2 18336559251916175575
305870 269 18410006611656060690
31174 14 17902811669182771123
350125 39 18410020939393257611
3797600 57 16736402686728595524
474 4 18266733598095491481
49207404 50 18189071832156387985
5262128 65 16128373800245520753
549884 4 17632581504630988712
6338986 31 9006776445365311649
6442390 28 18197240189754047251
6992083 37 17969203690203594516
7364860 26 18125156030910590742
81228 2 17906180898632237850
84936 182 18200302204766899161

> <PUBCHEM_SHAPE_MULTIPOLES>
334.02
5.61
2.93
1.32
0
2.46
0
-5.14
0
0
0
0
-0.61
0

> <PUBCHEM_SHAPE_SELFOVERLAP>
738.892

> <PUBCHEM_SHAPE_VOLUME>
180.2

> <PUBCHEM_COORDINATE_TYPE>
2
5
10

$$$$
