142904
  -OEChem-11012400473D

 27 27  0     0  0  0  0  0  0999 V2000
    1.4330   -0.9533    0.7909 O   0  0  0  0  0  0  0  0  0  0  0  0
    0.2638    0.9181   -0.0163 N   0  0  0  0  0  0  0  0  0  0  0  0
    2.5630    0.6030   -0.4610 N   0  0  0  0  0  0  0  0  0  0  0  0
   -1.0506    0.3031   -0.0343 C   0  0  0  0  0  0  0  0  0  0  0  0
    1.4143    0.1039    0.1549 C   0  0  0  0  0  0  0  0  0  0  0  0
    3.8352   -0.0793   -0.3940 C   0  0  0  0  0  0  0  0  0  0  0  0
    0.3838    2.3759   -0.1756 C   0  0  0  0  0  0  0  0  0  0  0  0
   -1.1529   -0.9775   -0.5035 C   0  0  0  0  0  0  0  0  0  0  0  0
   -2.1099    1.0403    0.4184 C   0  0  0  0  0  0  0  0  0  0  0  0
   -2.4164   -1.5685   -0.5211 C   0  0  0  0  0  0  0  0  0  0  0  0
   -3.3733    0.4491    0.4010 C   0  0  0  0  0  0  0  0  0  0  0  0
    3.7365   -1.3598    0.4092 C   0  0  0  0  0  0  0  0  0  0  0  0
   -3.5265   -0.8552   -0.0687 C   0  0  0  0  0  0  0  0  0  0  0  0
    4.1525   -0.2883   -1.4203 H   0  0  0  0  0  0  0  0  0  0  0  0
    4.5577    0.6105    0.0527 H   0  0  0  0  0  0  0  0  0  0  0  0
    2.5005    1.3989   -1.0852 H   0  0  0  0  0  0  0  0  0  0  0  0
   -0.0659    2.6689   -1.1288 H   0  0  0  0  0  0  0  0  0  0  0  0
    1.4185    2.7224   -0.1437 H   0  0  0  0  0  0  0  0  0  0  0  0
   -0.1193    2.8810    0.6534 H   0  0  0  0  0  0  0  0  0  0  0  0
   -0.3159   -1.5450   -0.8955 H   0  0  0  0  0  0  0  0  0  0  0  0
   -2.0303    2.0489    0.8044 H   0  0  0  0  0  0  0  0  0  0  0  0
    3.5112   -1.1949    1.4683 H   0  0  0  0  0  0  0  0  0  0  0  0
    3.0955   -2.1177   -0.0538 H   0  0  0  0  0  0  0  0  0  0  0  0
    4.7349   -1.8181    0.4145 H   0  0  0  0  0  0  0  0  0  0  0  0
   -2.5375   -2.5812   -0.8946 H   0  0  0  0  0  0  0  0  0  0  0  0
   -4.2376    1.0030    0.7559 H   0  0  0  0  0  0  0  0  0  0  0  0
   -4.5103   -1.3150   -0.0836 H   0  0  0  0  0  0  0  0  0  0  0  0
  1  5  2  0  0  0  0
  2  4  1  0  0  0  0
  2  5  1  0  0  0  0
  2  7  1  0  0  0  0
  3  5  1  0  0  0  0
  3  6  1  0  0  0  0
  3 16  1  0  0  0  0
  4  8  2  0  0  0  0
  4  9  1  0  0  0  0
  6 12  1  0  0  0  0
  6 14  1  0  0  0  0
  6 15  1  0  0  0  0
  7 17  1  0  0  0  0
  7 18  1  0  0  0  0
  7 19  1  0  0  0  0
  8 10  1  0  0  0  0
  8 20  1  0  0  0  0
  9 11  2  0  0  0  0
  9 21  1  0  0  0  0
 10 13  2  0  0  0  0
 10 25  1  0  0  0  0
 11 13  1  0  0  0  0
 11 26  1  0  0  0  0
 12 22  1  0  0  0  0
 12 23  1  0  0  0  0
 12 24  1  0  0  0  0
 13 27  1  0  0  0  0
M  END
> <PUBCHEM_COMPOUND_CID>
142904

> <PUBCHEM_CONFORMER_RMSD>
0.6

> <PUBCHEM_CONFORMER_DIVERSEORDER>
1
3
4
2
5
6

> <PUBCHEM_MMFF94_PARTIAL_CHARGES>
18
1 -0.57
10 -0.15
11 -0.15
13 -0.15
16 0.37
2 -0.48
20 0.15
21 0.15
25 0.15
26 0.15
27 0.15
3 -0.73
4 0.12
5 0.69
6 0.3
7 0.3
8 -0.15
9 -0.15

> <PUBCHEM_EFFECTIVE_ROTOR_COUNT>
4

> <PUBCHEM_PHARMACOPHORE_FEATURES>
3
1 1 acceptor
1 3 donor
6 4 8 9 10 11 13 rings

> <PUBCHEM_HEAVY_ATOM_COUNT>
13

> <PUBCHEM_ATOM_DEF_STEREO_COUNT>
0

> <PUBCHEM_ATOM_UDEF_STEREO_COUNT>
0

> <PUBCHEM_BOND_DEF_STEREO_COUNT>
0

> <PUBCHEM_BOND_UDEF_STEREO_COUNT>
0

> <PUBCHEM_ISOTOPIC_ATOM_COUNT>
0

> <PUBCHEM_COMPONENT_COUNT>
1

> <PUBCHEM_CACTVS_TAUTO_COUNT>
2

> <PUBCHEM_CONFORMER_ID>
00022E3800000001

> <PUBCHEM_MMFF94_ENERGY>
58.0713

> <PUBCHEM_FEATURE_SELFOVERLAP>
15.223

> <PUBCHEM_SHAPE_FINGERPRINT>
10465860 71 18198926823284436708
11132069 177 18341325622085083370
11769659 78 18271239525320589471
12032990 46 18410298007817463810
12932764 1 18113889464115070129
13221675 6 18408886239171791283
13690532 89 18412823603691579287
14144814 61 18412826893156480051
14965852 173 18343020038365446035
14993402 34 18411979157123009125
15375462 189 18261112954419534378
15536298 74 18200313350481293120
16945 1 18410566319130686977
17804303 29 18131917061153796961
18186145 218 16443066101573489928
18511873 20 18342179972885122377
19422 9 18408890641544892174
207724 885 18410014346892225617
20871998 184 18130504137067021981
22485316 2 18411134736377003022
23402539 116 18272362049325017942
23463225 33 18411139108569574318
23552423 10 18121497122960202053
23559900 14 17917713479223459488
7364860 26 18057040439488060864
74978 22 18339637966394506783

> <PUBCHEM_SHAPE_MULTIPOLES>
251.7
6.63
1.79
0.75
3
0.57
0.01
-2.32
0.18
-0.1
-0.1
0.05
-0.07
-0.62

> <PUBCHEM_SHAPE_SELFOVERLAP>
514.068

> <PUBCHEM_SHAPE_VOLUME>
146.4

> <PUBCHEM_COORDINATE_TYPE>
2
5
10

$$$$
