136444
  -OEChem-11012401283D

 17 17  0     0  0  0  0  0  0999 V2000
    0.3105   -1.1885   -0.1707 O   0  0  0  0  0  0  0  0  0  0  0  0
    0.3105    1.1886   -0.1705 O   0  0  0  0  0  0  0  0  0  0  0  0
   -1.7912   -0.0001   -0.2821 C   0  0  0  0  0  0  0  0  0  0  0  0
    0.9254    0.0000    0.3341 C   0  0  0  0  0  0  0  0  0  0  0  0
   -1.0657   -1.2482    0.2029 C   0  0  0  0  0  0  0  0  0  0  0  0
   -1.0658    1.2482    0.2027 C   0  0  0  0  0  0  0  0  0  0  0  0
    2.3762    0.0000   -0.1163 C   0  0  0  0  0  0  0  0  0  0  0  0
   -1.7795   -0.0001   -1.3791 H   0  0  0  0  0  0  0  0  0  0  0  0
   -2.8342   -0.0001    0.0486 H   0  0  0  0  0  0  0  0  0  0  0  0
    0.8913   -0.0001    1.4315 H   0  0  0  0  0  0  0  0  0  0  0  0
   -1.1406   -1.3543    1.2914 H   0  0  0  0  0  0  0  0  0  0  0  0
   -1.5025   -2.1429   -0.2514 H   0  0  0  0  0  0  0  0  0  0  0  0
   -1.5025    2.1429   -0.2518 H   0  0  0  0  0  0  0  0  0  0  0  0
   -1.1410    1.3545    1.2912 H   0  0  0  0  0  0  0  0  0  0  0  0
    2.8982   -0.8929    0.2420 H   0  0  0  0  0  0  0  0  0  0  0  0
    2.4401    0.0001   -1.2105 H   0  0  0  0  0  0  0  0  0  0  0  0
    2.8982    0.8928    0.2421 H   0  0  0  0  0  0  0  0  0  0  0  0
  1  4  1  0  0  0  0
  1  5  1  0  0  0  0
  2  4  1  0  0  0  0
  2  6  1  0  0  0  0
  3  5  1  0  0  0  0
  3  6  1  0  0  0  0
  3  8  1  0  0  0  0
  3  9  1  0  0  0  0
  4  7  1  0  0  0  0
  4 10  1  0  0  0  0
  5 11  1  0  0  0  0
  5 12  1  0  0  0  0
  6 13  1  0  0  0  0
  6 14  1  0  0  0  0
  7 15  1  0  0  0  0
  7 16  1  0  0  0  0
  7 17  1  0  0  0  0
M  END
> <PUBCHEM_COMPOUND_CID>
136444

> <PUBCHEM_CONFORMER_RMSD>
0.4

> <PUBCHEM_CONFORMER_DIVERSEORDER>
1
2

> <PUBCHEM_MMFF94_PARTIAL_CHARGES>
5
1 -0.56
2 -0.56
4 0.56
5 0.28
6 0.28

> <PUBCHEM_EFFECTIVE_ROTOR_COUNT>
1.2

> <PUBCHEM_PHARMACOPHORE_FEATURES>
3
1 1 acceptor
1 2 acceptor
6 1 2 3 4 5 6 rings

> <PUBCHEM_HEAVY_ATOM_COUNT>
7

> <PUBCHEM_ATOM_DEF_STEREO_COUNT>
0

> <PUBCHEM_ATOM_UDEF_STEREO_COUNT>
0

> <PUBCHEM_BOND_DEF_STEREO_COUNT>
0

> <PUBCHEM_BOND_UDEF_STEREO_COUNT>
0

> <PUBCHEM_ISOTOPIC_ATOM_COUNT>
0

> <PUBCHEM_COMPONENT_COUNT>
1

> <PUBCHEM_CACTVS_TAUTO_COUNT>
1

> <PUBCHEM_CONFORMER_ID>
000214FC00000001

> <PUBCHEM_MMFF94_ENERGY>
8.6721

> <PUBCHEM_FEATURE_SELFOVERLAP>
15.258

> <PUBCHEM_SHAPE_FINGERPRINT>
16714656 1 18410578387645897404
20096714 4 18123189000387196793
21040471 1 18266739073761854552
23552423 10 18260553290527908030
29004967 10 18339647844487069210

> <PUBCHEM_SHAPE_MULTIPOLES>
132.32
2.47
1.39
0.64
1.07
0
0.02
0
-0.16
-0.41
0.04
-0.02
0
0

> <PUBCHEM_SHAPE_SELFOVERLAP>
251.585

> <PUBCHEM_SHAPE_VOLUME>
81

> <PUBCHEM_COORDINATE_TYPE>
2
5
10

$$$$
