19166
  -OEChem-11012400423D

 15 14  0     0  0  0  0  0  0999 V2000
    0.8207    1.5892    0.2119 O   0  0  0  0  0  0  0  0  0  0  0  0
    2.1434   -0.1708   -0.3422 O   0  0  0  0  0  0  0  0  0  0  0  0
   -1.4790    0.1280    0.5783 C   0  0  0  0  0  0  0  0  0  0  0  0
   -0.1774   -0.5270    0.1981 C   0  0  0  0  0  0  0  0  0  0  0  0
   -2.2877    0.5563   -0.6389 C   0  0  0  0  0  0  0  0  0  0  0  0
    1.0556    0.2750   -0.0106 C   0  0  0  0  0  0  0  0  0  0  0  0
   -0.0756   -1.8506    0.0034 C   0  0  0  0  0  0  0  0  0  0  0  0
   -2.0843   -0.5738    1.1671 H   0  0  0  0  0  0  0  0  0  0  0  0
   -1.3098    0.9858    1.2388 H   0  0  0  0  0  0  0  0  0  0  0  0
   -3.2303    1.0145   -0.3228 H   0  0  0  0  0  0  0  0  0  0  0  0
   -2.5272   -0.2997   -1.2788 H   0  0  0  0  0  0  0  0  0  0  0  0
   -1.7409    1.2897   -1.2407 H   0  0  0  0  0  0  0  0  0  0  0  0
   -0.9399   -2.4963    0.1256 H   0  0  0  0  0  0  0  0  0  0  0  0
    0.8534   -2.3334   -0.2805 H   0  0  0  0  0  0  0  0  0  0  0  0
    1.6248    2.1344    0.0763 H   0  0  0  0  0  0  0  0  0  0  0  0
  1  6  1  0  0  0  0
  1 15  1  0  0  0  0
  2  6  2  0  0  0  0
  3  4  1  0  0  0  0
  3  5  1  0  0  0  0
  3  8  1  0  0  0  0
  3  9  1  0  0  0  0
  4  6  1  0  0  0  0
  4  7  2  0  0  0  0
  5 10  1  0  0  0  0
  5 11  1  0  0  0  0
  5 12  1  0  0  0  0
  7 13  1  0  0  0  0
  7 14  1  0  0  0  0
M  END
> <PUBCHEM_COMPOUND_CID>
19166

> <PUBCHEM_CONFORMER_RMSD>
0.4

> <PUBCHEM_CONFORMER_DIVERSEORDER>
2
6
3
7
8
4
1
9
5

> <PUBCHEM_MMFF94_PARTIAL_CHARGES>
9
1 -0.65
13 0.15
14 0.15
15 0.5
2 -0.57
3 0.14
4 -0.12
6 0.71
7 -0.3

> <PUBCHEM_EFFECTIVE_ROTOR_COUNT>
2

> <PUBCHEM_PHARMACOPHORE_FEATURES>
5
1 1 acceptor
1 2 acceptor
1 5 hydrophobe
1 7 hydrophobe
3 1 2 6 anion

> <PUBCHEM_HEAVY_ATOM_COUNT>
7

> <PUBCHEM_ATOM_DEF_STEREO_COUNT>
0

> <PUBCHEM_ATOM_UDEF_STEREO_COUNT>
0

> <PUBCHEM_BOND_DEF_STEREO_COUNT>
0

> <PUBCHEM_BOND_UDEF_STEREO_COUNT>
0

> <PUBCHEM_ISOTOPIC_ATOM_COUNT>
0

> <PUBCHEM_COMPONENT_COUNT>
1

> <PUBCHEM_CACTVS_TAUTO_COUNT>
1

> <PUBCHEM_CONFORMER_ID>
00004ADE00000002

> <PUBCHEM_MMFF94_ENERGY>
7.5966

> <PUBCHEM_FEATURE_SELFOVERLAP>
25.43

> <PUBCHEM_SHAPE_FINGERPRINT>
16714656 1 18260839206147043708
20096714 4 18409449219205678009
21040471 1 18336825385211331730
24536 1 17630624507214293688
29004967 10 18338244743106466507
5084963 1 17968104161047640241

> <PUBCHEM_SHAPE_MULTIPOLES>
132.32
2.49
1.51
0.73
0.53
0.39
0
-0.63
-0.49
-0.24
0.04
0.2
-0.02
0.13

> <PUBCHEM_SHAPE_SELFOVERLAP>
246.354

> <PUBCHEM_SHAPE_VOLUME>
83.5

> <PUBCHEM_COORDINATE_TYPE>
2
5
10

$$$$
