69895
  -OEChem-11012401113D

 30 31  0     0  0  0  0  0  0999 V2000
    0.7563    0.6593   -0.9940 O   0  0  0  0  0  0  0  0  0  0  0  0
    0.7391   -0.8550    0.8455 O   0  0  0  0  0  0  0  0  0  0  0  0
    2.8698    0.0686    0.0827 C   0  0  0  0  0  0  0  0  0  0  0  0
    2.1513    0.4560   -1.2233 C   0  0  0  0  0  0  0  0  0  0  0  0
    2.1332   -1.1320    0.7054 C   0  0  0  0  0  0  0  0  0  0  0  0
    2.8368    1.2581    1.0618 C   0  0  0  0  0  0  0  0  0  0  0  0
    4.3282   -0.3033   -0.2095 C   0  0  0  0  0  0  0  0  0  0  0  0
    0.1562   -0.5029   -0.4131 C   0  0  0  0  0  0  0  0  0  0  0  0
   -1.3068   -0.2112   -0.1864 C   0  0  0  0  0  0  0  0  0  0  0  0
   -2.2490   -1.2375   -0.2838 C   0  0  0  0  0  0  0  0  0  0  0  0
   -1.7232    1.0855    0.1223 C   0  0  0  0  0  0  0  0  0  0  0  0
   -3.6014   -0.9681   -0.0739 C   0  0  0  0  0  0  0  0  0  0  0  0
   -3.0757    1.3547    0.3322 C   0  0  0  0  0  0  0  0  0  0  0  0
   -4.0148    0.3278    0.2341 C   0  0  0  0  0  0  0  0  0  0  0  0
    2.5604    1.3847   -1.6361 H   0  0  0  0  0  0  0  0  0  0  0  0
    2.2707   -0.3196   -1.9902 H   0  0  0  0  0  0  0  0  0  0  0  0
    2.2506   -2.0345    0.0924 H   0  0  0  0  0  0  0  0  0  0  0  0
    2.5292   -1.3630    1.7004 H   0  0  0  0  0  0  0  0  0  0  0  0
    1.8131    1.5635    1.3036 H   0  0  0  0  0  0  0  0  0  0  0  0
    3.3368    1.0048    2.0035 H   0  0  0  0  0  0  0  0  0  0  0  0
    3.3498    2.1290    0.6381 H   0  0  0  0  0  0  0  0  0  0  0  0
    4.3899   -1.1482   -0.9046 H   0  0  0  0  0  0  0  0  0  0  0  0
    4.8682    0.5374   -0.6592 H   0  0  0  0  0  0  0  0  0  0  0  0
    4.8551   -0.5881    0.7080 H   0  0  0  0  0  0  0  0  0  0  0  0
    0.2532   -1.3408   -1.1173 H   0  0  0  0  0  0  0  0  0  0  0  0
   -1.9395   -2.2520   -0.5210 H   0  0  0  0  0  0  0  0  0  0  0  0
   -1.0115    1.9009    0.2191 H   0  0  0  0  0  0  0  0  0  0  0  0
   -4.3325   -1.7677   -0.1495 H   0  0  0  0  0  0  0  0  0  0  0  0
   -3.3976    2.3630    0.5755 H   0  0  0  0  0  0  0  0  0  0  0  0
   -5.0676    0.5373    0.3986 H   0  0  0  0  0  0  0  0  0  0  0  0
  1  4  1  0  0  0  0
  1  8  1  0  0  0  0
  2  5  1  0  0  0  0
  2  8  1  0  0  0  0
  3  4  1  0  0  0  0
  3  5  1  0  0  0  0
  3  6  1  0  0  0  0
  3  7  1  0  0  0  0
  4 15  1  0  0  0  0
  4 16  1  0  0  0  0
  5 17  1  0  0  0  0
  5 18  1  0  0  0  0
  6 19  1  0  0  0  0
  6 20  1  0  0  0  0
  6 21  1  0  0  0  0
  7 22  1  0  0  0  0
  7 23  1  0  0  0  0
  7 24  1  0  0  0  0
  8  9  1  0  0  0  0
  8 25  1  0  0  0  0
  9 10  2  0  0  0  0
  9 11  1  0  0  0  0
 10 12  1  0  0  0  0
 10 26  1  0  0  0  0
 11 13  2  0  0  0  0
 11 27  1  0  0  0  0
 12 14  2  0  0  0  0
 12 28  1  0  0  0  0
 13 14  1  0  0  0  0
 13 29  1  0  0  0  0
 14 30  1  0  0  0  0
M  END
> <PUBCHEM_COMPOUND_CID>
69895

> <PUBCHEM_CONFORMER_RMSD>
0.6

> <PUBCHEM_CONFORMER_DIVERSEORDER>
2
3
1

> <PUBCHEM_MMFF94_PARTIAL_CHARGES>
16
1 -0.56
10 -0.15
11 -0.15
12 -0.15
13 -0.15
14 -0.15
2 -0.56
26 0.15
27 0.15
28 0.15
29 0.15
30 0.15
4 0.28
5 0.28
8 0.7
9 -0.14

> <PUBCHEM_EFFECTIVE_ROTOR_COUNT>
2.2

> <PUBCHEM_PHARMACOPHORE_FEATURES>
5
1 1 acceptor
1 2 acceptor
3 3 6 7 hydrophobe
6 1 2 3 4 5 8 rings
6 9 10 11 12 13 14 rings

> <PUBCHEM_HEAVY_ATOM_COUNT>
14

> <PUBCHEM_ATOM_DEF_STEREO_COUNT>
0

> <PUBCHEM_ATOM_UDEF_STEREO_COUNT>
0

> <PUBCHEM_BOND_DEF_STEREO_COUNT>
0

> <PUBCHEM_BOND_UDEF_STEREO_COUNT>
0

> <PUBCHEM_ISOTOPIC_ATOM_COUNT>
0

> <PUBCHEM_COMPONENT_COUNT>
1

> <PUBCHEM_CACTVS_TAUTO_COUNT>
1

> <PUBCHEM_CONFORMER_ID>
0001110700000002

> <PUBCHEM_MMFF94_ENERGY>
39.0413

> <PUBCHEM_FEATURE_SELFOVERLAP>
25.406

> <PUBCHEM_SHAPE_FINGERPRINT>
10219947 1 16805605871550441190
10608611 8 18131347505546313065
11132069 177 18335696156778837105
12236239 1 18259705597021844007
12251169 10 18261114067042904053
124424 183 17346315973180360282
12500047 106 18340763758753145623
12932764 1 18335976497826042469
13581323 91 18342737411989360055
13705890 14 11241965963060335144
14144814 61 18260828185403373811
14993402 34 17458347459344810166
15219456 202 17489315143905585247
15309172 13 17168145636989955498
15775835 57 18410014307968527233
16945 1 17095518504719052110
17802600 8 18413383237418804969
18175812 5 17775565364008559093
18186145 218 18411979161054070348
19026448 4 17846780719597548006
200 152 18113330934294926303
20279233 1 17203895154039909591
20281407 28 13045948997003735521
20510252 161 18059861636591493929
20528008 55 18341606023567902717
20645464 45 17489592259949348143
20645477 56 18272095946701248425
20645477 70 15769504118667098420
22445834 79 18187642462307461707
22485316 2 12901546853441024177
23402539 116 17703502225289262301
23557571 272 17847065514557474735
23559900 14 17917434168599075454
296302 2 13767926818845069638
3248919 1 17676209091118358819
42 15 18410012117777883670
474 4 17751364104175845396
57812782 119 18131633382895845164
7364860 26 18199189473134983286
77492 1 18187086161042386407
77779 3 18343021090505807050

> <PUBCHEM_SHAPE_MULTIPOLES>
276.37
7.55
1.34
0.96
0.22
0.13
0.07
0.31
-0.5
0.47
-0.2
-0.6
0.08
-0.11

> <PUBCHEM_SHAPE_SELFOVERLAP>
577.008

> <PUBCHEM_SHAPE_VOLUME>
156.2

> <PUBCHEM_COORDINATE_TYPE>
2
5
10

$$$$
