12300268
  -OEChem-11012401173D

 52 56  0     0  0  0  0  0  0999 V2000
   -0.1535   -1.2107   -0.6804 C   0  0  0  0  0  0  0  0  0  0  0  0
    0.1541   -1.2107    0.6826 C   0  0  0  0  0  0  0  0  0  0  0  0
    0.1535    1.2111   -0.6803 C   0  0  0  0  0  0  0  0  0  0  0  0
   -0.1542    1.2108    0.6826 C   0  0  0  0  0  0  0  0  0  0  0  0
   -0.8308   -2.3824   -1.3623 C   0  0  0  0  0  0  0  0  0  0  0  0
    0.8331   -2.3817    1.3641 C   0  0  0  0  0  0  0  0  0  0  0  0
    0.8311    2.3827   -1.3620 C   0  0  0  0  0  0  0  0  0  0  0  0
   -0.8333    2.3817    1.3643 C   0  0  0  0  0  0  0  0  0  0  0  0
    0.0000    0.0002   -1.3744 C   0  0  0  0  0  0  0  0  0  0  0  0
   -0.0001    0.0000    1.3768 C   0  0  0  0  0  0  0  0  0  0  0  0
   -2.3296   -2.5838   -0.9285 C   0  0  0  0  0  0  0  0  0  0  0  0
    2.3309   -2.5833    0.9272 C   0  0  0  0  0  0  0  0  0  0  0  0
    2.3299    2.5838   -0.9283 C   0  0  0  0  0  0  0  0  0  0  0  0
   -2.3309    2.5832    0.9270 C   0  0  0  0  0  0  0  0  0  0  0  0
   -3.0241   -1.3060   -0.4766 C   0  0  0  0  0  0  0  0  0  0  0  0
    3.0248   -1.3052    0.4753 C   0  0  0  0  0  0  0  0  0  0  0  0
    3.0241    1.3059   -0.4766 C   0  0  0  0  0  0  0  0  0  0  0  0
   -3.0250    1.3051    0.4752 C   0  0  0  0  0  0  0  0  0  0  0  0
   -3.2011   -0.2495   -1.3768 C   0  0  0  0  0  0  0  0  0  0  0  0
    3.1917   -1.0630   -0.8979 C   0  0  0  0  0  0  0  0  0  0  0  0
   -3.1915   -1.0639    0.8965 C   0  0  0  0  0  0  0  0  0  0  0  0
    3.2017   -0.2486    1.3753 C   0  0  0  0  0  0  0  0  0  0  0  0
   -3.1919    1.0629   -0.8979 C   0  0  0  0  0  0  0  0  0  0  0  0
    3.2009    0.2493   -1.3768 C   0  0  0  0  0  0  0  0  0  0  0  0
   -3.2016    0.2485    1.3754 C   0  0  0  0  0  0  0  0  0  0  0  0
    3.1917    1.0638    0.8964 C   0  0  0  0  0  0  0  0  0  0  0  0
   -0.8093   -2.2218   -2.4483 H   0  0  0  0  0  0  0  0  0  0  0  0
   -0.2671   -3.3068   -1.1918 H   0  0  0  0  0  0  0  0  0  0  0  0
    0.8139   -2.2201    2.4500 H   0  0  0  0  0  0  0  0  0  0  0  0
    0.2690   -3.3062    1.1955 H   0  0  0  0  0  0  0  0  0  0  0  0
    0.2675    3.3071   -1.1913 H   0  0  0  0  0  0  0  0  0  0  0  0
    0.8094    2.2222   -2.4481 H   0  0  0  0  0  0  0  0  0  0  0  0
   -0.2692    3.3062    1.1960 H   0  0  0  0  0  0  0  0  0  0  0  0
   -0.8143    2.2199    2.4502 H   0  0  0  0  0  0  0  0  0  0  0  0
    0.0001    0.0003   -2.4624 H   0  0  0  0  0  0  0  0  0  0  0  0
   -0.0001    0.0000    2.4647 H   0  0  0  0  0  0  0  0  0  0  0  0
   -2.8917   -3.0381   -1.7533 H   0  0  0  0  0  0  0  0  0  0  0  0
   -2.3559   -3.3134   -0.1087 H   0  0  0  0  0  0  0  0  0  0  0  0
    2.8944   -3.0386    1.7505 H   0  0  0  0  0  0  0  0  0  0  0  0
    2.3554   -3.3121    0.1067 H   0  0  0  0  0  0  0  0  0  0  0  0
    2.3565    3.3134   -0.1086 H   0  0  0  0  0  0  0  0  0  0  0  0
    2.8920    3.0381   -1.7532 H   0  0  0  0  0  0  0  0  0  0  0  0
   -2.3552    3.3119    0.1064 H   0  0  0  0  0  0  0  0  0  0  0  0
   -2.8947    3.0386    1.7501 H   0  0  0  0  0  0  0  0  0  0  0  0
   -3.1249   -0.4189   -2.4481 H   0  0  0  0  0  0  0  0  0  0  0  0
    3.1095   -1.8766   -1.6150 H   0  0  0  0  0  0  0  0  0  0  0  0
   -3.1092   -1.8775    1.6137 H   0  0  0  0  0  0  0  0  0  0  0  0
    3.1261   -0.4180    2.4467 H   0  0  0  0  0  0  0  0  0  0  0  0
   -3.1098    1.8765   -1.6150 H   0  0  0  0  0  0  0  0  0  0  0  0
    3.1247    0.4188   -2.4481 H   0  0  0  0  0  0  0  0  0  0  0  0
   -3.1259    0.4179    2.4467 H   0  0  0  0  0  0  0  0  0  0  0  0
    3.1095    1.8774    1.6136 H   0  0  0  0  0  0  0  0  0  0  0  0
  1  2  2  0  0  0  0
  1  5  1  0  0  0  0
  1  9  1  0  0  0  0
  2  6  1  0  0  0  0
  2 10  1  0  0  0  0
  3  4  1  0  0  0  0
  3  7  1  0  0  0  0
  3  9  2  0  0  0  0
  4  8  1  0  0  0  0
  4 10  2  0  0  0  0
  5 11  1  0  0  0  0
  5 27  1  0  0  0  0
  5 28  1  0  0  0  0
  6 12  1  0  0  0  0
  6 29  1  0  0  0  0
  6 30  1  0  0  0  0
  7 13  1  0  0  0  0
  7 31  1  0  0  0  0
  7 32  1  0  0  0  0
  8 14  1  0  0  0  0
  8 33  1  0  0  0  0
  8 34  1  0  0  0  0
  9 35  1  0  0  0  0
 10 36  1  0  0  0  0
 11 15  1  0  0  0  0
 11 37  1  0  0  0  0
 11 38  1  0  0  0  0
 12 16  1  0  0  0  0
 12 39  1  0  0  0  0
 12 40  1  0  0  0  0
 13 17  1  0  0  0  0
 13 41  1  0  0  0  0
 13 42  1  0  0  0  0
 14 18  1  0  0  0  0
 14 43  1  0  0  0  0
 14 44  1  0  0  0  0
 15 19  2  0  0  0  0
 15 21  1  0  0  0  0
 16 20  2  0  0  0  0
 16 22  1  0  0  0  0
 17 24  2  0  0  0  0
 17 26  1  0  0  0  0
 18 23  2  0  0  0  0
 18 25  1  0  0  0  0
 19 23  1  0  0  0  0
 19 45  1  0  0  0  0
 20 24  1  0  0  0  0
 20 46  1  0  0  0  0
 21 25  2  0  0  0  0
 21 47  1  0  0  0  0
 22 26  2  0  0  0  0
 22 48  1  0  0  0  0
 23 49  1  0  0  0  0
 24 50  1  0  0  0  0
 25 51  1  0  0  0  0
 26 52  1  0  0  0  0
M  END
> <PUBCHEM_COMPOUND_CID>
12300268

> <PUBCHEM_CONFORMER_RMSD>
0.6

> <PUBCHEM_CONFORMER_DIVERSEORDER>
1
2

> <PUBCHEM_MMFF94_PARTIAL_CHARGES>
36
1 -0.14
10 -0.15
11 0.14
12 0.14
13 0.14
14 0.14
15 -0.14
16 -0.14
17 -0.14
18 -0.14
19 -0.15
2 -0.14
20 -0.15
21 -0.15
22 -0.15
23 -0.15
24 -0.15
25 -0.15
26 -0.15
3 -0.14
35 0.15
36 0.15
4 -0.14
45 0.15
46 0.15
47 0.15
48 0.15
49 0.15
5 0.14
50 0.15
51 0.15
52 0.15
6 0.14
7 0.14
8 0.14
9 -0.15

> <PUBCHEM_EFFECTIVE_ROTOR_COUNT>
1.6

> <PUBCHEM_PHARMACOPHORE_FEATURES>
3
6 1 2 3 4 9 10 rings
6 15 18 19 21 23 25 rings
6 16 17 20 22 24 26 rings

> <PUBCHEM_HEAVY_ATOM_COUNT>
26

> <PUBCHEM_ATOM_DEF_STEREO_COUNT>
0

> <PUBCHEM_ATOM_UDEF_STEREO_COUNT>
0

> <PUBCHEM_BOND_DEF_STEREO_COUNT>
0

> <PUBCHEM_BOND_UDEF_STEREO_COUNT>
0

> <PUBCHEM_ISOTOPIC_ATOM_COUNT>
0

> <PUBCHEM_COMPONENT_COUNT>
1

> <PUBCHEM_CACTVS_TAUTO_COUNT>
1

> <PUBCHEM_CONFORMER_ID>
00BBAFEC00000001

> <PUBCHEM_MMFF94_ENERGY>
166.6234

> <PUBCHEM_FEATURE_SELFOVERLAP>
15.224

> <PUBCHEM_SHAPE_FINGERPRINT>
10863032 1 18412260631704054731
11244481 83 13985239863336587414
11578080 2 18050248631567415489
12156800 1 15596485093257942520
12788726 201 18050855712467350716
13132413 78 18410008844917702799
13140716 1 17978510063404319073
13224815 77 18410573989446418666
13583140 156 17894918408087215569
13965767 371 17693095163112261032
14223421 5 18337953368187862434
14787075 74 18050287264802575859
16752209 62 18201717306280312789
16945 1 18410855464423129094
18186145 218 18335707156253262422
20691752 17 18040715870196361622
20905425 154 18199752616419338253
22149856 69 17053325631864912361
23419403 2 17260973139295487172
23559900 14 17918281935203771740
2748010 2 15672666500139843680
392239 28 18056740243297287136
90525 40 18270966722146528503

> <PUBCHEM_SHAPE_MULTIPOLES>
535.07
6.11
3.19
1.7
0
0
0
0
0
0
0
0
0
-1.28

> <PUBCHEM_SHAPE_SELFOVERLAP>
1190.877

> <PUBCHEM_SHAPE_VOLUME>
261.8

> <PUBCHEM_COORDINATE_TYPE>
2
5
10

$$$$
