137169
  -OEChem-11012400543D

 24 26  0     0  0  0  0  0  0999 V2000
    0.3379   -2.6653    0.0026 O   0  0  0  0  0  0  0  0  0  0  0  0
    0.3379    2.6654    0.0054 O   0  0  0  0  0  0  0  0  0  0  0  0
   -2.3069   -2.6549    0.0008 O   0  0  0  0  0  0  0  0  0  0  0  0
   -2.3072    2.6549   -0.0017 O   0  0  0  0  0  0  0  0  0  0  0  0
   -0.9675   -0.6729    0.0004 C   0  0  0  0  0  0  0  0  0  0  0  0
   -0.9675    0.6729    0.0003 C   0  0  0  0  0  0  0  0  0  0  0  0
    1.5869   -0.6945    0.0001 C   0  0  0  0  0  0  0  0  0  0  0  0
    1.5870    0.6946    0.0002 C   0  0  0  0  0  0  0  0  0  0  0  0
    0.3191   -1.4389    0.0016 C   0  0  0  0  0  0  0  0  0  0  0  0
    0.3191    1.4390    0.0015 C   0  0  0  0  0  0  0  0  0  0  0  0
   -2.2619   -1.4279    0.0000 C   0  0  0  0  0  0  0  0  0  0  0  0
   -2.2620    1.4278   -0.0008 C   0  0  0  0  0  0  0  0  0  0  0  0
    2.8019   -1.3931   -0.0012 C   0  0  0  0  0  0  0  0  0  0  0  0
    2.8020    1.3931   -0.0007 C   0  0  0  0  0  0  0  0  0  0  0  0
   -3.5197   -0.6647   -0.0018 C   0  0  0  0  0  0  0  0  0  0  0  0
   -3.5198    0.6645   -0.0025 C   0  0  0  0  0  0  0  0  0  0  0  0
    4.0103   -0.6961   -0.0023 C   0  0  0  0  0  0  0  0  0  0  0  0
    4.0103    0.6961   -0.0020 C   0  0  0  0  0  0  0  0  0  0  0  0
    2.8292   -2.4796   -0.0013 H   0  0  0  0  0  0  0  0  0  0  0  0
    2.8293    2.4796   -0.0006 H   0  0  0  0  0  0  0  0  0  0  0  0
   -4.4503   -1.2212   -0.0029 H   0  0  0  0  0  0  0  0  0  0  0  0
   -4.4505    1.2209   -0.0040 H   0  0  0  0  0  0  0  0  0  0  0  0
    4.9506   -1.2396   -0.0032 H   0  0  0  0  0  0  0  0  0  0  0  0
    4.9506    1.2395   -0.0027 H   0  0  0  0  0  0  0  0  0  0  0  0
  1  9  2  0  0  0  0
  2 10  2  0  0  0  0
  3 11  2  0  0  0  0
  4 12  2  0  0  0  0
  5  6  2  0  0  0  0
  5  9  1  0  0  0  0
  5 11  1  0  0  0  0
  6 10  1  0  0  0  0
  6 12  1  0  0  0  0
  7  8  1  0  0  0  0
  7  9  1  0  0  0  0
  7 13  2  0  0  0  0
  8 10  1  0  0  0  0
  8 14  2  0  0  0  0
 11 15  1  0  0  0  0
 12 16  1  0  0  0  0
 13 17  1  0  0  0  0
 13 19  1  0  0  0  0
 14 18  1  0  0  0  0
 14 20  1  0  0  0  0
 15 16  2  0  0  0  0
 15 21  1  0  0  0  0
 16 22  1  0  0  0  0
 17 18  2  0  0  0  0
 17 23  1  0  0  0  0
 18 24  1  0  0  0  0
M  END
> <PUBCHEM_COMPOUND_CID>
137169

> <PUBCHEM_CONFORMER_RMSD>
0.4

> <PUBCHEM_CONFORMER_DIVERSEORDER>
1

> <PUBCHEM_MMFF94_PARTIAL_CHARGES>
24
1 -0.57
10 0.47
11 0.54
12 0.54
13 -0.15
14 -0.15
15 -0.14
16 -0.14
17 -0.15
18 -0.15
19 0.15
2 -0.57
20 0.15
21 0.15
22 0.15
23 0.15
24 0.15
3 -0.57
4 -0.57
5 0.03
6 0.03
7 0.09
8 0.09
9 0.47

> <PUBCHEM_EFFECTIVE_ROTOR_COUNT>
0

> <PUBCHEM_PHARMACOPHORE_FEATURES>
7
1 1 acceptor
1 2 acceptor
1 3 acceptor
1 4 acceptor
6 5 6 11 12 15 16 rings
6 5 6 7 8 9 10 rings
6 7 8 13 14 17 18 rings

> <PUBCHEM_HEAVY_ATOM_COUNT>
18

> <PUBCHEM_ATOM_DEF_STEREO_COUNT>
0

> <PUBCHEM_ATOM_UDEF_STEREO_COUNT>
0

> <PUBCHEM_BOND_DEF_STEREO_COUNT>
0

> <PUBCHEM_BOND_UDEF_STEREO_COUNT>
0

> <PUBCHEM_ISOTOPIC_ATOM_COUNT>
0

> <PUBCHEM_COMPONENT_COUNT>
1

> <PUBCHEM_CACTVS_TAUTO_COUNT>
1

> <PUBCHEM_CONFORMER_ID>
000217D100000001

> <PUBCHEM_MMFF94_ENERGY>
50.9964

> <PUBCHEM_FEATURE_SELFOVERLAP>
35.576

> <PUBCHEM_SHAPE_FINGERPRINT>
10062212 137 18336537231639941522
10411042 1 17834114521355002122
10493431 412 18198070183673393897
10608611 8 18412542115518860232
10616163 171 18411421730271014886
10967382 1 18410575041718713190
11132069 177 18410569595895386824
12382932 28 18340206263223560993
13132413 78 18411420617747793876
13140716 1 18410854317951698096
13221675 6 18410292514564815747
13380535 76 18411417267773575055
14614273 12 18187639155261609389
14790565 3 18339375054172452297
15196674 1 18410856559671438095
15442244 35 18265612083376618874
15536298 74 18342738516318032004
16945 1 18410855464776537475
17804303 29 18413112770432555468
18186145 218 18201165360328593752
193761 8 17834114143518315910
19591789 44 18338519629524580874
200 152 18131340926210037309
20510252 161 18343866606173269640
21029758 11 18343012298929661985
21267235 1 18410302401590301482
21501502 16 18410011022497744282
221490 88 18264496250872910202
2334 1 18410855490425021954
23402539 116 18342448275239477334
23463225 33 18408322172769394612
23559900 14 18270962333328437390
238 59 15948475792555143597
2748010 2 18411419514109730878
335352 9 17978510836762215510
34934 24 18410003347217145490
43471831 8 18335135341551152482
474 4 17096377318343878020
5104073 3 18410856559645071810
54173680 148 18337392771956049899
69090 78 18341890783973120247
7364860 26 18125440808896883406
8809292 202 18261677068451816339
9709674 26 18342179946957401054

> <PUBCHEM_SHAPE_MULTIPOLES>
346.95
6.39
2.73
0.6
1.96
0
0
0
-0.01
-1.03
0
0.02
0
0

> <PUBCHEM_SHAPE_SELFOVERLAP>
786.879

> <PUBCHEM_SHAPE_VOLUME>
178.8

> <PUBCHEM_COORDINATE_TYPE>
2
5
10

$$$$
