142294
  -OEChem-11012400323D

 27 26  0     1  0  0  0  0  0999 V2000
   -1.4042    0.6875   -0.4433 O   0  0  0  0  0  0  0  0  0  0  0  0
   -0.2769   -0.0257    0.1405 O   0  0  0  0  0  0  0  0  0  0  0  0
    2.1743   -1.3614   -0.2332 O   0  0  0  0  0  0  0  0  0  0  0  0
    4.5284    0.0460    0.3154 O   0  0  0  0  0  0  0  0  0  0  0  0
   -2.5628   -0.0022    0.0276 C   0  0  0  0  0  0  0  0  0  0  0  0
   -2.5762    0.0558    1.5544 C   0  0  0  0  0  0  0  0  0  0  0  0
   -3.7863    0.7078   -0.5480 C   0  0  0  0  0  0  0  0  0  0  0  0
   -2.5008   -1.4481   -0.4623 C   0  0  0  0  0  0  0  0  0  0  0  0
    2.1319   -0.0093    0.2285 C   0  0  2  0  0  0  0  0  0  0  0  0
    0.8778    0.6574   -0.3256 C   0  0  0  0  0  0  0  0  0  0  0  0
    3.3948    0.6922   -0.2539 C   0  0  0  0  0  0  0  0  0  0  0  0
   -2.4787    1.0896    1.9054 H   0  0  0  0  0  0  0  0  0  0  0  0
   -3.5075   -0.3575    1.9567 H   0  0  0  0  0  0  0  0  0  0  0  0
   -1.7500   -0.5067    2.0029 H   0  0  0  0  0  0  0  0  0  0  0  0
   -3.7556    0.7101   -1.6437 H   0  0  0  0  0  0  0  0  0  0  0  0
   -3.8087    1.7587   -0.2373 H   0  0  0  0  0  0  0  0  0  0  0  0
   -4.7191    0.2320   -0.2284 H   0  0  0  0  0  0  0  0  0  0  0  0
   -1.6713   -2.0069   -0.0151 H   0  0  0  0  0  0  0  0  0  0  0  0
   -3.4241   -1.9864   -0.2215 H   0  0  0  0  0  0  0  0  0  0  0  0
   -2.3540   -1.4850   -1.5479 H   0  0  0  0  0  0  0  0  0  0  0  0
    2.1044   -0.0534    1.3230 H   0  0  0  0  0  0  0  0  0  0  0  0
    0.8793    0.6157   -1.4213 H   0  0  0  0  0  0  0  0  0  0  0  0
    0.8297    1.7045   -0.0064 H   0  0  0  0  0  0  0  0  0  0  0  0
    3.4094    1.7417    0.0544 H   0  0  0  0  0  0  0  0  0  0  0  0
    3.4953    0.6402   -1.3431 H   0  0  0  0  0  0  0  0  0  0  0  0
    1.3531   -1.7935    0.0579 H   0  0  0  0  0  0  0  0  0  0  0  0
    4.5000   -0.8868    0.0417 H   0  0  0  0  0  0  0  0  0  0  0  0
  1  2  1  0  0  0  0
  1  5  1  0  0  0  0
  2 10  1  0  0  0  0
  3  9  1  0  0  0  0
  3 26  1  0  0  0  0
  4 11  1  0  0  0  0
  4 27  1  0  0  0  0
  5  6  1  0  0  0  0
  5  7  1  0  0  0  0
  5  8  1  0  0  0  0
  6 12  1  0  0  0  0
  6 13  1  0  0  0  0
  6 14  1  0  0  0  0
  7 15  1  0  0  0  0
  7 16  1  0  0  0  0
  7 17  1  0  0  0  0
  8 18  1  0  0  0  0
  8 19  1  0  0  0  0
  8 20  1  0  0  0  0
  9 10  1  0  0  0  0
  9 11  1  0  0  0  0
  9 21  1  0  0  0  0
 10 22  1  0  0  0  0
 10 23  1  0  0  0  0
 11 24  1  0  0  0  0
 11 25  1  0  0  0  0
M  END
> <PUBCHEM_COMPOUND_CID>
142294

> <PUBCHEM_CONFORMER_RMSD>
0.6

> <PUBCHEM_CONFORMER_DIVERSEORDER>
1
37
4
40
26
2
19
3
38
25
39
36
15
21
17
31
41
12
22
10
34
5
13
33
8
32
18
24
28
14
29
16
35
20
30
6
23
9
27
7
11

> <PUBCHEM_MMFF94_PARTIAL_CHARGES>
10
1 -0.28
10 0.28
11 0.28
2 -0.28
26 0.4
27 0.4
3 -0.68
4 -0.68
5 0.28
9 0.28

> <PUBCHEM_EFFECTIVE_ROTOR_COUNT>
5

> <PUBCHEM_PHARMACOPHORE_FEATURES>
5
1 3 acceptor
1 3 donor
1 4 acceptor
1 4 donor
4 5 6 7 8 hydrophobe

> <PUBCHEM_HEAVY_ATOM_COUNT>
11

> <PUBCHEM_ATOM_DEF_STEREO_COUNT>
0

> <PUBCHEM_ATOM_UDEF_STEREO_COUNT>
1

> <PUBCHEM_BOND_DEF_STEREO_COUNT>
0

> <PUBCHEM_BOND_UDEF_STEREO_COUNT>
0

> <PUBCHEM_ISOTOPIC_ATOM_COUNT>
0

> <PUBCHEM_COMPONENT_COUNT>
1

> <PUBCHEM_CACTVS_TAUTO_COUNT>
1

> <PUBCHEM_CONFORMER_ID>
00022BD600000001

> <PUBCHEM_MMFF94_ENERGY>
19.4745

> <PUBCHEM_FEATURE_SELFOVERLAP>
25.379

> <PUBCHEM_SHAPE_FINGERPRINT>
11062470 55 18113897156438388140
12500047 106 18342167865219243215
12932764 1 18411140246551154872
14144814 61 17989211425436092923
14325111 11 18409729573185374926
14577589 140 18186239532941770047
15775835 57 18411418405960949015
187816 3 17346590873237341645
190213 19 17632580461312352308
20201158 50 18259423013679794450
20279233 1 18113623369511166091
20645464 45 17313107449498947873
20645477 70 18337666391416672246
20828058 21 14692574321027218400
22485316 2 18409161113047427570
23402539 116 17822002125669974196
3248919 1 17489314083085547133

> <PUBCHEM_SHAPE_MULTIPOLES>
202.9
7.68
1.1
0.93
4.73
0.37
-0.33
-0.52
-0.07
-0.28
0.2
-0.74
-0.03
-0.04

> <PUBCHEM_SHAPE_SELFOVERLAP>
372.035

> <PUBCHEM_SHAPE_VOLUME>
130.8

> <PUBCHEM_COORDINATE_TYPE>
2
5
10

$$$$
