142002
  -OEChem-11012401083D

 26 25  0     1  0  0  0  0  0999 V2000
    2.3786    1.3668   -1.0005 O   0  0  0  0  0  0  0  0  0  0  0  0
   -2.2992   -1.3454    1.0545 O   0  0  0  0  0  0  0  0  0  0  0  0
    2.0016    1.1857    1.2288 O   0  0  0  0  0  0  0  0  0  0  0  0
   -2.0658   -1.2258   -1.1985 O   0  0  0  0  0  0  0  0  0  0  0  0
    0.7151   -0.2142   -0.2910 C   0  0  2  0  0  0  0  0  0  0  0  0
   -0.6899    0.2182    0.2108 C   0  0  1  0  0  0  0  0  0  0  0  0
    1.1570   -1.5566    0.3310 C   0  0  0  0  0  0  0  0  0  0  0  0
   -1.1962    1.5595   -0.3623 C   0  0  0  0  0  0  0  0  0  0  0  0
    1.7465    0.8440    0.0804 C   0  0  0  0  0  0  0  0  0  0  0  0
   -1.7372   -0.8524   -0.0798 C   0  0  0  0  0  0  0  0  0  0  0  0
    2.5273   -2.0104   -0.1589 C   0  0  0  0  0  0  0  0  0  0  0  0
   -2.5378    2.0307    0.1856 C   0  0  0  0  0  0  0  0  0  0  0  0
    0.6897   -0.3201   -1.3833 H   0  0  0  0  0  0  0  0  0  0  0  0
   -0.6348    0.3371    1.3026 H   0  0  0  0  0  0  0  0  0  0  0  0
    0.4342   -2.3408    0.0792 H   0  0  0  0  0  0  0  0  0  0  0  0
    1.1793   -1.4812    1.4252 H   0  0  0  0  0  0  0  0  0  0  0  0
   -0.4591    2.3440   -0.1547 H   0  0  0  0  0  0  0  0  0  0  0  0
   -1.2726    1.4856   -1.4545 H   0  0  0  0  0  0  0  0  0  0  0  0
    2.5519   -2.0729   -1.2515 H   0  0  0  0  0  0  0  0  0  0  0  0
    2.7571   -3.0032    0.2413 H   0  0  0  0  0  0  0  0  0  0  0  0
    3.3211   -1.3320    0.1678 H   0  0  0  0  0  0  0  0  0  0  0  0
   -3.3473    1.3484   -0.0901 H   0  0  0  0  0  0  0  0  0  0  0  0
   -2.7831    3.0182   -0.2182 H   0  0  0  0  0  0  0  0  0  0  0  0
   -2.5070    2.1082    1.2769 H   0  0  0  0  0  0  0  0  0  0  0  0
    3.0448    2.0397   -0.7445 H   0  0  0  0  0  0  0  0  0  0  0  0
   -2.9788   -2.0254    0.8597 H   0  0  0  0  0  0  0  0  0  0  0  0
  1  9  1  0  0  0  0
  1 25  1  0  0  0  0
  2 10  1  0  0  0  0
  2 26  1  0  0  0  0
  3  9  2  0  0  0  0
  4 10  2  0  0  0  0
  5  6  1  0  0  0  0
  5  7  1  0  0  0  0
  5  9  1  0  0  0  0
  5 13  1  0  0  0  0
  6  8  1  0  0  0  0
  6 10  1  0  0  0  0
  6 14  1  0  0  0  0
  7 11  1  0  0  0  0
  7 15  1  0  0  0  0
  7 16  1  0  0  0  0
  8 12  1  0  0  0  0
  8 17  1  0  0  0  0
  8 18  1  0  0  0  0
 11 19  1  0  0  0  0
 11 20  1  0  0  0  0
 11 21  1  0  0  0  0
 12 22  1  0  0  0  0
 12 23  1  0  0  0  0
 12 24  1  0  0  0  0
M  END
> <PUBCHEM_COMPOUND_CID>
142002

> <PUBCHEM_CONFORMER_RMSD>
0.6

> <PUBCHEM_CONFORMER_DIVERSEORDER>
1
23
58
15
62
36
63
59
26
47
21
11
38
64
25
45
33
57
6
19
56
41
9
51
29
52
27
66
34
5
49
22
65
55
4
30
54
16
7
60
44
3
35
40
28
61
17
24
53
12
50
42
43
2
18
20
13
48
14
39
37
8
32
10
31
46

> <PUBCHEM_MMFF94_PARTIAL_CHARGES>
10
1 -0.65
10 0.66
2 -0.65
25 0.5
26 0.5
3 -0.57
4 -0.57
5 0.06
6 0.06
9 0.66

> <PUBCHEM_EFFECTIVE_ROTOR_COUNT>
5

> <PUBCHEM_PHARMACOPHORE_FEATURES>
9
1 1 acceptor
1 11 hydrophobe
1 12 hydrophobe
1 2 acceptor
1 3 acceptor
1 4 acceptor
3 1 3 9 anion
3 2 4 10 anion
4 5 6 7 8 hydrophobe

> <PUBCHEM_HEAVY_ATOM_COUNT>
12

> <PUBCHEM_ATOM_DEF_STEREO_COUNT>
0

> <PUBCHEM_ATOM_UDEF_STEREO_COUNT>
2

> <PUBCHEM_BOND_DEF_STEREO_COUNT>
0

> <PUBCHEM_BOND_UDEF_STEREO_COUNT>
0

> <PUBCHEM_ISOTOPIC_ATOM_COUNT>
0

> <PUBCHEM_COMPONENT_COUNT>
1

> <PUBCHEM_CACTVS_TAUTO_COUNT>
1

> <PUBCHEM_CONFORMER_ID>
00022AB200000001

> <PUBCHEM_MMFF94_ENERGY>
14.0901

> <PUBCHEM_FEATURE_SELFOVERLAP>
45.79

> <PUBCHEM_SHAPE_FINGERPRINT>
12897270 3 18266456683956986580
12932764 1 18060424654636488163
13380535 21 18337406949526880464
13380536 237 18196343997139841657
14128692 85 18341335487925921982
14648413 74 18339080380691792320
14993402 34 17834675998133686223
16945 1 18196087965549100166
18511873 20 18051693235237091618
19973954 147 18407760322011089956
20082192 1 17749656429062121908
20511035 2 18270112409874588196
20653091 64 18187361004774357930
207724 885 17977388226678982586
21040471 1 18339077073467117741
21501502 16 18410855425773717741
23552423 10 18334011670563173934
2748010 2 18410291389188295886
3248919 1 18186792612638260972
5084963 1 18057895825459276332
8030462 33 18411415137358714869

> <PUBCHEM_SHAPE_MULTIPOLES>
223.48
3.99
2.3
0.96
0.01
0
-0.02
0.05
0
0.02
0
0.01
0
-0.01

> <PUBCHEM_SHAPE_SELFOVERLAP>
425.66

> <PUBCHEM_SHAPE_VOLUME>
137.9

> <PUBCHEM_COORDINATE_TYPE>
2
5
10

$$$$
