66889629
  -OEChem-11012401053D

 39 40  0     0  0  0  0  0  0999 V2000
    0.0039   -2.3599   -0.0195 Si  0  0  0  0  0  0  0  0  0  0  0  0
   -1.2644   -1.3935   -0.5168 O   0  0  0  0  0  0  0  0  0  0  0  0
    1.2817   -1.4071    0.4801 O   0  0  0  0  0  0  0  0  0  0  0  0
   -0.5458   -3.4792    1.3917 C   0  0  0  0  0  0  0  0  0  0  0  0
    0.5426   -3.4811   -1.4333 C   0  0  0  0  0  0  0  0  0  0  0  0
   -1.8221   -0.2365   -0.0402 C   0  0  0  0  0  0  0  0  0  0  0  0
    1.8247   -0.2326    0.0302 C   0  0  0  0  0  0  0  0  0  0  0  0
   -2.4236    0.6757   -0.9072 C   0  0  0  0  0  0  0  0  0  0  0  0
    2.4449    0.6511    0.9133 C   0  0  0  0  0  0  0  0  0  0  0  0
   -1.7841    0.0241    1.3296 C   0  0  0  0  0  0  0  0  0  0  0  0
    1.7528    0.0748   -1.3284 C   0  0  0  0  0  0  0  0  0  0  0  0
   -2.9870    1.8484   -0.4045 C   0  0  0  0  0  0  0  0  0  0  0  0
    2.9931    1.8424    0.4378 C   0  0  0  0  0  0  0  0  0  0  0  0
   -2.4738    0.4131   -2.3763 C   0  0  0  0  0  0  0  0  0  0  0  0
    2.5316    0.3384    2.3708 C   0  0  0  0  0  0  0  0  0  0  0  0
   -2.3475    1.1969    1.8324 C   0  0  0  0  0  0  0  0  0  0  0  0
    2.3010    1.2661   -1.8041 C   0  0  0  0  0  0  0  0  0  0  0  0
   -2.9490    2.1090    0.9654 C   0  0  0  0  0  0  0  0  0  0  0  0
    2.9211    2.1498   -0.9209 C   0  0  0  0  0  0  0  0  0  0  0  0
    0.2541   -4.1780    1.6543 H   0  0  0  0  0  0  0  0  0  0  0  0
   -1.4256   -4.0593    1.0982 H   0  0  0  0  0  0  0  0  0  0  0  0
   -0.7963   -2.9012    2.2847 H   0  0  0  0  0  0  0  0  0  0  0  0
   -0.2727   -4.1534   -1.7169 H   0  0  0  0  0  0  0  0  0  0  0  0
    1.4009   -4.0892   -1.1328 H   0  0  0  0  0  0  0  0  0  0  0  0
    0.8249   -2.8987   -2.3142 H   0  0  0  0  0  0  0  0  0  0  0  0
   -1.3328   -0.6612    2.0384 H   0  0  0  0  0  0  0  0  0  0  0  0
    1.2871   -0.5892   -2.0487 H   0  0  0  0  0  0  0  0  0  0  0  0
   -3.4591    2.5697   -1.0663 H   0  0  0  0  0  0  0  0  0  0  0  0
    3.4796    2.5419    1.1124 H   0  0  0  0  0  0  0  0  0  0  0  0
   -2.9976    1.2088   -2.9167 H   0  0  0  0  0  0  0  0  0  0  0  0
   -3.0027   -0.5243   -2.5777 H   0  0  0  0  0  0  0  0  0  0  0  0
   -1.4600    0.3484   -2.7851 H   0  0  0  0  0  0  0  0  0  0  0  0
    3.0601    1.1202    2.9266 H   0  0  0  0  0  0  0  0  0  0  0  0
    3.0738   -0.6001    2.5271 H   0  0  0  0  0  0  0  0  0  0  0  0
    1.5282    0.2492    2.8001 H   0  0  0  0  0  0  0  0  0  0  0  0
   -2.3191    1.3997    2.8991 H   0  0  0  0  0  0  0  0  0  0  0  0
    2.2464    1.5051   -2.8622 H   0  0  0  0  0  0  0  0  0  0  0  0
   -3.3877    3.0221    1.3570 H   0  0  0  0  0  0  0  0  0  0  0  0
    3.3480    3.0772   -1.2914 H   0  0  0  0  0  0  0  0  0  0  0  0
  1  2  1  0  0  0  0
  1  3  1  0  0  0  0
  1  4  1  0  0  0  0
  1  5  1  0  0  0  0
  2  6  1  0  0  0  0
  3  7  1  0  0  0  0
  4 20  1  0  0  0  0
  4 21  1  0  0  0  0
  4 22  1  0  0  0  0
  5 23  1  0  0  0  0
  5 24  1  0  0  0  0
  5 25  1  0  0  0  0
  6  8  1  0  0  0  0
  6 10  2  0  0  0  0
  7  9  1  0  0  0  0
  7 11  2  0  0  0  0
  8 12  2  0  0  0  0
  8 14  1  0  0  0  0
  9 13  2  0  0  0  0
  9 15  1  0  0  0  0
 10 16  1  0  0  0  0
 10 26  1  0  0  0  0
 11 17  1  0  0  0  0
 11 27  1  0  0  0  0
 12 18  1  0  0  0  0
 12 28  1  0  0  0  0
 13 19  1  0  0  0  0
 13 29  1  0  0  0  0
 14 30  1  0  0  0  0
 14 31  1  0  0  0  0
 14 32  1  0  0  0  0
 15 33  1  0  0  0  0
 15 34  1  0  0  0  0
 15 35  1  0  0  0  0
 16 18  2  0  0  0  0
 16 36  1  0  0  0  0
 17 19  2  0  0  0  0
 17 37  1  0  0  0  0
 18 38  1  0  0  0  0
 19 39  1  0  0  0  0
M  END
> <PUBCHEM_COMPOUND_CID>
66889629

> <PUBCHEM_CONFORMER_RMSD>
0.6

> <PUBCHEM_CONFORMER_DIVERSEORDER>
1
87
65
41
5
58
30
57
26
3
13
54
42
2
66
86
40
43
44
52
77
84
72
35
85
15
7
22
29
53
64
88
51
90
27
76
93
24
56
37
49
18
61
38
50
8
80
73
23
11
55
89
78
75
46
74
96
67
45
59
68
25
94
21
62
6
20
9
36
83
31
39
32
71
33
60
91
4
19
82
48
70
63
95
16
69
17
79
14
28
10
12
34
92
47
81

> <PUBCHEM_MMFF94_PARTIAL_CHARGES>
27
1 0.76
10 -0.15
11 -0.15
12 -0.15
13 -0.15
14 0.14
15 0.14
16 -0.15
17 -0.15
18 -0.15
19 -0.15
2 -0.38
26 0.15
27 0.15
28 0.15
29 0.15
3 -0.38
36 0.15
37 0.15
38 0.15
39 0.15
4 -0.08
5 -0.08
6 0.08
7 0.08
8 -0.14
9 -0.14

> <PUBCHEM_EFFECTIVE_ROTOR_COUNT>
4

> <PUBCHEM_PHARMACOPHORE_FEATURES>
2
6 6 8 10 12 16 18 rings
6 7 9 11 13 17 19 rings

> <PUBCHEM_HEAVY_ATOM_COUNT>
19

> <PUBCHEM_ATOM_DEF_STEREO_COUNT>
0

> <PUBCHEM_ATOM_UDEF_STEREO_COUNT>
0

> <PUBCHEM_BOND_DEF_STEREO_COUNT>
0

> <PUBCHEM_BOND_UDEF_STEREO_COUNT>
0

> <PUBCHEM_ISOTOPIC_ATOM_COUNT>
0

> <PUBCHEM_COMPONENT_COUNT>
1

> <PUBCHEM_CACTVS_TAUTO_COUNT>
1

> <PUBCHEM_CONFORMER_ID>
03FCA79D00000001

> <PUBCHEM_MMFF94_ENERGY>
47.8771

> <PUBCHEM_FEATURE_SELFOVERLAP>
10.149

> <PUBCHEM_SHAPE_FINGERPRINT>
10165383 225 17690051920863181245
11578080 2 12915159829748452870
11640471 11 18129081356394493805
12156800 1 15377021498675755404
12173636 292 18270976733610105733
12633257 1 17096095658245925001
128993 33 18267045940580230184
13132413 78 17552368674368371310
133893 2 18120645843067307743
13681431 1 17762909761824352638
13764800 53 18124609822787214154
13994607 96 17051008259956706432
14181834 199 17909247110271126187
14386348 128 18266766664626638661
14713325 29 17685537451349006750
15664445 248 15839261637949751529
15852999 172 18265871657871975439
18981168 100 18339093639013079395
192875 21 18125972018883653700
20510252 161 17758680340393255642
20600515 1 17259075510732300566
21475661 188 17246952931644274725
21524375 3 18410862061493389450
21731228 192 18408045108528905274
23419403 2 14065945923776147643
23557571 272 17552081019007431780
238 59 18336828568177776143
31174 14 17756163197747709739
350125 39 18337971041947293106
35225 105 18123741212943678630
3797600 57 17026882685198268960
474 4 18264481794034246641
5262128 65 15769773546049871721
5845 1 17264420219437809566
6442390 28 17983889862526036003
6992083 37 17897136166190709602
81228 2 17906748246626921434
9981440 41 17629740500329896378

> <PUBCHEM_SHAPE_MULTIPOLES>
397.49
5.1
3.62
2.17
0
3.55
0
-4.85
0.11
-0.03
-0.05
0.01
-0.23
-0.3

> <PUBCHEM_SHAPE_SELFOVERLAP>
816.758

> <PUBCHEM_SHAPE_VOLUME>
230.9

> <PUBCHEM_COORDINATE_TYPE>
2
5
10

$$$$
