141703
  -OEChem-11012401263D

 28 28  0     0  0  0  0  0  0999 V2000
    2.6615    1.7065    0.8784 O   0  0  0  0  0  0  0  0  0  0  0  0
    3.1580   -0.4139   -0.2287 C   0  0  0  0  0  0  0  0  0  0  0  0
    2.8794   -0.5883   -1.7284 C   0  0  0  0  0  0  0  0  0  0  0  0
    4.6296   -0.0076   -0.0413 C   0  0  0  0  0  0  0  0  0  0  0  0
    2.9109   -1.7357    0.5122 C   0  0  0  0  0  0  0  0  0  0  0  0
    2.2508    0.6826    0.3455 C   0  0  0  0  0  0  0  0  0  0  0  0
    0.8188    0.4886    0.2500 C   0  0  0  0  0  0  0  0  0  0  0  0
   -1.7804    0.1216    0.0704 C   0  0  0  0  0  0  0  0  0  0  0  0
   -0.3682    0.3245    0.1697 C   0  0  0  0  0  0  0  0  0  0  0  0
   -2.3468   -1.0676    0.5275 C   0  0  0  0  0  0  0  0  0  0  0  0
   -2.5891    1.1135   -0.4831 C   0  0  0  0  0  0  0  0  0  0  0  0
   -3.7241   -1.2656    0.4306 C   0  0  0  0  0  0  0  0  0  0  0  0
   -3.9665    0.9155   -0.5799 C   0  0  0  0  0  0  0  0  0  0  0  0
   -4.5339   -0.2741   -0.1229 C   0  0  0  0  0  0  0  0  0  0  0  0
    1.8621   -0.9507   -1.9139 H   0  0  0  0  0  0  0  0  0  0  0  0
    3.5709   -1.3096   -2.1783 H   0  0  0  0  0  0  0  0  0  0  0  0
    2.9889    0.3626   -2.2625 H   0  0  0  0  0  0  0  0  0  0  0  0
    4.8718    0.1303    1.0189 H   0  0  0  0  0  0  0  0  0  0  0  0
    5.3075   -0.7696   -0.4422 H   0  0  0  0  0  0  0  0  0  0  0  0
    4.8490    0.9370   -0.5526 H   0  0  0  0  0  0  0  0  0  0  0  0
    1.8923   -2.1065    0.3530 H   0  0  0  0  0  0  0  0  0  0  0  0
    3.0473   -1.6128    1.5929 H   0  0  0  0  0  0  0  0  0  0  0  0
    3.6009   -2.5158    0.1716 H   0  0  0  0  0  0  0  0  0  0  0  0
   -1.7285   -1.8499    0.9613 H   0  0  0  0  0  0  0  0  0  0  0  0
   -2.1616    2.0461   -0.8437 H   0  0  0  0  0  0  0  0  0  0  0  0
   -4.1662   -2.1917    0.7862 H   0  0  0  0  0  0  0  0  0  0  0  0
   -4.5973    1.6874   -1.0110 H   0  0  0  0  0  0  0  0  0  0  0  0
   -5.6063   -0.4281   -0.1984 H   0  0  0  0  0  0  0  0  0  0  0  0
  1  6  2  0  0  0  0
  2  3  1  0  0  0  0
  2  4  1  0  0  0  0
  2  5  1  0  0  0  0
  2  6  1  0  0  0  0
  3 15  1  0  0  0  0
  3 16  1  0  0  0  0
  3 17  1  0  0  0  0
  4 18  1  0  0  0  0
  4 19  1  0  0  0  0
  4 20  1  0  0  0  0
  5 21  1  0  0  0  0
  5 22  1  0  0  0  0
  5 23  1  0  0  0  0
  6  7  1  0  0  0  0
  7  9  3  0  0  0  0
  8  9  1  0  0  0  0
  8 10  2  0  0  0  0
  8 11  1  0  0  0  0
 10 12  1  0  0  0  0
 10 24  1  0  0  0  0
 11 13  2  0  0  0  0
 11 25  1  0  0  0  0
 12 14  2  0  0  0  0
 12 26  1  0  0  0  0
 13 14  1  0  0  0  0
 13 27  1  0  0  0  0
 14 28  1  0  0  0  0
M  END
> <PUBCHEM_COMPOUND_CID>
141703

> <PUBCHEM_CONFORMER_RMSD>
0.4

> <PUBCHEM_CONFORMER_DIVERSEORDER>
1
2

> <PUBCHEM_MMFF94_PARTIAL_CHARGES>
16
1 -0.57
10 -0.15
11 -0.15
12 -0.15
13 -0.15
14 -0.15
2 0.06
24 0.15
25 0.15
26 0.15
27 0.15
28 0.15
6 0.61
7 -0.1
8 0.07
9 -0.07

> <PUBCHEM_EFFECTIVE_ROTOR_COUNT>
1

> <PUBCHEM_PHARMACOPHORE_FEATURES>
3
1 1 acceptor
4 2 3 4 5 hydrophobe
6 8 10 11 12 13 14 rings

> <PUBCHEM_HEAVY_ATOM_COUNT>
14

> <PUBCHEM_ATOM_DEF_STEREO_COUNT>
0

> <PUBCHEM_ATOM_UDEF_STEREO_COUNT>
0

> <PUBCHEM_BOND_DEF_STEREO_COUNT>
0

> <PUBCHEM_BOND_UDEF_STEREO_COUNT>
0

> <PUBCHEM_ISOTOPIC_ATOM_COUNT>
0

> <PUBCHEM_COMPONENT_COUNT>
1

> <PUBCHEM_CACTVS_TAUTO_COUNT>
1

> <PUBCHEM_CONFORMER_ID>
0002298700000001

> <PUBCHEM_MMFF94_ENERGY>
27.9649

> <PUBCHEM_FEATURE_SELFOVERLAP>
15.223

> <PUBCHEM_SHAPE_FINGERPRINT>
10751810 167 17822016410557101261
11543360 7 17386297574488225021
11615757 297 17632298994719744179
12251169 10 11887951042847758378
12500047 106 18260825999101717207
12616999 72 18113625568993506950
13296908 3 18411698811559244889
14252887 29 17632582630545123910
15242439 84 18410289199124421877
15375358 24 18343017800550393290
17834074 16 18410293622766676419
18186145 218 18413110550150663577
1986462 14 18260830397585785981
200 152 17489866033986373897
20279233 1 18411139142818425890
20432913 95 17132119034841652607
20645477 56 18114457882274230325
20645477 70 18060137647879102630
20671657 53 18272375235085782072
22485316 2 18408602556566098650
23402539 116 17022617572752160726
23557571 272 17822004290080563524
23559900 14 18408598171541769528
26918003 58 18060700593421537987
4214541 1 18335419041357559625
4921388 177 16226061010727450875
77779 3 18334858320339034761
93112 12 18335138704441576941
9709674 26 18336549407935756555

> <PUBCHEM_SHAPE_MULTIPOLES>
282.24
9.7
1.44
0.98
1.3
0.19
-0.33
1
-0.87
0
0.25
-0.68
0.01
0.72

> <PUBCHEM_SHAPE_SELFOVERLAP>
579.237

> <PUBCHEM_SHAPE_VOLUME>
163.3

> <PUBCHEM_COORDINATE_TYPE>
2
5
10

$$$$
