136454
  -OEChem-11012401233D

 48 51  0     0  0  0  0  0  0999 V2000
    0.0136    0.6705    0.4145 C   0  0  0  0  0  0  0  0  0  0  0  0
   -0.0983   -0.6907   -0.4061 C   0  0  0  0  0  0  0  0  0  0  0  0
   -1.1699    1.6116    0.1769 C   0  0  0  0  0  0  0  0  0  0  0  0
    1.3350    1.4234    0.2431 C   0  0  0  0  0  0  0  0  0  0  0  0
   -1.3529   -1.4642   -0.1770 C   0  0  0  0  0  0  0  0  0  0  0  0
    1.1557   -1.5770   -0.2399 C   0  0  0  0  0  0  0  0  0  0  0  0
   -1.5504    2.4597    1.1911 C   0  0  0  0  0  0  0  0  0  0  0  0
    2.3687    1.1441    1.1069 C   0  0  0  0  0  0  0  0  0  0  0  0
   -1.8754   -2.2627   -1.1943 C   0  0  0  0  0  0  0  0  0  0  0  0
    2.1843   -1.4112   -1.1283 C   0  0  0  0  0  0  0  0  0  0  0  0
   -1.8077    1.5730   -1.0414 C   0  0  0  0  0  0  0  0  0  0  0  0
    1.4383    2.3507   -0.7679 C   0  0  0  0  0  0  0  0  0  0  0  0
   -2.0039   -1.3888    1.0543 C   0  0  0  0  0  0  0  0  0  0  0  0
    1.1737   -2.4825    0.7869 C   0  0  0  0  0  0  0  0  0  0  0  0
   -2.6289    3.3174    0.9747 C   0  0  0  0  0  0  0  0  0  0  0  0
    3.5730    1.8302    0.9510 C   0  0  0  0  0  0  0  0  0  0  0  0
   -3.0486   -2.9860   -0.9803 C   0  0  0  0  0  0  0  0  0  0  0  0
    3.3168   -2.2115   -0.9784 C   0  0  0  0  0  0  0  0  0  0  0  0
   -2.8862    2.4307   -1.2578 C   0  0  0  0  0  0  0  0  0  0  0  0
    2.6427    3.0368   -0.9239 C   0  0  0  0  0  0  0  0  0  0  0  0
   -3.1772   -2.1121    1.2684 C   0  0  0  0  0  0  0  0  0  0  0  0
    2.3063   -3.2828    0.9366 C   0  0  0  0  0  0  0  0  0  0  0  0
   -3.2969    3.3029   -0.2497 C   0  0  0  0  0  0  0  0  0  0  0  0
    3.7102    2.7767   -0.0645 C   0  0  0  0  0  0  0  0  0  0  0  0
   -3.6996   -2.9108    0.2511 C   0  0  0  0  0  0  0  0  0  0  0  0
    3.3779   -3.1474    0.0541 C   0  0  0  0  0  0  0  0  0  0  0  0
   -0.0186    0.4042    1.4812 H   0  0  0  0  0  0  0  0  0  0  0  0
   -0.0882   -0.4210   -1.4718 H   0  0  0  0  0  0  0  0  0  0  0  0
   -1.0355    2.4773    2.1466 H   0  0  0  0  0  0  0  0  0  0  0  0
    2.2721    0.4138    1.9042 H   0  0  0  0  0  0  0  0  0  0  0  0
   -1.3789   -2.3319   -2.1587 H   0  0  0  0  0  0  0  0  0  0  0  0
    2.1449   -0.6892   -1.9373 H   0  0  0  0  0  0  0  0  0  0  0  0
   -1.5110    0.9435   -1.8699 H   0  0  0  0  0  0  0  0  0  0  0  0
    0.6453    2.5624   -1.4747 H   0  0  0  0  0  0  0  0  0  0  0  0
   -1.6271   -0.8066    1.8873 H   0  0  0  0  0  0  0  0  0  0  0  0
    0.3722   -2.5974    1.5060 H   0  0  0  0  0  0  0  0  0  0  0  0
   -2.9482    3.9969    1.7594 H   0  0  0  0  0  0  0  0  0  0  0  0
    4.4039    1.6278    1.6204 H   0  0  0  0  0  0  0  0  0  0  0  0
   -3.4552   -3.6083   -1.7721 H   0  0  0  0  0  0  0  0  0  0  0  0
    4.1510   -2.1060   -1.6657 H   0  0  0  0  0  0  0  0  0  0  0  0
   -3.4018    2.4255   -2.2137 H   0  0  0  0  0  0  0  0  0  0  0  0
    2.7522    3.7689   -1.7188 H   0  0  0  0  0  0  0  0  0  0  0  0
   -3.6811   -2.0587    2.2291 H   0  0  0  0  0  0  0  0  0  0  0  0
    2.3568   -4.0074    1.7442 H   0  0  0  0  0  0  0  0  0  0  0  0
   -4.1355    3.9720   -0.4188 H   0  0  0  0  0  0  0  0  0  0  0  0
    4.6484    3.3098   -0.1870 H   0  0  0  0  0  0  0  0  0  0  0  0
   -4.6123   -3.4752    0.4183 H   0  0  0  0  0  0  0  0  0  0  0  0
    4.2603   -3.7695    0.1717 H   0  0  0  0  0  0  0  0  0  0  0  0
  1  2  1  0  0  0  0
  1  3  1  0  0  0  0
  1  4  1  0  0  0  0
  1 27  1  0  0  0  0
  2  5  1  0  0  0  0
  2  6  1  0  0  0  0
  2 28  1  0  0  0  0
  3  7  2  0  0  0  0
  3 11  1  0  0  0  0
  4  8  2  0  0  0  0
  4 12  1  0  0  0  0
  5  9  2  0  0  0  0
  5 13  1  0  0  0  0
  6 10  2  0  0  0  0
  6 14  1  0  0  0  0
  7 15  1  0  0  0  0
  7 29  1  0  0  0  0
  8 16  1  0  0  0  0
  8 30  1  0  0  0  0
  9 17  1  0  0  0  0
  9 31  1  0  0  0  0
 10 18  1  0  0  0  0
 10 32  1  0  0  0  0
 11 19  2  0  0  0  0
 11 33  1  0  0  0  0
 12 20  2  0  0  0  0
 12 34  1  0  0  0  0
 13 21  2  0  0  0  0
 13 35  1  0  0  0  0
 14 22  2  0  0  0  0
 14 36  1  0  0  0  0
 15 23  2  0  0  0  0
 15 37  1  0  0  0  0
 16 24  2  0  0  0  0
 16 38  1  0  0  0  0
 17 25  2  0  0  0  0
 17 39  1  0  0  0  0
 18 26  2  0  0  0  0
 18 40  1  0  0  0  0
 19 23  1  0  0  0  0
 19 41  1  0  0  0  0
 20 24  1  0  0  0  0
 20 42  1  0  0  0  0
 21 25  1  0  0  0  0
 21 43  1  0  0  0  0
 22 26  1  0  0  0  0
 22 44  1  0  0  0  0
 23 45  1  0  0  0  0
 24 46  1  0  0  0  0
 25 47  1  0  0  0  0
 26 48  1  0  0  0  0
M  END
> <PUBCHEM_COMPOUND_CID>
136454

> <PUBCHEM_CONFORMER_RMSD>
0.8

> <PUBCHEM_CONFORMER_DIVERSEORDER>
1
2

> <PUBCHEM_MMFF94_PARTIAL_CHARGES>
46
1 0.29
10 -0.15
11 -0.15
12 -0.15
13 -0.15
14 -0.15
15 -0.15
16 -0.15
17 -0.15
18 -0.15
19 -0.15
2 0.29
20 -0.15
21 -0.15
22 -0.15
23 -0.15
24 -0.15
25 -0.15
26 -0.15
29 0.15
3 -0.14
30 0.15
31 0.15
32 0.15
33 0.15
34 0.15
35 0.15
36 0.15
37 0.15
38 0.15
39 0.15
4 -0.14
40 0.15
41 0.15
42 0.15
43 0.15
44 0.15
45 0.15
46 0.15
47 0.15
48 0.15
5 -0.14
6 -0.14
7 -0.15
8 -0.15
9 -0.15

> <PUBCHEM_EFFECTIVE_ROTOR_COUNT>
5

> <PUBCHEM_PHARMACOPHORE_FEATURES>
4
6 3 7 11 15 19 23 rings
6 4 8 12 16 20 24 rings
6 5 9 13 17 21 25 rings
6 6 10 14 18 22 26 rings

> <PUBCHEM_HEAVY_ATOM_COUNT>
26

> <PUBCHEM_ATOM_DEF_STEREO_COUNT>
0

> <PUBCHEM_ATOM_UDEF_STEREO_COUNT>
0

> <PUBCHEM_BOND_DEF_STEREO_COUNT>
0

> <PUBCHEM_BOND_UDEF_STEREO_COUNT>
0

> <PUBCHEM_ISOTOPIC_ATOM_COUNT>
0

> <PUBCHEM_COMPONENT_COUNT>
1

> <PUBCHEM_CACTVS_TAUTO_COUNT>
1

> <PUBCHEM_CONFORMER_ID>
0002150600000001

> <PUBCHEM_MMFF94_ENERGY>
96.5483

> <PUBCHEM_FEATURE_SELFOVERLAP>
20.3

> <PUBCHEM_SHAPE_FINGERPRINT>
10190108 129 17829369999979122027
104564 63 18192990641694991069
10930396 42 17260430066556727600
1100329 8 18194682553513106538
11578080 2 18411144618822801860
11680986 33 18339355275604512616
12035758 1 18122627145587198104
12553582 1 17834394905398859528
12788726 201 18050288364794907660
13140716 1 18338230454330508570
13149001 5 18196093244137792868
13911987 19 17757829309402379598
13965767 371 17697925532858073587
14178342 30 18411409623159283656
14223421 5 18410575106217199154
14790565 3 17833561471791613641
14955137 171 17551815624051063649
15420108 30 17916043411287290771
16752209 62 18120925363902639260
17492 54 17903362506769378468
20028762 73 16904131188634607910
20510252 161 18125157388358211360
20600515 1 17841438025363680018
20642791 105 18192692647942322424
20642791 239 18048343075743833828
20691752 17 18048622574291873870
20739085 24 17758692426637182569
20905425 154 18272093841655414862
21421861 104 18335702766670443123
22113638 7 17978226063050349502
23558518 356 18407761443024025592
266924 87 18338512066097514597
283562 15 18195528322874003904
3027735 51 18266463285390506576
3084891 72 17906733961908053512
3178227 256 17905900180313745545
350125 39 18339375122880606380
469060 322 18121792887256554153
57527358 35 15578047404268033900
589210 1 18410573972277111748
59755656 215 18341053037717146838
70251023 43 18341338859112006119
9981440 41 17483628547102994152

> <PUBCHEM_SHAPE_MULTIPOLES>
535.07
6.53
5.86
1.31
0.66
0.2
0
-0.24
0.01
-0.78
0
-0.25
0
0.04

> <PUBCHEM_SHAPE_SELFOVERLAP>
1185.124

> <PUBCHEM_SHAPE_VOLUME>
267.8

> <PUBCHEM_COORDINATE_TYPE>
2
5
10

$$$$
