13622
  -OEChem-11012400393D

 18 18  0     0  0  0  0  0  0999 V2000
    2.0313    0.7731    0.0001 O   0  0  0  0  0  0  0  0  0  0  0  0
   -0.3721    2.1489   -0.0007 O   0  0  0  0  0  0  0  0  0  0  0  0
   -2.7581    0.7413    0.0008 O   0  0  0  0  0  0  0  0  0  0  0  0
    0.8493    0.0958    0.0003 C   0  0  0  0  0  0  0  0  0  0  0  0
   -0.3632    0.7855    0.0001 C   0  0  0  0  0  0  0  0  0  0  0  0
   -1.5668    0.0803   -0.0002 C   0  0  0  0  0  0  0  0  0  0  0  0
    0.8580   -1.2992    0.0001 C   0  0  0  0  0  0  0  0  0  0  0  0
   -1.5580   -1.3145   -0.0004 C   0  0  0  0  0  0  0  0  0  0  0  0
   -0.3456   -2.0042   -0.0002 C   0  0  0  0  0  0  0  0  0  0  0  0
    3.2252   -0.0070    0.0002 C   0  0  0  0  0  0  0  0  0  0  0  0
    1.7603   -1.9009    0.0001 H   0  0  0  0  0  0  0  0  0  0  0  0
   -2.4881   -1.8765   -0.0003 H   0  0  0  0  0  0  0  0  0  0  0  0
   -0.3399   -3.0904   -0.0003 H   0  0  0  0  0  0  0  0  0  0  0  0
    3.3134   -0.6101   -0.9099 H   0  0  0  0  0  0  0  0  0  0  0  0
    3.3133   -0.6100    0.9103 H   0  0  0  0  0  0  0  0  0  0  0  0
    4.0673    0.6929    0.0002 H   0  0  0  0  0  0  0  0  0  0  0  0
   -1.2974    2.4500   -0.0010 H   0  0  0  0  0  0  0  0  0  0  0  0
   -3.4813    0.0910    0.0006 H   0  0  0  0  0  0  0  0  0  0  0  0
  1  4  1  0  0  0  0
  1 10  1  0  0  0  0
  2  5  1  0  0  0  0
  2 17  1  0  0  0  0
  3  6  1  0  0  0  0
  3 18  1  0  0  0  0
  4  5  1  0  0  0  0
  4  7  2  0  0  0  0
  5  6  2  0  0  0  0
  6  8  1  0  0  0  0
  7  9  1  0  0  0  0
  7 11  1  0  0  0  0
  8  9  2  0  0  0  0
  8 12  1  0  0  0  0
  9 13  1  0  0  0  0
 10 14  1  0  0  0  0
 10 15  1  0  0  0  0
 10 16  1  0  0  0  0
M  END
> <PUBCHEM_COMPOUND_CID>
13622

> <PUBCHEM_CONFORMER_RMSD>
0.4

> <PUBCHEM_CONFORMER_DIVERSEORDER>
3
1
2

> <PUBCHEM_MMFF94_PARTIAL_CHARGES>
15
1 -0.36
10 0.28
11 0.15
12 0.15
13 0.15
17 0.45
18 0.45
2 -0.53
3 -0.53
4 0.08
5 0.08
6 0.08
7 -0.15
8 -0.15
9 -0.15

> <PUBCHEM_EFFECTIVE_ROTOR_COUNT>
1

> <PUBCHEM_PHARMACOPHORE_FEATURES>
4
1 1 acceptor
1 2 donor
1 3 donor
6 4 5 6 7 8 9 rings

> <PUBCHEM_HEAVY_ATOM_COUNT>
10

> <PUBCHEM_ATOM_DEF_STEREO_COUNT>
0

> <PUBCHEM_ATOM_UDEF_STEREO_COUNT>
0

> <PUBCHEM_BOND_DEF_STEREO_COUNT>
0

> <PUBCHEM_BOND_UDEF_STEREO_COUNT>
0

> <PUBCHEM_ISOTOPIC_ATOM_COUNT>
0

> <PUBCHEM_COMPONENT_COUNT>
1

> <PUBCHEM_CACTVS_TAUTO_COUNT>
10

> <PUBCHEM_CONFORMER_ID>
0000353600000003

> <PUBCHEM_MMFF94_ENERGY>
32.5727

> <PUBCHEM_FEATURE_SELFOVERLAP>
20.302

> <PUBCHEM_SHAPE_FINGERPRINT>
12423570 1 10258624206494762467
14325111 11 18410574002674211680
16945 1 18410573946618168706
18185500 45 18336543944615640314
193761 8 17689997834403235265
20871998 184 18128541650746257838
21040471 1 18410856568272052099
23235685 24 18410288086374340829
23402655 69 18195790888006548613
23552423 10 18116151263071465486
241688 4 16465579362261415787
2748010 2 18267302221389156132
369184 2 18271242828324500378
5084963 1 17986395713638782955
528886 8 18411131429072928131

> <PUBCHEM_SHAPE_MULTIPOLES>
188.19
3.37
1.91
0.59
1.77
0.09
0
-0.46
0
-0.53
0
0.01
0.04
0

> <PUBCHEM_SHAPE_SELFOVERLAP>
392.662

> <PUBCHEM_SHAPE_VOLUME>
107.4

> <PUBCHEM_COORDINATE_TYPE>
2
5
10

$$$$
