123075
  -OEChem-11012401103D

 21 21  0     0  0  0  0  0  0999 V2000
    2.9213    0.9210   -1.0983 O   0  5  0  0  0  0  0  0  0  0  0  0
    2.9223    0.9207    1.0970 O   0  0  0  0  0  0  0  0  0  0  0  0
    1.7347   -2.3484   -1.0971 O   0  5  0  0  0  0  0  0  0  0  0  0
    1.7333   -2.3488    1.0980 O   0  0  0  0  0  0  0  0  0  0  0  0
   -4.0071    0.7580    0.0001 O   0  5  0  0  0  0  0  0  0  0  0  0
   -3.6132   -1.4016   -0.0008 O   0  0  0  0  0  0  0  0  0  0  0  0
    2.3307    0.8086   -0.0004 N   0  3  0  0  0  0  0  0  0  0  0  0
    1.3546   -1.8789    0.0003 N   0  3  0  0  0  0  0  0  0  0  0  0
   -3.2121   -0.2128   -0.0002 N   0  3  0  0  0  0  0  0  0  0  0  0
    0.0263    1.6062    0.0005 C   0  0  0  0  0  0  0  0  0  0  0  0
    0.9293    0.5431    0.0001 C   0  0  0  0  0  0  0  0  0  0  0  0
    0.4602   -0.7705   -0.0001 C   0  0  0  0  0  0  0  0  0  0  0  0
   -1.3459    1.3557    0.0003 C   0  0  0  0  0  0  0  0  0  0  0  0
   -1.8150    0.0420    0.0000 C   0  0  0  0  0  0  0  0  0  0  0  0
   -0.9119   -1.0210   -0.0001 C   0  0  0  0  0  0  0  0  0  0  0  0
    0.4926    3.0268    0.0008 C   0  0  0  0  0  0  0  0  0  0  0  0
   -2.0354    2.1967    0.0005 H   0  0  0  0  0  0  0  0  0  0  0  0
   -1.2572   -2.0531   -0.0002 H   0  0  0  0  0  0  0  0  0  0  0  0
    1.0899    3.2361    0.8943 H   0  0  0  0  0  0  0  0  0  0  0  0
    1.0888    3.2368   -0.8933 H   0  0  0  0  0  0  0  0  0  0  0  0
   -0.3455    3.7324    0.0016 H   0  0  0  0  0  0  0  0  0  0  0  0
  1  7  1  0  0  0  0
  2  7  2  0  0  0  0
  3  8  1  0  0  0  0
  4  8  2  0  0  0  0
  5  9  1  0  0  0  0
  6  9  2  0  0  0  0
  7 11  1  0  0  0  0
  8 12  1  0  0  0  0
  9 14  1  0  0  0  0
 10 11  1  0  0  0  0
 10 13  2  0  0  0  0
 10 16  1  0  0  0  0
 11 12  2  0  0  0  0
 12 15  1  0  0  0  0
 13 14  1  0  0  0  0
 13 17  1  0  0  0  0
 14 15  2  0  0  0  0
 15 18  1  0  0  0  0
 16 19  1  0  0  0  0
 16 20  1  0  0  0  0
 16 21  1  0  0  0  0
M  CHG  6   1  -1   3  -1   5  -1   7   1   8   1   9   1
M  END
> <PUBCHEM_COMPOUND_CID>
123075

> <PUBCHEM_CONFORMER_RMSD>
0.6

> <PUBCHEM_CONFORMER_DIVERSEORDER>
1

> <PUBCHEM_MMFF94_PARTIAL_CHARGES>
18
1 -0.52
10 -0.14
11 0.13
12 0.13
13 -0.15
14 0.13
15 -0.15
16 0.14
17 0.15
18 0.15
2 -0.52
3 -0.52
4 -0.52
5 -0.52
6 -0.52
7 0.91
8 0.91
9 0.91

> <PUBCHEM_EFFECTIVE_ROTOR_COUNT>
3

> <PUBCHEM_PHARMACOPHORE_FEATURES>
10
1 1 acceptor
1 1 anion
1 2 acceptor
1 3 acceptor
1 3 anion
1 4 acceptor
1 5 acceptor
1 5 anion
1 6 acceptor
6 10 11 12 13 14 15 rings

> <PUBCHEM_HEAVY_ATOM_COUNT>
16

> <PUBCHEM_ATOM_DEF_STEREO_COUNT>
0

> <PUBCHEM_ATOM_UDEF_STEREO_COUNT>
0

> <PUBCHEM_BOND_DEF_STEREO_COUNT>
0

> <PUBCHEM_BOND_UDEF_STEREO_COUNT>
0

> <PUBCHEM_ISOTOPIC_ATOM_COUNT>
0

> <PUBCHEM_COMPONENT_COUNT>
1

> <PUBCHEM_CACTVS_TAUTO_COUNT>
1

> <PUBCHEM_CONFORMER_ID>
0001E0C300000001

> <PUBCHEM_MMFF94_ENERGY>
57.8188

> <PUBCHEM_FEATURE_SELFOVERLAP>
50.995

> <PUBCHEM_SHAPE_FINGERPRINT>
10967382 1 18338797943536840709
10980938 120 18411982464168744607
13140716 1 18050286165665702769
13380535 76 18336824303032982787
13380536 305 18193844974761299060
161256 15 18269276768316139268
16945 1 18338517542449841989
19021347 11 18408885178346517619
193761 8 18050285869033565924
20588541 1 18335143124010351829
20645476 183 17533790565775287212
20645477 70 18339638950348602415
20711985 365 18048594824766715213
21501502 16 18195251013904560145
21650355 55 17108728879435004618
23184049 29 18049155571074560778
2334 1 18338235960135846217
23402539 116 18271521013725794068
23419403 2 15886219386726855944
23463225 33 18334850619599836224
23552423 10 18189341168932826094
23557571 272 17481149995108412926
23559900 14 16758312269201322734
2748010 2 18266455408599846845
53812653 166 18342733052756037681
7364860 26 18201155447428218406
81228 2 17690843363356188409

> <PUBCHEM_SHAPE_MULTIPOLES>
279.11
4.83
2.74
0.81
3.8
0.13
0
-0.42
0
-1.33
0
-0.58
-0.18
0

> <PUBCHEM_SHAPE_SELFOVERLAP>
591.821

> <PUBCHEM_SHAPE_VOLUME>
157.3

> <PUBCHEM_COORDINATE_TYPE>
2
5
10

$$$$
