92923
  -OEChem-11012401173D

 22 22  0     0  0  0  0  0  0999 V2000
    4.8079   -0.1922   -0.1127 O   0  0  0  0  0  0  0  0  0  0  0  0
    3.1790    1.3225   -0.5645 O   0  0  0  0  0  0  0  0  0  0  0  0
   -1.2553   -0.3763   -0.0477 C   0  0  0  0  0  0  0  0  0  0  0  0
    0.1121   -0.8719   -0.0683 C   0  0  0  0  0  0  0  0  0  0  0  0
    1.1835   -0.2976    0.5172 C   0  0  0  0  0  0  0  0  0  0  0  0
    2.5987   -0.7926    0.5071 C   0  0  0  0  0  0  0  0  0  0  0  0
   -1.5067    0.9647    0.2422 C   0  0  0  0  0  0  0  0  0  0  0  0
   -2.3151   -1.2421   -0.3178 C   0  0  0  0  0  0  0  0  0  0  0  0
   -2.8180    1.4399    0.2621 C   0  0  0  0  0  0  0  0  0  0  0  0
   -3.6263   -0.7669   -0.2982 C   0  0  0  0  0  0  0  0  0  0  0  0
   -3.8779    0.5742   -0.0082 C   0  0  0  0  0  0  0  0  0  0  0  0
    3.5182    0.2382   -0.1111 C   0  0  0  0  0  0  0  0  0  0  0  0
    0.2694   -1.7990   -0.6162 H   0  0  0  0  0  0  0  0  0  0  0  0
    2.9214   -0.9764    1.5370 H   0  0  0  0  0  0  0  0  0  0  0  0
    2.6821   -1.7207   -0.0681 H   0  0  0  0  0  0  0  0  0  0  0  0
    1.0470    0.6085    1.1043 H   0  0  0  0  0  0  0  0  0  0  0  0
   -0.7124    1.6790    0.4384 H   0  0  0  0  0  0  0  0  0  0  0  0
   -2.1387   -2.2909   -0.5445 H   0  0  0  0  0  0  0  0  0  0  0  0
   -3.0143    2.4850    0.4832 H   0  0  0  0  0  0  0  0  0  0  0  0
   -4.4516   -1.4409   -0.5085 H   0  0  0  0  0  0  0  0  0  0  0  0
   -4.8988    0.9445    0.0060 H   0  0  0  0  0  0  0  0  0  0  0  0
    5.4124    0.4679   -0.5143 H   0  0  0  0  0  0  0  0  0  0  0  0
  1 12  1  0  0  0  0
  1 22  1  0  0  0  0
  2 12  2  0  0  0  0
  3  4  1  0  0  0  0
  3  7  2  0  0  0  0
  3  8  1  0  0  0  0
  4  5  2  3  0  0  0
  4 13  1  0  0  0  0
  5  6  1  0  0  0  0
  5 16  1  0  0  0  0
  6 12  1  0  0  0  0
  6 14  1  0  0  0  0
  6 15  1  0  0  0  0
  7  9  1  0  0  0  0
  7 17  1  0  0  0  0
  8 10  2  0  0  0  0
  8 18  1  0  0  0  0
  9 11  2  0  0  0  0
  9 19  1  0  0  0  0
 10 11  1  0  0  0  0
 10 20  1  0  0  0  0
 11 21  1  0  0  0  0
M  END
> <PUBCHEM_COMPOUND_CID>
92923

> <PUBCHEM_CONFORMER_RMSD>
0.6

> <PUBCHEM_CONFORMER_DIVERSEORDER>
1
4
3
5
2

> <PUBCHEM_MMFF94_PARTIAL_CHARGES>
20
1 -0.65
10 -0.15
11 -0.15
12 0.66
13 0.15
16 0.15
17 0.15
18 0.15
19 0.15
2 -0.57
20 0.15
21 0.15
22 0.5
3 0.03
4 -0.18
5 -0.29
6 0.2
7 -0.15
8 -0.15
9 -0.15

> <PUBCHEM_EFFECTIVE_ROTOR_COUNT>
3

> <PUBCHEM_PHARMACOPHORE_FEATURES>
4
1 1 acceptor
1 2 acceptor
3 1 2 12 anion
6 3 7 8 9 10 11 rings

> <PUBCHEM_HEAVY_ATOM_COUNT>
12

> <PUBCHEM_ATOM_DEF_STEREO_COUNT>
0

> <PUBCHEM_ATOM_UDEF_STEREO_COUNT>
0

> <PUBCHEM_BOND_DEF_STEREO_COUNT>
0

> <PUBCHEM_BOND_UDEF_STEREO_COUNT>
1

> <PUBCHEM_ISOTOPIC_ATOM_COUNT>
0

> <PUBCHEM_COMPONENT_COUNT>
1

> <PUBCHEM_CACTVS_TAUTO_COUNT>
1

> <PUBCHEM_CONFORMER_ID>
00016AFB00000001

> <PUBCHEM_MMFF94_ENERGY>
23.7285

> <PUBCHEM_FEATURE_SELFOVERLAP>
20.356

> <PUBCHEM_SHAPE_FINGERPRINT>
12162725 195 18408042922580481548
12932764 1 17274809264358879739
13897977 58 18410578392167841381
14144814 61 18335417950198320882
14325111 11 18411417289095281331
15536298 74 18270679887008967152
15669948 3 18271232898360534303
15775835 57 18335422343976283824
17802600 8 18408316696723424772
17834072 32 18120654635097932509
18186145 218 17967247590002983010
1986462 14 17775003496560924079
20279233 1 16271926017230234886
20300324 65 18272931652372697495
20645477 70 16271935870175356366
20711983 171 18342457019386495580
21119208 17 18412263930597621230
22485316 2 9943808872044353366
23402539 116 18272362075089553518
23402655 69 18409166584830630980
474 4 17532376550888475860
77779 3 18411420605110727106

> <PUBCHEM_SHAPE_MULTIPOLES>
235.22
8.4
1.34
0.7
6.09
0.19
0.02
0.98
-0.72
-0.66
-0.05
0.08
0
-0.52

> <PUBCHEM_SHAPE_SELFOVERLAP>
482.075

> <PUBCHEM_SHAPE_VOLUME>
135.4

> <PUBCHEM_COORDINATE_TYPE>
2
5
10

$$$$
