76070
  -OEChem-11012400593D

 24 24  0     0  0  0  0  0  0999 V2000
    1.9938    0.5430    0.3775 O   0  0  0  0  0  0  0  0  0  0  0  0
    4.7795    0.8180    0.4615 O   0  0  0  0  0  0  0  0  0  0  0  0
    0.1171   -3.0475   -0.0894 O   0  5  0  0  0  0  0  0  0  0  0  0
    1.9812   -1.9160    0.1628 O   0  0  0  0  0  0  0  0  0  0  0  0
   -4.2033    1.4093   -0.0617 O   0  5  0  0  0  0  0  0  0  0  0  0
   -4.1167   -0.7764   -0.2459 O   0  0  0  0  0  0  0  0  0  0  0  0
    0.7330   -1.9651    0.0549 N   0  3  0  0  0  0  0  0  0  0  0  0
   -3.5546    0.3361   -0.1022 N   0  3  0  0  0  0  0  0  0  0  0  0
    0.6376    0.4730    0.2572 C   0  0  0  0  0  0  0  0  0  0  0  0
   -0.0088   -0.7525    0.0971 C   0  0  0  0  0  0  0  0  0  0  0  0
   -0.1049    1.6531    0.2976 C   0  0  0  0  0  0  0  0  0  0  0  0
   -1.3978   -0.7981   -0.0226 C   0  0  0  0  0  0  0  0  0  0  0  0
   -2.1403    0.3821    0.0178 C   0  0  0  0  0  0  0  0  0  0  0  0
    2.6923    1.3036   -0.6056 C   0  0  0  0  0  0  0  0  0  0  0  0
   -1.4939    1.6076    0.1781 C   0  0  0  0  0  0  0  0  0  0  0  0
    4.0857    0.7299   -0.7770 C   0  0  0  0  0  0  0  0  0  0  0  0
    0.3831    2.6147    0.4312 H   0  0  0  0  0  0  0  0  0  0  0  0
   -1.9044   -1.7523   -0.1472 H   0  0  0  0  0  0  0  0  0  0  0  0
    2.1691    1.2759   -1.5693 H   0  0  0  0  0  0  0  0  0  0  0  0
    2.7516    2.3409   -0.2575 H   0  0  0  0  0  0  0  0  0  0  0  0
   -2.0400    2.5468    0.2164 H   0  0  0  0  0  0  0  0  0  0  0  0
    4.6508    1.2758   -1.5381 H   0  0  0  0  0  0  0  0  0  0  0  0
    4.0439   -0.3268   -1.0558 H   0  0  0  0  0  0  0  0  0  0  0  0
    4.8376    1.7593    0.6987 H   0  0  0  0  0  0  0  0  0  0  0  0
  1  9  1  0  0  0  0
  1 14  1  0  0  0  0
  2 16  1  0  0  0  0
  2 24  1  0  0  0  0
  3  7  1  0  0  0  0
  4  7  2  0  0  0  0
  5  8  1  0  0  0  0
  6  8  2  0  0  0  0
  7 10  1  0  0  0  0
  8 13  1  0  0  0  0
  9 10  2  0  0  0  0
  9 11  1  0  0  0  0
 10 12  1  0  0  0  0
 11 15  2  0  0  0  0
 11 17  1  0  0  0  0
 12 13  2  0  0  0  0
 12 18  1  0  0  0  0
 13 15  1  0  0  0  0
 14 16  1  0  0  0  0
 14 19  1  0  0  0  0
 14 20  1  0  0  0  0
 15 21  1  0  0  0  0
 16 22  1  0  0  0  0
 16 23  1  0  0  0  0
M  CHG  4   3  -1   5  -1   7   1   8   1
M  END
> <PUBCHEM_COMPOUND_CID>
76070

> <PUBCHEM_CONFORMER_RMSD>
0.6

> <PUBCHEM_CONFORMER_DIVERSEORDER>
1
3
8
6
9
7
4
2
5

> <PUBCHEM_MMFF94_PARTIAL_CHARGES>
20
1 -0.36
10 0.13
11 -0.15
12 -0.15
13 0.13
14 0.28
15 -0.15
16 0.28
17 0.15
18 0.15
2 -0.68
21 0.15
24 0.4
3 -0.52
4 -0.52
5 -0.52
6 -0.52
7 0.91
8 0.91
9 0.08

> <PUBCHEM_EFFECTIVE_ROTOR_COUNT>
5

> <PUBCHEM_PHARMACOPHORE_FEATURES>
10
1 1 acceptor
1 2 acceptor
1 2 donor
1 3 acceptor
1 3 anion
1 4 acceptor
1 5 acceptor
1 5 anion
1 6 acceptor
6 9 10 11 12 13 15 rings

> <PUBCHEM_HEAVY_ATOM_COUNT>
16

> <PUBCHEM_ATOM_DEF_STEREO_COUNT>
0

> <PUBCHEM_ATOM_UDEF_STEREO_COUNT>
0

> <PUBCHEM_BOND_DEF_STEREO_COUNT>
0

> <PUBCHEM_BOND_UDEF_STEREO_COUNT>
0

> <PUBCHEM_ISOTOPIC_ATOM_COUNT>
0

> <PUBCHEM_COMPONENT_COUNT>
1

> <PUBCHEM_CACTVS_TAUTO_COUNT>
1

> <PUBCHEM_CONFORMER_ID>
0001292600000001

> <PUBCHEM_MMFF94_ENERGY>
57.1231

> <PUBCHEM_FEATURE_SELFOVERLAP>
50.939

> <PUBCHEM_SHAPE_FINGERPRINT>
10967382 1 18410856559650352106
12592029 89 18187366515206687018
13380535 76 18335142002976557866
14897335 6 18410011039767420670
14993402 34 18261674873533695453
15196674 1 18411136909340479842
15536298 74 18270964540319050942
16945 1 18341320171930054593
193761 8 17978793402439443161
19591789 44 18194687200857865195
20645476 183 17823714151147374342
20645477 56 18337954627273234728
20645477 70 18266735793177051871
21501502 16 18196092140558310729
21524375 3 18260267473164876024
23366157 5 17898298199425551346
23402539 116 18343295998636076844
23402655 69 18341039728236183653
23463225 33 18334571309376255056
23493267 7 17894914065564199417
23552423 10 18193558857177707299
23559900 14 18051404076754474706
2748010 2 18338531810099318123
3071541 37 18335144146149245358
3312278 4 18413673504757923633
366044 4 18409448115620609552
43471831 8 18409166576219675370
449060 62 18341614763715684297
4990 188 17917719006260872324
528886 8 18410570712418111248
54173680 148 17977104887613106082
58051976 378 18411135818529836149
69090 78 18340486763706964508
7364860 26 18197499524026491286
81228 2 17616521204571842091
81539 233 18187081719845846118

> <PUBCHEM_SHAPE_MULTIPOLES>
284.09
7.08
2.29
0.67
1.27
1.7
0.03
-2.77
0.81
0.12
-0.02
0.29
-0.1
-0.22

> <PUBCHEM_SHAPE_SELFOVERLAP>
592.633

> <PUBCHEM_SHAPE_VOLUME>
161.5

> <PUBCHEM_COORDINATE_TYPE>
2
5
10

$$$$
