139756
  -OEChem-11012401133D

 24 24  0     0  0  0  0  0  0999 V2000
    0.1002    0.4339    0.2569 N   0  0  0  0  0  0  0  0  0  0  0  0
   -2.5968   -0.5824   -0.2282 C   0  0  0  0  0  0  0  0  0  0  0  0
   -1.4606   -1.4859    0.2369 C   0  0  0  0  0  0  0  0  0  0  0  0
   -2.3359    0.8601    0.1905 C   0  0  0  0  0  0  0  0  0  0  0  0
   -0.1014   -0.9450   -0.2099 C   0  0  0  0  0  0  0  0  0  0  0  0
   -0.9491    1.3267   -0.2547 C   0  0  0  0  0  0  0  0  0  0  0  0
    1.4223    0.9195   -0.1376 C   0  0  0  0  0  0  0  0  0  0  0  0
    2.5154    0.0746    0.4404 C   0  0  0  0  0  0  0  0  0  0  0  0
    3.4059   -0.6016   -0.2943 C   0  0  0  0  0  0  0  0  0  0  0  0
   -2.6841   -0.6365   -1.3203 H   0  0  0  0  0  0  0  0  0  0  0  0
   -3.5485   -0.9292    0.1890 H   0  0  0  0  0  0  0  0  0  0  0  0
   -1.4826   -1.5671    1.3311 H   0  0  0  0  0  0  0  0  0  0  0  0
   -1.6066   -2.4964   -0.1616 H   0  0  0  0  0  0  0  0  0  0  0  0
   -3.1025    1.5142   -0.2400 H   0  0  0  0  0  0  0  0  0  0  0  0
   -2.4192    0.9446    1.2815 H   0  0  0  0  0  0  0  0  0  0  0  0
    0.6503   -1.6246    0.2062 H   0  0  0  0  0  0  0  0  0  0  0  0
   -0.0257   -1.0029   -1.3041 H   0  0  0  0  0  0  0  0  0  0  0  0
   -0.9151    1.3827   -1.3508 H   0  0  0  0  0  0  0  0  0  0  0  0
   -0.7922    2.3424    0.1283 H   0  0  0  0  0  0  0  0  0  0  0  0
    1.5666    1.9389    0.2424 H   0  0  0  0  0  0  0  0  0  0  0  0
    1.5095    0.9745   -1.2311 H   0  0  0  0  0  0  0  0  0  0  0  0
    2.5884    0.0196    1.5239 H   0  0  0  0  0  0  0  0  0  0  0  0
    4.1775   -1.1935    0.1857 H   0  0  0  0  0  0  0  0  0  0  0  0
    3.3813   -0.5791   -1.3782 H   0  0  0  0  0  0  0  0  0  0  0  0
  1  5  1  0  0  0  0
  1  6  1  0  0  0  0
  1  7  1  0  0  0  0
  2  3  1  0  0  0  0
  2  4  1  0  0  0  0
  2 10  1  0  0  0  0
  2 11  1  0  0  0  0
  3  5  1  0  0  0  0
  3 12  1  0  0  0  0
  3 13  1  0  0  0  0
  4  6  1  0  0  0  0
  4 14  1  0  0  0  0
  4 15  1  0  0  0  0
  5 16  1  0  0  0  0
  5 17  1  0  0  0  0
  6 18  1  0  0  0  0
  6 19  1  0  0  0  0
  7  8  1  0  0  0  0
  7 20  1  0  0  0  0
  7 21  1  0  0  0  0
  8  9  2  0  0  0  0
  8 22  1  0  0  0  0
  9 23  1  0  0  0  0
  9 24  1  0  0  0  0
M  END
> <PUBCHEM_COMPOUND_CID>
139756

> <PUBCHEM_CONFORMER_RMSD>
0.6

> <PUBCHEM_CONFORMER_DIVERSEORDER>
1
7
5
4
2
3
6

> <PUBCHEM_MMFF94_PARTIAL_CHARGES>
9
1 -0.81
22 0.15
23 0.15
24 0.15
5 0.27
6 0.27
7 0.41
8 -0.29
9 -0.3

> <PUBCHEM_EFFECTIVE_ROTOR_COUNT>
3.2

> <PUBCHEM_PHARMACOPHORE_FEATURES>
3
1 1 cation
1 9 hydrophobe
6 1 2 3 4 5 6 rings

> <PUBCHEM_HEAVY_ATOM_COUNT>
9

> <PUBCHEM_ATOM_DEF_STEREO_COUNT>
0

> <PUBCHEM_ATOM_UDEF_STEREO_COUNT>
0

> <PUBCHEM_BOND_DEF_STEREO_COUNT>
0

> <PUBCHEM_BOND_UDEF_STEREO_COUNT>
0

> <PUBCHEM_ISOTOPIC_ATOM_COUNT>
0

> <PUBCHEM_COMPONENT_COUNT>
1

> <PUBCHEM_CACTVS_TAUTO_COUNT>
1

> <PUBCHEM_CONFORMER_ID>
000221EC00000001

> <PUBCHEM_MMFF94_ENERGY>
3.9264

> <PUBCHEM_FEATURE_SELFOVERLAP>
15.223

> <PUBCHEM_SHAPE_FINGERPRINT>
12032990 46 18336831999904456019
12932764 1 17530675507373198732
14325111 11 18412262826622428952
16714656 1 18408321090274157677
20201158 50 18273497845079441366
20645464 45 18059276739144005064
20871998 184 18200878494888644391
21040471 1 18338800013832546081
23235685 24 18339919316674929305
23552423 10 18115025341404813334
29004967 10 16271933726443310416
369184 2 16343699949831221538
5084963 1 18413106173352200465

> <PUBCHEM_SHAPE_MULTIPOLES>
180.23
4.63
1.44
0.68
2.78
0.07
0
0.62
0.1
-0.59
0.02
0.05
0.01
0.07

> <PUBCHEM_SHAPE_SELFOVERLAP>
342.915

> <PUBCHEM_SHAPE_VOLUME>
108.4

> <PUBCHEM_COORDINATE_TYPE>
2
5
10

$$$$
