79227
  -OEChem-11012401093D

 23 22  0     0  0  0  0  0  0999 V2000
   -4.5125    0.1908    0.0520 Cl  0  0  0  0  0  0  0  0  0  0  0  0
   -0.6940   -0.6542   -0.0565 O   0  0  0  0  0  0  0  0  0  0  0  0
   -1.8365    1.3423    0.0891 O   0  0  0  0  0  0  0  0  0  0  0  0
    3.0791   -0.3337   -0.0364 C   0  0  0  0  0  0  0  0  0  0  0  0
    1.6798   -0.9677   -0.0927 C   0  0  0  0  0  0  0  0  0  0  0  0
    0.5437    0.0451   -0.0155 C   0  0  0  0  0  0  0  0  0  0  0  0
    3.2456    0.6614   -1.1874 C   0  0  0  0  0  0  0  0  0  0  0  0
    3.3477    0.3678    1.2956 C   0  0  0  0  0  0  0  0  0  0  0  0
   -1.8229    0.1222    0.0042 C   0  0  0  0  0  0  0  0  0  0  0  0
   -3.0300   -0.7741   -0.0525 C   0  0  0  0  0  0  0  0  0  0  0  0
    3.8168   -1.1363   -0.1588 H   0  0  0  0  0  0  0  0  0  0  0  0
    1.5711   -1.6954    0.7220 H   0  0  0  0  0  0  0  0  0  0  0  0
    1.5752   -1.5515   -1.0165 H   0  0  0  0  0  0  0  0  0  0  0  0
    0.5941    0.6144    0.9183 H   0  0  0  0  0  0  0  0  0  0  0  0
    0.5768    0.7357   -0.8640 H   0  0  0  0  0  0  0  0  0  0  0  0
    4.2913    0.9816   -1.2572 H   0  0  0  0  0  0  0  0  0  0  0  0
    2.6428    1.5647   -1.0509 H   0  0  0  0  0  0  0  0  0  0  0  0
    2.9773    0.2050   -2.1460 H   0  0  0  0  0  0  0  0  0  0  0  0
    2.7133    1.2484    1.4364 H   0  0  0  0  0  0  0  0  0  0  0  0
    4.3894    0.7036    1.3451 H   0  0  0  0  0  0  0  0  0  0  0  0
    3.1781   -0.3147    2.1348 H   0  0  0  0  0  0  0  0  0  0  0  0
   -3.0177   -1.4676    0.7918 H   0  0  0  0  0  0  0  0  0  0  0  0
   -3.0444   -1.3173   -1.0005 H   0  0  0  0  0  0  0  0  0  0  0  0
  1 10  1  0  0  0  0
  2  6  1  0  0  0  0
  2  9  1  0  0  0  0
  3  9  2  0  0  0  0
  4  5  1  0  0  0  0
  4  7  1  0  0  0  0
  4  8  1  0  0  0  0
  4 11  1  0  0  0  0
  5  6  1  0  0  0  0
  5 12  1  0  0  0  0
  5 13  1  0  0  0  0
  6 14  1  0  0  0  0
  6 15  1  0  0  0  0
  7 16  1  0  0  0  0
  7 17  1  0  0  0  0
  7 18  1  0  0  0  0
  8 19  1  0  0  0  0
  8 20  1  0  0  0  0
  8 21  1  0  0  0  0
  9 10  1  0  0  0  0
 10 22  1  0  0  0  0
 10 23  1  0  0  0  0
M  END
> <PUBCHEM_COMPOUND_CID>
79227

> <PUBCHEM_CONFORMER_RMSD>
0.6

> <PUBCHEM_CONFORMER_DIVERSEORDER>
1
65
58
59
62
30
51
7
61
16
26
54
63
31
21
60
5
33
2
22
35
20
39
49
4
19
53
44
24
42
15
52
32
14
3
25
13
6
46
29
57
11
56
18
40
50
23
27
28
17
47
64
55
36
8
10
43
12
38
37
48
45
9
41
34

> <PUBCHEM_MMFF94_PARTIAL_CHARGES>
6
1 -0.29
10 0.35
2 -0.43
3 -0.57
6 0.28
9 0.66

> <PUBCHEM_EFFECTIVE_ROTOR_COUNT>
5

> <PUBCHEM_PHARMACOPHORE_FEATURES>
2
1 3 acceptor
3 4 7 8 hydrophobe

> <PUBCHEM_HEAVY_ATOM_COUNT>
10

> <PUBCHEM_ATOM_DEF_STEREO_COUNT>
0

> <PUBCHEM_ATOM_UDEF_STEREO_COUNT>
0

> <PUBCHEM_BOND_DEF_STEREO_COUNT>
0

> <PUBCHEM_BOND_UDEF_STEREO_COUNT>
0

> <PUBCHEM_ISOTOPIC_ATOM_COUNT>
0

> <PUBCHEM_COMPONENT_COUNT>
1

> <PUBCHEM_CACTVS_TAUTO_COUNT>
1

> <PUBCHEM_CONFORMER_ID>
0001357B00000001

> <PUBCHEM_MMFF94_ENERGY>
9.4686

> <PUBCHEM_FEATURE_SELFOVERLAP>
10.148

> <PUBCHEM_SHAPE_FINGERPRINT>
11062470 55 17458064867660713271
12162725 195 18040718047871504628
12932764 1 17774999072654996998
14325111 11 18411419479544426503
14390081 3 18202279186966251416
18186145 218 17274826843633375802
190213 19 18408604755710602031
20279233 1 17704071806587850966
22485316 2 17561359587112446207
23048698 100 17022623074346920756
3248919 1 18113339699890589194
522135 26 13614525155629550446

> <PUBCHEM_SHAPE_MULTIPOLES>
195.93
8.14
1.01
0.93
4.17
0.06
-0.08
0.75
-0.29
0.08
0.05
-1.05
0.15
-0.19

> <PUBCHEM_SHAPE_SELFOVERLAP>
351.356

> <PUBCHEM_SHAPE_VOLUME>
127.5

> <PUBCHEM_COORDINATE_TYPE>
2
5
10

$$$$
