17149
  -OEChem-11012400393D

 21 21  0     1  0  0  0  0  0999 V2000
   -1.1891    0.1419    0.3607 C   0  0  2  0  0  0  0  0  0  0  0  0
    1.1892    0.1431    0.3613 C   0  0  1  0  0  0  0  0  0  0  0  0
   -0.0003    1.0213   -0.0178 C   0  0  0  0  0  0  0  0  0  0  0  0
   -0.7654   -1.2574   -0.0941 C   0  0  0  0  0  0  0  0  0  0  0  0
    0.7664   -1.2582   -0.0890 C   0  0  0  0  0  0  0  0  0  0  0  0
   -2.4964    0.6044   -0.2595 C   0  0  0  0  0  0  0  0  0  0  0  0
    2.4956    0.6049   -0.2615 C   0  0  0  0  0  0  0  0  0  0  0  0
   -1.2978    0.1404    1.4535 H   0  0  0  0  0  0  0  0  0  0  0  0
    1.2992    0.1445    1.4540 H   0  0  0  0  0  0  0  0  0  0  0  0
   -0.0002    1.2438   -1.0921 H   0  0  0  0  0  0  0  0  0  0  0  0
   -0.0009    1.9702    0.5280 H   0  0  0  0  0  0  0  0  0  0  0  0
   -1.1284   -1.4793   -1.1048 H   0  0  0  0  0  0  0  0  0  0  0  0
   -1.1686   -2.0273    0.5723 H   0  0  0  0  0  0  0  0  0  0  0  0
    1.1638   -2.0245    0.5852 H   0  0  0  0  0  0  0  0  0  0  0  0
    1.1363   -1.4871   -1.0955 H   0  0  0  0  0  0  0  0  0  0  0  0
   -3.3147   -0.0674    0.0193 H   0  0  0  0  0  0  0  0  0  0  0  0
   -2.7516    1.6119    0.0849 H   0  0  0  0  0  0  0  0  0  0  0  0
   -2.4358    0.6275   -1.3528 H   0  0  0  0  0  0  0  0  0  0  0  0
    3.3146   -0.0656    0.0183 H   0  0  0  0  0  0  0  0  0  0  0  0
    2.4338    0.6251   -1.3547 H   0  0  0  0  0  0  0  0  0  0  0  0
    2.7504    1.6135    0.0802 H   0  0  0  0  0  0  0  0  0  0  0  0
  1  3  1  0  0  0  0
  1  4  1  0  0  0  0
  1  6  1  0  0  0  0
  1  8  1  0  0  0  0
  2  3  1  0  0  0  0
  2  5  1  0  0  0  0
  2  7  1  0  0  0  0
  2  9  1  0  0  0  0
  3 10  1  0  0  0  0
  3 11  1  0  0  0  0
  4  5  1  0  0  0  0
  4 12  1  0  0  0  0
  4 13  1  0  0  0  0
  5 14  1  0  0  0  0
  5 15  1  0  0  0  0
  6 16  1  0  0  0  0
  6 17  1  0  0  0  0
  6 18  1  0  0  0  0
  7 19  1  0  0  0  0
  7 20  1  0  0  0  0
  7 21  1  0  0  0  0
M  END
> <PUBCHEM_COMPOUND_CID>
17149

> <PUBCHEM_CONFORMER_RMSD>
0.4

> <PUBCHEM_CONFORMER_DIVERSEORDER>
3
2
1

> <PUBCHEM_MMFF94_PARTIAL_CHARGES>
0

> <PUBCHEM_EFFECTIVE_ROTOR_COUNT>
1

> <PUBCHEM_PHARMACOPHORE_FEATURES>
1
5 1 2 3 4 5 rings

> <PUBCHEM_HEAVY_ATOM_COUNT>
7

> <PUBCHEM_ATOM_DEF_STEREO_COUNT>
0

> <PUBCHEM_ATOM_UDEF_STEREO_COUNT>
2

> <PUBCHEM_BOND_DEF_STEREO_COUNT>
0

> <PUBCHEM_BOND_UDEF_STEREO_COUNT>
0

> <PUBCHEM_ISOTOPIC_ATOM_COUNT>
0

> <PUBCHEM_COMPONENT_COUNT>
1

> <PUBCHEM_CACTVS_TAUTO_COUNT>
1

> <PUBCHEM_CONFORMER_ID>
000042FD00000003

> <PUBCHEM_MMFF94_ENERGY>
9.9308

> <PUBCHEM_FEATURE_SELFOVERLAP>
5.074

> <PUBCHEM_SHAPE_FINGERPRINT>
14390081 3 18413386544501437857
16714656 1 18410298046567050084
20096714 4 18410292518780512394
21040471 1 18411695491312044274
23235685 24 18411135835730602617
23552423 10 18333734654205758086
29004967 10 18187092719351991441

> <PUBCHEM_SHAPE_MULTIPOLES>
144.06
2.97
1.33
0.68
0
0.35
0.01
-0.92
-0.33
0
-0.07
0
-0.01
0

> <PUBCHEM_SHAPE_SELFOVERLAP>
274.709

> <PUBCHEM_SHAPE_VOLUME>
87

> <PUBCHEM_COORDINATE_TYPE>
2
5
10

$$$$
