13380150
  -OEChem-11012400363D

 22 22  0     1  0  0  0  0  0999 V2000
    0.0165    2.0292    0.3047 O   0  0  0  0  0  0  0  0  0  0  0  0
   -1.1898   -0.0919    0.2897 C   0  0  2  0  0  0  0  0  0  0  0  0
    1.1899   -0.0895    0.2933 C   0  0  1  0  0  0  0  0  0  0  0  0
   -0.0008    0.7168   -0.2267 C   0  0  0  0  0  0  0  0  0  0  0  0
   -0.7689   -1.5399    0.0350 C   0  0  0  0  0  0  0  0  0  0  0  0
    0.7625   -1.5474    0.0924 C   0  0  0  0  0  0  0  0  0  0  0  0
   -2.5061    0.2689   -0.3829 C   0  0  0  0  0  0  0  0  0  0  0  0
    2.4968    0.2539   -0.4055 C   0  0  0  0  0  0  0  0  0  0  0  0
   -1.3043    0.0742    1.3696 H   0  0  0  0  0  0  0  0  0  0  0  0
    1.3216    0.1045    1.3667 H   0  0  0  0  0  0  0  0  0  0  0  0
   -0.0065    0.7747   -1.3223 H   0  0  0  0  0  0  0  0  0  0  0  0
   -1.0983   -1.8845   -0.9525 H   0  0  0  0  0  0  0  0  0  0  0  0
   -1.2026   -2.2174    0.7781 H   0  0  0  0  0  0  0  0  0  0  0  0
    1.1257   -2.1750    0.9134 H   0  0  0  0  0  0  0  0  0  0  0  0
    1.1643   -1.9651   -0.8381 H   0  0  0  0  0  0  0  0  0  0  0  0
   -3.3173   -0.3628   -0.0064 H   0  0  0  0  0  0  0  0  0  0  0  0
   -2.7691    1.3129   -0.1841 H   0  0  0  0  0  0  0  0  0  0  0  0
   -2.4507    0.1367   -1.4687 H   0  0  0  0  0  0  0  0  0  0  0  0
    3.3083   -0.3820   -0.0367 H   0  0  0  0  0  0  0  0  0  0  0  0
    2.4208    0.1093   -1.4885 H   0  0  0  0  0  0  0  0  0  0  0  0
    2.7774    1.2960   -0.2232 H   0  0  0  0  0  0  0  0  0  0  0  0
    0.8016    2.4806   -0.0480 H   0  0  0  0  0  0  0  0  0  0  0  0
  1  4  1  0  0  0  0
  1 22  1  0  0  0  0
  2  4  1  0  0  0  0
  2  5  1  0  0  0  0
  2  7  1  0  0  0  0
  2  9  1  0  0  0  0
  3  4  1  0  0  0  0
  3  6  1  0  0  0  0
  3  8  1  0  0  0  0
  3 10  1  0  0  0  0
  4 11  1  0  0  0  0
  5  6  1  0  0  0  0
  5 12  1  0  0  0  0
  5 13  1  0  0  0  0
  6 14  1  0  0  0  0
  6 15  1  0  0  0  0
  7 16  1  0  0  0  0
  7 17  1  0  0  0  0
  7 18  1  0  0  0  0
  8 19  1  0  0  0  0
  8 20  1  0  0  0  0
  8 21  1  0  0  0  0
M  END
> <PUBCHEM_COMPOUND_CID>
13380150

> <PUBCHEM_CONFORMER_RMSD>
0.4

> <PUBCHEM_CONFORMER_DIVERSEORDER>
2
1

> <PUBCHEM_MMFF94_PARTIAL_CHARGES>
3
1 -0.68
22 0.4
4 0.28

> <PUBCHEM_EFFECTIVE_ROTOR_COUNT>
1

> <PUBCHEM_PHARMACOPHORE_FEATURES>
3
1 1 acceptor
1 1 donor
5 2 3 4 5 6 rings

> <PUBCHEM_HEAVY_ATOM_COUNT>
8

> <PUBCHEM_ATOM_DEF_STEREO_COUNT>
0

> <PUBCHEM_ATOM_UDEF_STEREO_COUNT>
2

> <PUBCHEM_BOND_DEF_STEREO_COUNT>
0

> <PUBCHEM_BOND_UDEF_STEREO_COUNT>
0

> <PUBCHEM_ISOTOPIC_ATOM_COUNT>
0

> <PUBCHEM_COMPONENT_COUNT>
1

> <PUBCHEM_CACTVS_TAUTO_COUNT>
1

> <PUBCHEM_CONFORMER_ID>
00CC2A3600000002

> <PUBCHEM_MMFF94_ENERGY>
16.0984

> <PUBCHEM_FEATURE_SELFOVERLAP>
15.223

> <PUBCHEM_SHAPE_FINGERPRINT>
16714656 1 18410862070314984462
18185500 45 18411415107315224399
21040471 1 18409443695793475691
23552423 10 18046912567269813447
2748010 2 18050285061510804781
29004967 10 18335426742175671971
5084963 1 17985552392599616099

> <PUBCHEM_SHAPE_MULTIPOLES>
158.77
2.75
1.69
0.68
0.02
0.03
0.02
0.3
0.5
-0.01
-0.14
-0.01
0.02
-0.01

> <PUBCHEM_SHAPE_SELFOVERLAP>
307.432

> <PUBCHEM_SHAPE_VOLUME>
100

> <PUBCHEM_COORDINATE_TYPE>
2
5
10

$$$$
