117801
  -OEChem-11012400463D

 23 22  0     0  0  0  0  0  0999 V2000
    1.6666   -0.1868   -0.4643 O   0  0  0  0  0  0  0  0  0  0  0  0
   -1.6716   -0.1806    0.4698 O   0  0  0  0  0  0  0  0  0  0  0  0
    2.9894   -0.8584    1.1782 O   0  5  0  0  0  0  0  0  0  0  0  0
   -2.9672   -0.8857   -1.1807 O   0  5  0  0  0  0  0  0  0  0  0  0
    3.2360   -1.7902   -0.8325 O   0  0  0  0  0  0  0  0  0  0  0  0
   -3.2436   -1.7803    0.8429 O   0  0  0  0  0  0  0  0  0  0  0  0
    2.7241   -1.0239   -0.0131 N   0  3  0  0  0  0  0  0  0  0  0  0
   -2.7203   -1.0283    0.0173 N   0  3  0  0  0  0  0  0  0  0  0  0
   -0.0010    1.5430    0.0002 C   0  0  0  0  0  0  0  0  0  0  0  0
    1.1413    0.6607    0.5505 C   0  0  0  0  0  0  0  0  0  0  0  0
   -1.1317    0.6490   -0.5514 C   0  0  0  0  0  0  0  0  0  0  0  0
   -0.5449    2.4465    1.1231 C   0  0  0  0  0  0  0  0  0  0  0  0
    0.5228    2.4352   -1.1398 C   0  0  0  0  0  0  0  0  0  0  0  0
    1.9366    1.3174    0.9293 H   0  0  0  0  0  0  0  0  0  0  0  0
    0.7599    0.0550    1.3835 H   0  0  0  0  0  0  0  0  0  0  0  0
   -1.9239    1.2966   -0.9522 H   0  0  0  0  0  0  0  0  0  0  0  0
   -0.7400    0.0297   -1.3695 H   0  0  0  0  0  0  0  0  0  0  0  0
    0.2342    3.1204    1.4970 H   0  0  0  0  0  0  0  0  0  0  0  0
   -1.3768    3.0641    0.7663 H   0  0  0  0  0  0  0  0  0  0  0  0
   -0.9062    1.8575    1.9732 H   0  0  0  0  0  0  0  0  0  0  0  0
   -0.2663    3.0936   -1.5205 H   0  0  0  0  0  0  0  0  0  0  0  0
    1.3478    3.0695   -0.7966 H   0  0  0  0  0  0  0  0  0  0  0  0
    0.8892    1.8390   -1.9827 H   0  0  0  0  0  0  0  0  0  0  0  0
  1  7  1  0  0  0  0
  1 10  1  0  0  0  0
  2  8  1  0  0  0  0
  2 11  1  0  0  0  0
  3  7  1  0  0  0  0
  4  8  1  0  0  0  0
  5  7  2  0  0  0  0
  6  8  2  0  0  0  0
  9 10  1  0  0  0  0
  9 11  1  0  0  0  0
  9 12  1  0  0  0  0
  9 13  1  0  0  0  0
 10 14  1  0  0  0  0
 10 15  1  0  0  0  0
 11 16  1  0  0  0  0
 11 17  1  0  0  0  0
 12 18  1  0  0  0  0
 12 19  1  0  0  0  0
 12 20  1  0  0  0  0
 13 21  1  0  0  0  0
 13 22  1  0  0  0  0
 13 23  1  0  0  0  0
M  CHG  4   3  -1   4  -1   7   1   8   1
M  END
> <PUBCHEM_COMPOUND_CID>
117801

> <PUBCHEM_CONFORMER_RMSD>
0.6

> <PUBCHEM_CONFORMER_DIVERSEORDER>
2
14
15
13
4
5
6
16
12
8
11
1
3
17
9
7
10

> <PUBCHEM_MMFF94_PARTIAL_CHARGES>
10
1 -0.27
10 0.28
11 0.28
2 -0.27
3 -0.52
4 -0.52
5 -0.52
6 -0.52
7 1.03
8 1.03

> <PUBCHEM_EFFECTIVE_ROTOR_COUNT>
6

> <PUBCHEM_PHARMACOPHORE_FEATURES>
5
1 3 acceptor
1 4 acceptor
1 5 acceptor
1 6 acceptor
3 9 12 13 hydrophobe

> <PUBCHEM_HEAVY_ATOM_COUNT>
13

> <PUBCHEM_ATOM_DEF_STEREO_COUNT>
0

> <PUBCHEM_ATOM_UDEF_STEREO_COUNT>
0

> <PUBCHEM_BOND_DEF_STEREO_COUNT>
0

> <PUBCHEM_BOND_UDEF_STEREO_COUNT>
0

> <PUBCHEM_ISOTOPIC_ATOM_COUNT>
0

> <PUBCHEM_COMPONENT_COUNT>
1

> <PUBCHEM_CACTVS_TAUTO_COUNT>
1

> <PUBCHEM_CONFORMER_ID>
0001CC2900000002

> <PUBCHEM_MMFF94_ENERGY>
37.4074

> <PUBCHEM_FEATURE_SELFOVERLAP>
25.514

> <PUBCHEM_SHAPE_FINGERPRINT>
1 1 17686059800280447813
11322862 65 17621894088468476253
12932764 1 17770228472750027829
14128692 85 18261398853265534516
15775835 57 9295289438865402891
20645477 70 18118679066311435815
20653085 51 11242259510931801288
20671657 53 17894907442845869852
20711985 344 18119232987636660153
20871998 22 18411983572080344490
21665056 4 17328026469067494174
23500284 5 18338522936744123819
449060 23 18340209596308275002
81228 2 18194679276427030289

> <PUBCHEM_SHAPE_MULTIPOLES>
222.36
4.82
2.59
1.15
0.04
1.11
0
-5.11
0.03
-0.02
0
0
0.24
0.06

> <PUBCHEM_SHAPE_SELFOVERLAP>
422.908

> <PUBCHEM_SHAPE_VOLUME>
138.4

> <PUBCHEM_COORDINATE_TYPE>
2
5
10

$$$$
