70990
  -OEChem-11012401223D

 14 14  0     0  0  0  0  0  0999 V2000
    2.6525    0.7178    1.4649 Cl  0  0  0  0  0  0  0  0  0  0  0  0
    3.0026   -1.7364   -0.0053 Cl  0  0  0  0  0  0  0  0  0  0  0  0
    2.6437    0.7288   -1.4617 Cl  0  0  0  0  0  0  0  0  0  0  0  0
    0.4822    2.3954    0.0008 Cl  0  0  0  0  0  0  0  0  0  0  0  0
   -2.6799    1.9737    0.0007 Cl  0  0  0  0  0  0  0  0  0  0  0  0
   -3.7923   -1.0380    0.0000 Cl  0  0  0  0  0  0  0  0  0  0  0  0
    0.1372   -1.5775   -0.0004 N   0  0  0  0  0  0  0  0  0  0  0  0
    0.5965   -0.3059   -0.0001 C   0  0  0  0  0  0  0  0  0  0  0  0
   -0.2198    0.8137    0.0005 C   0  0  0  0  0  0  0  0  0  0  0  0
    2.0860   -0.1793   -0.0007 C   0  0  0  0  0  0  0  0  0  0  0  0
   -1.5960    0.6157    0.0008 C   0  0  0  0  0  0  0  0  0  0  0  0
   -2.1067   -0.6776    0.0005 C   0  0  0  0  0  0  0  0  0  0  0  0
   -1.2061   -1.7305    0.0000 C   0  0  0  0  0  0  0  0  0  0  0  0
   -1.5381   -2.7645   -0.0004 H   0  0  0  0  0  0  0  0  0  0  0  0
  1 10  1  0  0  0  0
  2 10  1  0  0  0  0
  3 10  1  0  0  0  0
  4  9  1  0  0  0  0
  5 11  1  0  0  0  0
  6 12  1  0  0  0  0
  7  8  2  0  0  0  0
  7 13  1  0  0  0  0
  8  9  1  0  0  0  0
  8 10  1  0  0  0  0
  9 11  2  0  0  0  0
 11 12  1  0  0  0  0
 12 13  2  0  0  0  0
 13 14  1  0  0  0  0
M  END
> <PUBCHEM_COMPOUND_CID>
70990

> <PUBCHEM_CONFORMER_RMSD>
0.4

> <PUBCHEM_CONFORMER_DIVERSEORDER>
1

> <PUBCHEM_MMFF94_PARTIAL_CHARGES>
14
1 -0.29
10 1.01
11 0.18
12 0.18
13 0.16
14 0.15
2 -0.29
3 -0.29
4 -0.18
5 -0.18
6 -0.18
7 -0.62
8 0.17
9 0.18

> <PUBCHEM_EFFECTIVE_ROTOR_COUNT>
1

> <PUBCHEM_PHARMACOPHORE_FEATURES>
2
1 7 acceptor
6 7 8 9 11 12 13 rings

> <PUBCHEM_HEAVY_ATOM_COUNT>
13

> <PUBCHEM_ATOM_DEF_STEREO_COUNT>
0

> <PUBCHEM_ATOM_UDEF_STEREO_COUNT>
0

> <PUBCHEM_BOND_DEF_STEREO_COUNT>
0

> <PUBCHEM_BOND_UDEF_STEREO_COUNT>
0

> <PUBCHEM_ISOTOPIC_ATOM_COUNT>
0

> <PUBCHEM_COMPONENT_COUNT>
1

> <PUBCHEM_CACTVS_TAUTO_COUNT>
1

> <PUBCHEM_CONFORMER_ID>
0001154E00000001

> <PUBCHEM_MMFF94_ENERGY>
35.3521

> <PUBCHEM_FEATURE_SELFOVERLAP>
10.148

> <PUBCHEM_SHAPE_FINGERPRINT>
10967382 1 18266740375374172613
11132069 177 18336540521832751545
11206711 2 18410013251928825117
12032990 46 18410859841227341051
12423570 1 15822720893694437444
12524768 44 18050568744280034085
12716758 59 18339357466021924969
12932764 1 17989488541005336318
13140716 1 18267019449406279403
13380535 76 18123747544099915287
14325111 11 18410856525285325953
15219456 202 18130495375760999490
161256 15 18267306628184175661
16945 1 18338517576672300391
17804303 29 18268989774649773354
18186145 218 17846222141709831113
193761 8 17402050492554791087
20510252 161 18343862216895950329
20511035 2 18340764849733075534
20559304 39 18335138747433324512
21501502 16 18337116678520230391
22802520 49 17986960656472587598
2334 1 18410856534075837559
23402539 116 18271792519518914767
23463225 33 18335704879804778206
23552423 10 18187649068014784906
23557571 272 18272376369294660708
23559900 14 18200315391318661790
23598291 2 17676775271019140228
2748010 2 18340202990590337207
3248919 1 17967250914049109898
5084963 1 18334577893439904306
53812653 166 18270677558967530577
7364860 26 18339926038604683204

> <PUBCHEM_SHAPE_MULTIPOLES>
273.77
5.3
2.33
0.98
1.38
0.52
0
-1.05
0
0.39
0
-0.93
0.26
0

> <PUBCHEM_SHAPE_SELFOVERLAP>
516.589

> <PUBCHEM_SHAPE_VOLUME>
168.2

> <PUBCHEM_COORDINATE_TYPE>
2
5
10

$$$$
