5373941
  -OEChem-11012401243D

 25 25  0     0  0  0  0  0  0999 V2000
    3.3421   -0.1957    0.6691 O   0  0  0  0  0  0  0  0  0  0  0  0
    3.4892    0.8130   -1.4382 O   0  0  0  0  0  0  0  0  0  0  0  0
   -5.1512    1.4462   -0.1591 O   0  0  0  0  0  0  0  0  0  0  0  0
   -5.0604   -0.8241   -0.3641 O   0  0  0  0  0  0  0  0  0  0  0  0
   -0.7696   -0.4673    0.1726 C   0  0  0  0  0  0  0  0  0  0  0  0
    1.9940   -0.2850    0.5065 C   0  0  0  0  0  0  0  0  0  0  0  0
   -0.2123    0.6642    0.7680 C   0  0  0  0  0  0  0  0  0  0  0  0
    0.0548   -1.5078   -0.2557 C   0  0  0  0  0  0  0  0  0  0  0  0
    1.1696    0.7554    0.9347 C   0  0  0  0  0  0  0  0  0  0  0  0
    1.4367   -1.4166   -0.0887 C   0  0  0  0  0  0  0  0  0  0  0  0
   -2.2104   -0.5624   -0.0021 C   0  0  0  0  0  0  0  0  0  0  0  0
   -3.0687    0.4815    0.0041 C   0  0  0  0  0  0  0  0  0  0  0  0
    4.0131    0.3969   -0.4134 C   0  0  0  0  0  0  0  0  0  0  0  0
    5.4868    0.4489   -0.1385 C   0  0  0  0  0  0  0  0  0  0  0  0
   -4.5138    0.2527   -0.1951 C   0  0  0  0  0  0  0  0  0  0  0  0
   -0.8156    1.4895    1.1345 H   0  0  0  0  0  0  0  0  0  0  0  0
   -0.3611   -2.3971   -0.7232 H   0  0  0  0  0  0  0  0  0  0  0  0
    1.5976    1.6375    1.4035 H   0  0  0  0  0  0  0  0  0  0  0  0
    2.0733   -2.2308   -0.4244 H   0  0  0  0  0  0  0  0  0  0  0  0
   -2.5964   -1.5674   -0.1599 H   0  0  0  0  0  0  0  0  0  0  0  0
   -2.7464    1.5088    0.1303 H   0  0  0  0  0  0  0  0  0  0  0  0
    5.6742    1.0468    0.7568 H   0  0  0  0  0  0  0  0  0  0  0  0
    5.9975    0.9171   -0.9847 H   0  0  0  0  0  0  0  0  0  0  0  0
    5.8745   -0.5650   -0.0133 H   0  0  0  0  0  0  0  0  0  0  0  0
   -6.1191    1.3498   -0.2867 H   0  0  0  0  0  0  0  0  0  0  0  0
  1  6  1  0  0  0  0
  1 13  1  0  0  0  0
  2 13  2  0  0  0  0
  3 15  1  0  0  0  0
  3 25  1  0  0  0  0
  4 15  2  0  0  0  0
  5  7  2  0  0  0  0
  5  8  1  0  0  0  0
  5 11  1  0  0  0  0
  6  9  2  0  0  0  0
  6 10  1  0  0  0  0
  7  9  1  0  0  0  0
  7 16  1  0  0  0  0
  8 10  2  0  0  0  0
  8 17  1  0  0  0  0
  9 18  1  0  0  0  0
 10 19  1  0  0  0  0
 11 12  2  0  0  0  0
 11 20  1  0  0  0  0
 12 15  1  0  0  0  0
 12 21  1  0  0  0  0
 13 14  1  0  0  0  0
 14 22  1  0  0  0  0
 14 23  1  0  0  0  0
 14 24  1  0  0  0  0
M  END
> <PUBCHEM_COMPOUND_CID>
5373941

> <PUBCHEM_CONFORMER_RMSD>
0.6

> <PUBCHEM_CONFORMER_DIVERSEORDER>
1
14
17
16
7
3
11
9
6
4
10
8
15
18
12
2
13
5

> <PUBCHEM_MMFF94_PARTIAL_CHARGES>
22
1 -0.23
10 -0.15
11 -0.18
12 -0.14
13 0.66
14 0.06
15 0.71
16 0.15
17 0.15
18 0.15
19 0.15
2 -0.57
20 0.15
21 0.15
25 0.5
3 -0.65
4 -0.57
5 0.03
6 0.08
7 -0.15
8 -0.15
9 -0.15

> <PUBCHEM_EFFECTIVE_ROTOR_COUNT>
4

> <PUBCHEM_PHARMACOPHORE_FEATURES>
5
1 2 acceptor
1 3 acceptor
1 4 acceptor
3 3 4 15 anion
6 5 6 7 8 9 10 rings

> <PUBCHEM_HEAVY_ATOM_COUNT>
15

> <PUBCHEM_ATOM_DEF_STEREO_COUNT>
0

> <PUBCHEM_ATOM_UDEF_STEREO_COUNT>
0

> <PUBCHEM_BOND_DEF_STEREO_COUNT>
1

> <PUBCHEM_BOND_UDEF_STEREO_COUNT>
0

> <PUBCHEM_ISOTOPIC_ATOM_COUNT>
0

> <PUBCHEM_COMPONENT_COUNT>
1

> <PUBCHEM_CACTVS_TAUTO_COUNT>
1

> <PUBCHEM_CONFORMER_ID>
0051FFF500000001

> <PUBCHEM_MMFF94_ENERGY>
42.013

> <PUBCHEM_FEATURE_SELFOVERLAP>
25.427

> <PUBCHEM_SHAPE_FINGERPRINT>
10354089 29 17240203235818586284
106641 1 11458720429759165428
11401426 45 18060698407662933882
11796584 16 12679465287545368325
12236239 1 18260264153439934458
12251169 10 11386370348089579544
12616999 72 18341613698316121830
12670543 26 18059863818192079148
12815109 37 10087643697392263847
13760787 19 18113334232423926818
14123238 8 17967812756227899443
14251718 22 18272932756163435935
14251731 8 10952056641158652003
14911166 2 17988925591341876938
14993402 34 17275384304708289451
15048467 5 18187364328715158468
17834072 33 17676488401669013467
17834072 8 17418371385733766861
17834076 25 18407759235753596763
18186145 218 17489862756973845675
187816 3 17847065493093265914
200 152 14333414441082653986
20645477 70 18059579027332460750
21637258 2 13470409916467865548
22713019 99 16630533938042545838
22854114 59 13984660351878430669
23402539 116 17603581950036182855
23402655 69 18201996582787740097
23559900 14 18337389318892404586
26918003 58 7925912586894993991
293599 30 18413107264315974688
3060560 45 17203323399345535350
3071541 37 18340770342933209782
366044 4 18342455958735730442
3759504 43 18260550068838582786
4047638 21 17022905644656206698
42 15 10519987062675690579
42788 4 18335137596287117704
465052 167 9943519739041058464
474 4 16443919382710544412
4990 188 17489591168510677350
81539 233 18335699403758762855
8272917 22 17749387019149809882

> <PUBCHEM_SHAPE_MULTIPOLES>
285.22
10.9
1.24
0.87
3.72
0.23
-0.07
-3.08
-2.54
0.42
-0.04
-0.59
-0.15
-0.19

> <PUBCHEM_SHAPE_SELFOVERLAP>
592.56

> <PUBCHEM_SHAPE_VOLUME>
160.5

> <PUBCHEM_COORDINATE_TYPE>
2
5
10

$$$$
