144916
  -OEChem-10312421012D

 52 51  0     0  0  0  0  0  0999 V2000
    3.7320   -3.0311    0.0000 O   0  0  0  0  0  0  0  0  0  0  0  0
    5.2320    3.0311    0.0000 O   0  0  0  0  0  0  0  0  0  0  0  0
    5.2320   -2.1651    0.0000 O   0  5  0  0  0  0  0  0  0  0  0  0
    6.7320   -1.2990    0.0000 O   0  0  0  0  0  0  0  0  0  0  0  0
    2.2320   -2.1651    0.0000 O   0  5  0  0  0  0  0  0  0  0  0  0
    3.7320    0.4330    0.0000 O   0  5  0  0  0  0  0  0  0  0  0  0
    2.2320   -0.4330    0.0000 O   0  0  0  0  0  0  0  0  0  0  0  0
    3.7320    2.1651    0.0000 O   0  0  0  0  0  0  0  0  0  0  0  0
    3.7320   -6.4952    0.0000 O   0  5  0  0  0  0  0  0  0  0  0  0
    5.4641   -4.7631    0.0000 O   0  5  0  0  0  0  0  0  0  0  0  0
    2.0000   -4.7631    0.0000 O   0  5  0  0  0  0  0  0  0  0  0  0
    6.9641    4.7631    0.0000 O   0  5  0  0  0  0  0  0  0  0  0  0
    3.5000    4.7631    0.0000 O   0  5  0  0  0  0  0  0  0  0  0  0
    5.2320    6.4952    0.0000 O   0  5  0  0  0  0  0  0  0  0  0  0
    2.2320   -5.6292    0.0000 O   0  0  0  0  0  0  0  0  0  0  0  0
    4.5981   -6.2631    0.0000 O   0  0  0  0  0  0  0  0  0  0  0  0
    2.8660   -3.2631    0.0000 O   0  0  0  0  0  0  0  0  0  0  0  0
    6.0981    6.2631    0.0000 O   0  0  0  0  0  0  0  0  0  0  0  0
    4.3660    3.2631    0.0000 O   0  0  0  0  0  0  0  0  0  0  0  0
    3.7320    5.6292    0.0000 O   0  0  0  0  0  0  0  0  0  0  0  0
    5.2320   -0.4330    0.0000 N   0  0  0  0  0  0  0  0  0  0  0  0
    3.7320   -1.2990    0.0000 N   0  0  0  0  0  0  0  0  0  0  0  0
    5.2320    1.2990    0.0000 N   0  0  0  0  0  0  0  0  0  0  0  0
    5.7320   -1.2990    0.0000 N   0  3  0  0  0  0  0  0  0  0  0  0
    2.7320   -1.2990    0.0000 N   0  3  0  0  0  0  0  0  0  0  0  0
    4.2320    1.2990    0.0000 N   0  3  0  0  0  0  0  0  0  0  0  0
    3.2320   -5.6292    0.0000 N   0  3  0  0  0  0  0  0  0  0  0  0
    4.5981   -5.2631    0.0000 N   0  3  0  0  0  0  0  0  0  0  0  0
    2.8660   -4.2631    0.0000 N   0  3  0  0  0  0  0  0  0  0  0  0
    6.0981    5.2631    0.0000 N   0  3  0  0  0  0  0  0  0  0  0  0
    4.3660    4.2631    0.0000 N   0  3  0  0  0  0  0  0  0  0  0  0
    4.7320    5.6292    0.0000 N   0  3  0  0  0  0  0  0  0  0  0  0
    4.2320   -0.4330    0.0000 C   0  0  0  0  0  0  0  0  0  0  0  0
    5.7320    0.4330    0.0000 C   0  0  0  0  0  0  0  0  0  0  0  0
    3.7320   -4.7631    0.0000 C   0  0  0  0  0  0  0  0  0  0  0  0
    5.2320    4.7631    0.0000 C   0  0  0  0  0  0  0  0  0  0  0  0
    4.2320   -2.1651    0.0000 C   0  0  0  0  0  0  0  0  0  0  0  0
    5.7320    2.1651    0.0000 C   0  0  0  0  0  0  0  0  0  0  0  0
    4.2320   -3.8971    0.0000 C   0  0  0  0  0  0  0  0  0  0  0  0
    5.7320    3.8971    0.0000 C   0  0  0  0  0  0  0  0  0  0  0  0
    4.3397    0.1776    0.0000 H   0  0  0  0  0  0  0  0  0  0  0  0
    3.6494   -0.2210    0.0000 H   0  0  0  0  0  0  0  0  0  0  0  0
    6.2070    0.0345    0.0000 H   0  0  0  0  0  0  0  0  0  0  0  0
    6.2070    0.8315    0.0000 H   0  0  0  0  0  0  0  0  0  0  0  0
    4.7070   -2.5636    0.0000 H   0  0  0  0  0  0  0  0  0  0  0  0
    4.7070   -1.7665    0.0000 H   0  0  0  0  0  0  0  0  0  0  0  0
    6.2070    1.7665    0.0000 H   0  0  0  0  0  0  0  0  0  0  0  0
    6.2070    2.5636    0.0000 H   0  0  0  0  0  0  0  0  0  0  0  0
    4.7070   -4.2956    0.0000 H   0  0  0  0  0  0  0  0  0  0  0  0
    4.7070   -3.4986    0.0000 H   0  0  0  0  0  0  0  0  0  0  0  0
    6.2070    3.4986    0.0000 H   0  0  0  0  0  0  0  0  0  0  0  0
    6.2070    4.2956    0.0000 H   0  0  0  0  0  0  0  0  0  0  0  0
  1 37  1  0  0  0  0
  1 39  1  0  0  0  0
  2 38  1  0  0  0  0
  2 40  1  0  0  0  0
  3 24  1  0  0  0  0
  4 24  2  0  0  0  0
  5 25  1  0  0  0  0
  6 26  1  0  0  0  0
  7 25  2  0  0  0  0
  8 26  2  0  0  0  0
  9 27  1  0  0  0  0
 10 28  1  0  0  0  0
 11 29  1  0  0  0  0
 12 30  1  0  0  0  0
 13 31  1  0  0  0  0
 14 32  1  0  0  0  0
 15 27  2  0  0  0  0
 16 28  2  0  0  0  0
 17 29  2  0  0  0  0
 18 30  2  0  0  0  0
 19 31  2  0  0  0  0
 20 32  2  0  0  0  0
 21 24  1  0  0  0  0
 21 33  1  0  0  0  0
 21 34  1  0  0  0  0
 22 25  1  0  0  0  0
 22 33  1  0  0  0  0
 22 37  1  0  0  0  0
 23 26  1  0  0  0  0
 23 34  1  0  0  0  0
 23 38  1  0  0  0  0
 27 35  1  0  0  0  0
 28 35  1  0  0  0  0
 29 35  1  0  0  0  0
 30 36  1  0  0  0  0
 31 36  1  0  0  0  0
 32 36  1  0  0  0  0
 33 41  1  0  0  0  0
 33 42  1  0  0  0  0
 34 43  1  0  0  0  0
 34 44  1  0  0  0  0
 35 39  1  0  0  0  0
 36 40  1  0  0  0  0
 37 45  1  0  0  0  0
 37 46  1  0  0  0  0
 38 47  1  0  0  0  0
 38 48  1  0  0  0  0
 39 49  1  0  0  0  0
 39 50  1  0  0  0  0
 40 51  1  0  0  0  0
 40 52  1  0  0  0  0
M  CHG  8   3  -1   5  -1   6  -1   9  -1  10  -1  11  -1  12  -1  13  -1
M  CHG  8  14  -1  24   1  25   1  26   1  27   1  28   1  29   1  30   1
M  CHG  2  31   1  32   1
M  END
> <PUBCHEM_COMPOUND_CID>
144916

> <PUBCHEM_COMPOUND_CANONICALIZED>
1

> <PUBCHEM_CACTVS_COMPLEXITY>
880

> <PUBCHEM_CACTVS_HBOND_ACCEPTOR>
23

> <PUBCHEM_CACTVS_HBOND_DONOR>
0

> <PUBCHEM_CACTVS_ROTATABLE_BOND>
12

> <PUBCHEM_CACTVS_SUBSKEYS>
AAADccBz/gAAAAAAAAAAAAAAAAAAAAAAAAAAAAAAAAAAAAAAAAAAHgAMAAAAAAChgAYBAAIQRAABAAAAAwAAAAAAAAAkAAAIAACCAAAAAAAJAAAIAAAAAAAAAAAAAAAAAAAAAAAAAAAAAAAAAAAAAAAAAA==

> <PUBCHEM_IUPAC_OPENEYE_NAME>
N,N-bis[[nitro(2,2,2-trinitroethoxymethyl)amino]methyl]nitramide

> <PUBCHEM_IUPAC_CAS_NAME>
N,N-bis[[nitro(2,2,2-trinitroethoxymethyl)amino]methyl]nitramide

> <PUBCHEM_IUPAC_NAME_MARKUP>
<I>N</I>,<I>N</I>-bis[[nitro(2,2,2-trinitroethoxymethyl)amino]methyl]nitramide

> <PUBCHEM_IUPAC_NAME>
N,N-bis[[nitro(2,2,2-trinitroethoxymethyl)amino]methyl]nitramide

> <PUBCHEM_IUPAC_SYSTEMATIC_NAME>
N,N-bis[[nitro(2,2,2-trinitroethoxymethyl)amino]methyl]nitramide

> <PUBCHEM_IUPAC_TRADITIONAL_NAME>
N,N-bis[[nitro(2,2,2-trinitroethoxymethyl)amino]methyl]nitramide

> <PUBCHEM_IUPAC_INCHI>
InChI=1S/C8H12N12O20/c21-12(22)7(13(23)24,14(25)26)1-39-5-10(19(35)36)3-9(18(33)34)4-11(20(37)38)6-40-2-8(15(27)28,16(29)30)17(31)32/h1-6H2

> <PUBCHEM_IUPAC_INCHIKEY>
ISZOHMLIFYGPHQ-UHFFFAOYSA-N

> <PUBCHEM_XLOGP3_AA>
1.2

> <PUBCHEM_EXACT_MASS>
596.02908082

> <PUBCHEM_MOLECULAR_FORMULA>
C8H12N12O20

> <PUBCHEM_MOLECULAR_WEIGHT>
596.25

> <PUBCHEM_OPENEYE_CAN_SMILES>
C(C([N+](=O)[O-])([N+](=O)[O-])[N+](=O)[O-])OCN(CN(CN(COCC([N+](=O)[O-])([N+](=O)[O-])[N+](=O)[O-])[N+](=O)[O-])[N+](=O)[O-])[N+](=O)[O-]

> <PUBCHEM_OPENEYE_ISO_SMILES>
C(C([N+](=O)[O-])([N+](=O)[O-])[N+](=O)[O-])OCN(CN(CN(COCC([N+](=O)[O-])([N+](=O)[O-])[N+](=O)[O-])[N+](=O)[O-])[N+](=O)[O-])[N+](=O)[O-]

> <PUBCHEM_CACTVS_TPSA>
441

> <PUBCHEM_MONOISOTOPIC_WEIGHT>
596.02908082

> <PUBCHEM_TOTAL_CHARGE>
0

> <PUBCHEM_HEAVY_ATOM_COUNT>
40

> <PUBCHEM_ATOM_DEF_STEREO_COUNT>
0

> <PUBCHEM_ATOM_UDEF_STEREO_COUNT>
0

> <PUBCHEM_BOND_DEF_STEREO_COUNT>
0

> <PUBCHEM_BOND_UDEF_STEREO_COUNT>
0

> <PUBCHEM_ISOTOPIC_ATOM_COUNT>
0

> <PUBCHEM_COMPONENT_COUNT>
1

> <PUBCHEM_CACTVS_TAUTO_COUNT>
-1

> <PUBCHEM_COORDINATE_TYPE>
1
5
255

$$$$
