520103
  -OEChem-11012401033D

 12 12  0     0  0  0  0  0  0999 V2000
    2.6910   -0.0001    0.0003 O   0  0  0  0  0  0  0  0  0  0  0  0
   -2.7716   -0.0001    0.0003 O   0  5  0  0  0  0  0  0  0  0  0  0
    1.4112    0.0000   -0.0001 N   0  3  0  0  0  0  0  0  0  0  0  0
   -1.3539    0.0000   -0.0001 N   0  0  0  0  0  0  0  0  0  0  0  0
    0.6744    1.2730    0.0000 C   0  0  0  0  0  0  0  0  0  0  0  0
    0.6744   -1.2729   -0.0001 C   0  0  0  0  0  0  0  0  0  0  0  0
   -0.6628    1.1908   -0.0001 C   0  0  0  0  0  0  0  0  0  0  0  0
   -0.6627   -1.1908    0.0000 C   0  0  0  0  0  0  0  0  0  0  0  0
    1.2256    2.2041    0.0000 H   0  0  0  0  0  0  0  0  0  0  0  0
    1.2256   -2.2041    0.0000 H   0  0  0  0  0  0  0  0  0  0  0  0
   -1.2279    2.1198   -0.0001 H   0  0  0  0  0  0  0  0  0  0  0  0
   -1.2279   -2.1198    0.0000 H   0  0  0  0  0  0  0  0  0  0  0  0
  1  3  2  0  0  0  0
  2  4  1  0  0  0  0
  3  5  1  0  0  0  0
  3  6  1  0  0  0  0
  4  7  1  0  0  0  0
  4  8  1  0  0  0  0
  5  7  2  0  0  0  0
  5  9  1  0  0  0  0
  6  8  2  0  0  0  0
  6 10  1  0  0  0  0
  7 11  1  0  0  0  0
  8 12  1  0  0  0  0
M  CHG  2   2  -1   3   1
M  END
> <PUBCHEM_COMPOUND_CID>
520103

> <PUBCHEM_CONFORMER_RMSD>
0.4

> <PUBCHEM_CONFORMER_DIVERSEORDER>
1

> <PUBCHEM_MMFF94_PARTIAL_CHARGES>
12
1 -0.63
10 0.15
11 0.15
12 0.15
2 -0.86
3 0.71
4 -0.07
5 -0.19
6 -0.19
7 -0.19
8 -0.19
9 0.15

> <PUBCHEM_EFFECTIVE_ROTOR_COUNT>
0

> <PUBCHEM_PHARMACOPHORE_FEATURES>
2
1 2 anion
6 3 4 5 6 7 8 rings

> <PUBCHEM_HEAVY_ATOM_COUNT>
8

> <PUBCHEM_ATOM_DEF_STEREO_COUNT>
0

> <PUBCHEM_ATOM_UDEF_STEREO_COUNT>
0

> <PUBCHEM_BOND_DEF_STEREO_COUNT>
0

> <PUBCHEM_BOND_UDEF_STEREO_COUNT>
0

> <PUBCHEM_ISOTOPIC_ATOM_COUNT>
0

> <PUBCHEM_COMPONENT_COUNT>
1

> <PUBCHEM_CACTVS_TAUTO_COUNT>
2

> <PUBCHEM_CONFORMER_ID>
0007EFA700000001

> <PUBCHEM_MMFF94_ENERGY>
24.8383

> <PUBCHEM_FEATURE_SELFOVERLAP>
10.148

> <PUBCHEM_SHAPE_FINGERPRINT>
16714656 1 18410858763190101574
18185500 45 18410852178778539366
20096714 4 18339080500745148147
21040471 1 18194402427161518369
23552423 10 18044946662249611558
29004967 10 18333740099891661913

> <PUBCHEM_SHAPE_MULTIPOLES>
142.94
2.78
1.44
0.57
0.15
0
0
0
0
-0.04
0
0
0
0

> <PUBCHEM_SHAPE_SELFOVERLAP>
284.881

> <PUBCHEM_SHAPE_VOLUME>
83.2

> <PUBCHEM_COORDINATE_TYPE>
2
5
10

$$$$
