141482
  -OEChem-11012400393D

 31 32  0     0  0  0  0  0  0999 V2000
    1.6424    0.0006   -0.0008 C   0  0  0  0  0  0  0  0  0  0  0  0
   -1.6425   -0.0006    0.0009 C   0  0  0  0  0  0  0  0  0  0  0  0
    1.2981   -1.3075    0.7303 C   0  0  0  0  0  0  0  0  0  0  0  0
    1.2970    1.2874    0.7665 C   0  0  0  0  0  0  0  0  0  0  0  0
    1.2962    0.0214   -1.4988 C   0  0  0  0  0  0  0  0  0  0  0  0
   -1.2959   -1.3086    0.7315 C   0  0  0  0  0  0  0  0  0  0  0  0
   -1.2974    1.2865    0.7677 C   0  0  0  0  0  0  0  0  0  0  0  0
   -1.2980    0.0206   -1.4975 C   0  0  0  0  0  0  0  0  0  0  0  0
    0.0014   -1.3696    1.5262 C   0  0  0  0  0  0  0  0  0  0  0  0
   -0.0005    2.0066    0.4232 C   0  0  0  0  0  0  0  0  0  0  0  0
   -0.0009   -0.6369   -1.9492 C   0  0  0  0  0  0  0  0  0  0  0  0
    2.7455    0.0011   -0.0015 H   0  0  0  0  0  0  0  0  0  0  0  0
   -2.7456   -0.0013    0.0016 H   0  0  0  0  0  0  0  0  0  0  0  0
    2.1040   -1.4853    1.4574 H   0  0  0  0  0  0  0  0  0  0  0  0
    1.3572   -2.1587    0.0416 H   0  0  0  0  0  0  0  0  0  0  0  0
    2.1020    2.0070    0.5567 H   0  0  0  0  0  0  0  0  0  0  0  0
    1.3569    1.1167    1.8481 H   0  0  0  0  0  0  0  0  0  0  0  0
    2.1017   -0.5192   -2.0174 H   0  0  0  0  0  0  0  0  0  0  0  0
    1.3548    1.0435   -1.8917 H   0  0  0  0  0  0  0  0  0  0  0  0
   -1.3549   -2.1598    0.0427 H   0  0  0  0  0  0  0  0  0  0  0  0
   -2.1010   -1.4874    1.4593 H   0  0  0  0  0  0  0  0  0  0  0  0
   -1.3562    1.1157    1.8493 H   0  0  0  0  0  0  0  0  0  0  0  0
   -2.1031    2.0055    0.5585 H   0  0  0  0  0  0  0  0  0  0  0  0
   -1.3576    1.0427   -1.8902 H   0  0  0  0  0  0  0  0  0  0  0  0
   -2.1036   -0.5206   -2.0153 H   0  0  0  0  0  0  0  0  0  0  0  0
    0.0021   -2.3301    2.0603 H   0  0  0  0  0  0  0  0  0  0  0  0
    0.0015   -0.6166    2.3207 H   0  0  0  0  0  0  0  0  0  0  0  0
   -0.0006    2.9492    0.9883 H   0  0  0  0  0  0  0  0  0  0  0  0
   -0.0011    2.3185   -0.6260 H   0  0  0  0  0  0  0  0  0  0  0  0
   -0.0014   -0.6191   -3.0481 H   0  0  0  0  0  0  0  0  0  0  0  0
   -0.0004   -1.7015   -1.6944 H   0  0  0  0  0  0  0  0  0  0  0  0
  1  3  1  0  0  0  0
  1  4  1  0  0  0  0
  1  5  1  0  0  0  0
  1 12  1  0  0  0  0
  2  6  1  0  0  0  0
  2  7  1  0  0  0  0
  2  8  1  0  0  0  0
  2 13  1  0  0  0  0
  3  9  1  0  0  0  0
  3 14  1  0  0  0  0
  3 15  1  0  0  0  0
  4 10  1  0  0  0  0
  4 16  1  0  0  0  0
  4 17  1  0  0  0  0
  5 11  1  0  0  0  0
  5 18  1  0  0  0  0
  5 19  1  0  0  0  0
  6  9  1  0  0  0  0
  6 20  1  0  0  0  0
  6 21  1  0  0  0  0
  7 10  1  0  0  0  0
  7 22  1  0  0  0  0
  7 23  1  0  0  0  0
  8 11  1  0  0  0  0
  8 24  1  0  0  0  0
  8 25  1  0  0  0  0
  9 26  1  0  0  0  0
  9 27  1  0  0  0  0
 10 28  1  0  0  0  0
 10 29  1  0  0  0  0
 11 30  1  0  0  0  0
 11 31  1  0  0  0  0
M  END
> <PUBCHEM_COMPOUND_CID>
141482

> <PUBCHEM_CONFORMER_RMSD>
0.4

> <PUBCHEM_CONFORMER_DIVERSEORDER>
1

> <PUBCHEM_MMFF94_PARTIAL_CHARGES>
0

> <PUBCHEM_EFFECTIVE_ROTOR_COUNT>
1.8

> <PUBCHEM_PHARMACOPHORE_FEATURES>
0

> <PUBCHEM_HEAVY_ATOM_COUNT>
11

> <PUBCHEM_ATOM_DEF_STEREO_COUNT>
0

> <PUBCHEM_ATOM_UDEF_STEREO_COUNT>
0

> <PUBCHEM_BOND_DEF_STEREO_COUNT>
0

> <PUBCHEM_BOND_UDEF_STEREO_COUNT>
0

> <PUBCHEM_ISOTOPIC_ATOM_COUNT>
0

> <PUBCHEM_COMPONENT_COUNT>
1

> <PUBCHEM_CACTVS_TAUTO_COUNT>
1

> <PUBCHEM_CONFORMER_ID>
000228AA00000001

> <PUBCHEM_MMFF94_ENERGY>
39.6382

> <PUBCHEM_FEATURE_SELFOVERLAP>
0

> <PUBCHEM_SHAPE_FINGERPRINT>
10702982 57 13432575944203846905
12423570 1 17489870440148046470
13024252 1 9715907783901660169
137420 1 14996282517651193861
141345 1 15303465042586894337
14817 1 15685816930001974291
16945 1 15394891427301502325
18185500 45 11772192955326470167
21922407 69 9625770177117607772
430814 3 12444334455045734001
5084963 1 14391743807613539649

> <PUBCHEM_SHAPE_MULTIPOLES>
226.37
2.02
1.8
1.8
0
0.03
-0.92
0
0
0
0.92
0
-0.03
0

> <PUBCHEM_SHAPE_SELFOVERLAP>
447.747

> <PUBCHEM_SHAPE_VOLUME>
128.2

> <PUBCHEM_COORDINATE_TYPE>
2
5
10

$$$$
