11309844
  -OEChem-11012400493D

 28 29  0     1  0  0  0  0  0999 V2000
    1.1390   -1.2735    1.1594 O   0  0  0  0  0  0  0  0  0  0  0  0
    2.2267   -0.1353   -0.5895 N   0  0  2  0  0  0  0  0  0  0  0  0
    1.6371    0.8782    0.2896 C   0  0  2  0  0  0  0  0  0  0  0  0
    0.5800    0.0542    1.0487 C   0  0  1  0  0  0  0  0  0  0  0  0
    2.2690   -1.3108    0.2756 C   0  0  0  0  0  0  0  0  0  0  0  0
   -0.8077   -0.0213    0.4468 C   0  0  0  0  0  0  0  0  0  0  0  0
    1.1156    2.1094   -0.4402 C   0  0  0  0  0  0  0  0  0  0  0  0
    3.5435    0.2199   -1.0990 C   0  0  0  0  0  0  0  0  0  0  0  0
   -1.7683    0.9296    0.7899 C   0  0  0  0  0  0  0  0  0  0  0  0
   -1.1236   -1.0411   -0.4503 C   0  0  0  0  0  0  0  0  0  0  0  0
   -3.0464    0.8604    0.2355 C   0  0  0  0  0  0  0  0  0  0  0  0
   -2.4017   -1.1102   -1.0047 C   0  0  0  0  0  0  0  0  0  0  0  0
   -3.3631   -0.1594   -0.6618 C   0  0  0  0  0  0  0  0  0  0  0  0
    2.3903    1.2023    1.0231 H   0  0  0  0  0  0  0  0  0  0  0  0
    0.4887    0.4292    2.0761 H   0  0  0  0  0  0  0  0  0  0  0  0
    2.2309   -2.2369   -0.3062 H   0  0  0  0  0  0  0  0  0  0  0  0
    3.1650   -1.3357    0.9081 H   0  0  0  0  0  0  0  0  0  0  0  0
    0.5922    2.7773    0.2515 H   0  0  0  0  0  0  0  0  0  0  0  0
    1.9405    2.6797   -0.8804 H   0  0  0  0  0  0  0  0  0  0  0  0
    0.4307    1.8477   -1.2537 H   0  0  0  0  0  0  0  0  0  0  0  0
    3.9555   -0.6049   -1.6910 H   0  0  0  0  0  0  0  0  0  0  0  0
    4.2551    0.4548   -0.2992 H   0  0  0  0  0  0  0  0  0  0  0  0
    3.4809    1.0844   -1.7676 H   0  0  0  0  0  0  0  0  0  0  0  0
   -1.5342    1.7283    1.4885 H   0  0  0  0  0  0  0  0  0  0  0  0
   -0.3970   -1.7925   -0.7439 H   0  0  0  0  0  0  0  0  0  0  0  0
   -3.7950    1.6006    0.5024 H   0  0  0  0  0  0  0  0  0  0  0  0
   -2.6482   -1.9031   -1.7049 H   0  0  0  0  0  0  0  0  0  0  0  0
   -4.3581   -0.2129   -1.0939 H   0  0  0  0  0  0  0  0  0  0  0  0
  1  4  1  0  0  0  0
  1  5  1  0  0  0  0
  2  3  1  0  0  0  0
  2  5  1  0  0  0  0
  2  8  1  0  0  0  0
  3  4  1  0  0  0  0
  3  7  1  0  0  0  0
  3 14  1  0  0  0  0
  4  6  1  0  0  0  0
  4 15  1  0  0  0  0
  5 16  1  0  0  0  0
  5 17  1  0  0  0  0
  6  9  2  0  0  0  0
  6 10  1  0  0  0  0
  7 18  1  0  0  0  0
  7 19  1  0  0  0  0
  7 20  1  0  0  0  0
  8 21  1  0  0  0  0
  8 22  1  0  0  0  0
  8 23  1  0  0  0  0
  9 11  1  0  0  0  0
  9 24  1  0  0  0  0
 10 12  2  0  0  0  0
 10 25  1  0  0  0  0
 11 13  2  0  0  0  0
 11 26  1  0  0  0  0
 12 13  1  0  0  0  0
 12 27  1  0  0  0  0
 13 28  1  0  0  0  0
M  END
> <PUBCHEM_COMPOUND_CID>
11309844

> <PUBCHEM_CONFORMER_RMSD>
0.6

> <PUBCHEM_CONFORMER_DIVERSEORDER>
2
3
4
1

> <PUBCHEM_MMFF94_PARTIAL_CHARGES>
17
1 -0.56
10 -0.15
11 -0.15
12 -0.15
13 -0.15
2 -0.81
24 0.15
25 0.15
26 0.15
27 0.15
28 0.15
3 0.27
4 0.42
5 0.55
6 -0.14
8 0.27
9 -0.15

> <PUBCHEM_EFFECTIVE_ROTOR_COUNT>
2

> <PUBCHEM_PHARMACOPHORE_FEATURES>
4
1 1 acceptor
1 2 cation
5 1 2 3 4 5 rings
6 6 9 10 11 12 13 rings

> <PUBCHEM_HEAVY_ATOM_COUNT>
13

> <PUBCHEM_ATOM_DEF_STEREO_COUNT>
2

> <PUBCHEM_ATOM_UDEF_STEREO_COUNT>
0

> <PUBCHEM_BOND_DEF_STEREO_COUNT>
0

> <PUBCHEM_BOND_UDEF_STEREO_COUNT>
0

> <PUBCHEM_ISOTOPIC_ATOM_COUNT>
0

> <PUBCHEM_COMPONENT_COUNT>
1

> <PUBCHEM_CACTVS_TAUTO_COUNT>
1

> <PUBCHEM_CONFORMER_ID>
00AC931400000002

> <PUBCHEM_MMFF94_ENERGY>
36.3625

> <PUBCHEM_FEATURE_SELFOVERLAP>
20.297

> <PUBCHEM_SHAPE_FINGERPRINT>
10465860 71 18131082523475861444
11031198 65 17676492739184951854
12202030 40 15338550669394016783
12326174 3 17168689848185609562
12423570 1 17547296601169447930
12897270 3 18339640152184733199
12932764 1 18411695478759614233
13764800 53 14274014373548686093
14128692 85 18060420243752638984
14144814 61 18341891870578656211
14250199 8 18338802345899892621
14993402 34 18341051835105172349
15775835 57 18333454226873799429
16945 1 18408040731857042929
18186145 218 18410846686079707965
19786989 88 16588314890342989790
20201158 50 16200157573006466031
20645464 45 14996282513646350977
20645476 183 18411416224465852559
20671657 53 16845029960824435940
20711985 344 15625118420523698034
23402539 116 18408042892995778148
23552423 10 18340477984630196627
23559900 14 17131835314314373166
25 1 17967259701831726796
2748010 2 17828494896134601896
369184 2 8358265843245464827
5084963 1 18202278087549536729
528886 8 18187651310040142864
549884 4 18335420183591994172
57812782 119 15267052619284224101
63268167 104 18260547805411390513
7364860 26 17702938291741104472
74978 22 18412539933738556543
77492 1 18411417267710044355
7832392 63 18413110537218762945
8030462 33 18410568496436552027
81228 2 14044649671962202987

> <PUBCHEM_SHAPE_MULTIPOLES>
256.68
5.25
1.57
1.11
0.39
0.34
-0.03
-0.19
1.69
-0.24
0.09
-0.23
-0.1
-0.69

> <PUBCHEM_SHAPE_SELFOVERLAP>
535.868

> <PUBCHEM_SHAPE_VOLUME>
146.5

> <PUBCHEM_COORDINATE_TYPE>
2
5
10

$$$$
