7375
  -OEChem-11012400313D

 17 17  0     0  0  0  0  0  0999 V2000
    2.1946    0.9149    1.0905 F   0  0  0  0  0  0  0  0  0  0  0  0
    2.6309   -0.9153    0.0002 F   0  0  0  0  0  0  0  0  0  0  0  0
    2.2164    0.9169   -1.0840 F   0  0  0  0  0  0  0  0  0  0  0  0
   -2.8986    1.6082   -0.0009 N   0  0  0  0  0  0  0  0  0  0  0  0
    0.3664   -0.1437   -0.0007 C   0  0  0  0  0  0  0  0  0  0  0  0
   -0.5804    0.8806   -0.0018 C   0  0  0  0  0  0  0  0  0  0  0  0
   -1.9409    0.5727   -0.0020 C   0  0  0  0  0  0  0  0  0  0  0  0
   -0.0471   -1.4759    0.0002 C   0  0  0  0  0  0  0  0  0  0  0  0
    1.8209    0.1847   -0.0006 C   0  0  0  0  0  0  0  0  0  0  0  0
   -2.3545   -0.7594   -0.0011 C   0  0  0  0  0  0  0  0  0  0  0  0
   -1.4077   -1.7837    0.0000 C   0  0  0  0  0  0  0  0  0  0  0  0
   -0.2549    1.9184   -0.0022 H   0  0  0  0  0  0  0  0  0  0  0  0
    0.6750   -2.2875    0.0011 H   0  0  0  0  0  0  0  0  0  0  0  0
   -3.4117   -1.0123   -0.0008 H   0  0  0  0  0  0  0  0  0  0  0  0
   -1.7299   -2.8209    0.0008 H   0  0  0  0  0  0  0  0  0  0  0  0
   -2.5997    2.5743   -0.0047 H   0  0  0  0  0  0  0  0  0  0  0  0
   -3.8850    1.3853   -0.0043 H   0  0  0  0  0  0  0  0  0  0  0  0
  1  9  1  0  0  0  0
  2  9  1  0  0  0  0
  3  9  1  0  0  0  0
  4  7  1  0  0  0  0
  4 16  1  0  0  0  0
  4 17  1  0  0  0  0
  5  6  2  0  0  0  0
  5  8  1  0  0  0  0
  5  9  1  0  0  0  0
  6  7  1  0  0  0  0
  6 12  1  0  0  0  0
  7 10  2  0  0  0  0
  8 11  2  0  0  0  0
  8 13  1  0  0  0  0
 10 11  1  0  0  0  0
 10 14  1  0  0  0  0
 11 15  1  0  0  0  0
M  END
> <PUBCHEM_COMPOUND_CID>
7375

> <PUBCHEM_CONFORMER_RMSD>
0.4

> <PUBCHEM_CONFORMER_DIVERSEORDER>
1

> <PUBCHEM_MMFF94_PARTIAL_CHARGES>
17
1 -0.34
10 -0.15
11 -0.15
12 0.15
13 0.15
14 0.15
15 0.15
16 0.4
17 0.4
2 -0.34
3 -0.34
4 -0.9
5 -0.14
6 -0.15
7 0.1
8 -0.15
9 1.16

> <PUBCHEM_EFFECTIVE_ROTOR_COUNT>
1

> <PUBCHEM_PHARMACOPHORE_FEATURES>
3
1 4 cation
1 4 donor
6 5 6 7 8 10 11 rings

> <PUBCHEM_HEAVY_ATOM_COUNT>
11

> <PUBCHEM_ATOM_DEF_STEREO_COUNT>
0

> <PUBCHEM_ATOM_UDEF_STEREO_COUNT>
0

> <PUBCHEM_BOND_DEF_STEREO_COUNT>
0

> <PUBCHEM_BOND_UDEF_STEREO_COUNT>
0

> <PUBCHEM_ISOTOPIC_ATOM_COUNT>
0

> <PUBCHEM_COMPONENT_COUNT>
1

> <PUBCHEM_CACTVS_TAUTO_COUNT>
1

> <PUBCHEM_CONFORMER_ID>
00001CCF00000001

> <PUBCHEM_MMFF94_ENERGY>
29.0752

> <PUBCHEM_FEATURE_SELFOVERLAP>
15.223

> <PUBCHEM_SHAPE_FINGERPRINT>
10857977 72 18196082476739301139
12716758 59 18413387639833935059
12932764 1 17988648548513121742
14325111 11 18410573968093018181
15775835 57 18409172077777258912
16945 1 18266740379648255267
19973954 147 18340205301129930488
20645464 45 17917144004687039202
20653085 51 18262533523458470825
20871998 184 18128261275434194735
21028194 46 18341332202043500537
21040471 1 18410855443090756387
23552423 10 18259985993782766002
23559900 14 18201162053958221590
2748010 2 18410860927964674503
3248919 1 17968371350794488210
369184 2 18059852904427108651
5084963 1 18334858298763951994

> <PUBCHEM_SHAPE_MULTIPOLES>
199.57
3.87
1.67
0.73
0.67
0.28
0
-0.93
0.01
-0.8
0
0.32
-0.12
0

> <PUBCHEM_SHAPE_SELFOVERLAP>
420.295

> <PUBCHEM_SHAPE_VOLUME>
113.3

> <PUBCHEM_COORDINATE_TYPE>
2
5
10

$$$$
