141293
  -OEChem-11012400583D

 32 31  0     0  0  0  0  0  0999 V2000
    2.5374   -1.8720   -0.2746 F   0  0  0  0  0  0  0  0  0  0  0  0
   -2.7645   -0.7381    2.2616 O   0  5  0  0  0  0  0  0  0  0  0  0
   -4.5960   -1.9275   -0.3569 O   0  5  0  0  0  0  0  0  0  0  0  0
   -3.8406    0.8879    1.2523 O   0  0  0  0  0  0  0  0  0  0  0  0
   -4.0974   -0.4991   -1.9468 O   0  0  0  0  0  0  0  0  0  0  0  0
    0.5738    2.8257   -0.3377 O   0  5  0  0  0  0  0  0  0  0  0  0
   -1.4941    2.9875    0.4008 O   0  0  0  0  0  0  0  0  0  0  0  0
    3.8565    1.1761   -1.0948 O   0  5  0  0  0  0  0  0  0  0  0  0
    3.8871    0.2536    1.9552 O   0  5  0  0  0  0  0  0  0  0  0  0
    3.5758   -0.7222   -2.1667 O   0  0  0  0  0  0  0  0  0  0  0  0
    4.6066   -1.6452    1.1150 O   0  0  0  0  0  0  0  0  0  0  0  0
   -0.6723    0.9636   -0.1523 N   0  0  0  0  0  0  0  0  0  0  0  0
   -3.1117   -0.1129    1.2487 N   0  3  0  0  0  0  0  0  0  0  0  0
   -3.8714   -1.0614   -0.8649 N   0  3  0  0  0  0  0  0  0  0  0  0
   -0.5273    2.3506   -0.0344 N   0  3  0  0  0  0  0  0  0  0  0  0
    3.4673    0.0031   -1.1685 N   0  3  0  0  0  0  0  0  0  0  0  0
    3.8477   -0.6670    1.1275 N   0  3  0  0  0  0  0  0  0  0  0  0
   -2.6120   -0.6334   -0.1007 C   0  0  0  0  0  0  0  0  0  0  0  0
   -1.8876    0.5109   -0.8397 C   0  0  0  0  0  0  0  0  0  0  0  0
    0.5001    0.2335   -0.6225 C   0  0  0  0  0  0  0  0  0  0  0  0
    1.5550    0.1529    0.4858 C   0  0  0  0  0  0  0  0  0  0  0  0
    2.8080   -0.5840    0.0448 C   0  0  0  0  0  0  0  0  0  0  0  0
   -1.7403   -1.8824    0.0688 C   0  0  0  0  0  0  0  0  0  0  0  0
   -2.5913    1.3445   -0.9790 H   0  0  0  0  0  0  0  0  0  0  0  0
   -1.6387    0.2079   -1.8678 H   0  0  0  0  0  0  0  0  0  0  0  0
    0.2725   -0.7891   -0.9332 H   0  0  0  0  0  0  0  0  0  0  0  0
    0.9041    0.7037   -1.5291 H   0  0  0  0  0  0  0  0  0  0  0  0
    1.1192   -0.3746    1.3452 H   0  0  0  0  0  0  0  0  0  0  0  0
    1.8230    1.1529    0.8436 H   0  0  0  0  0  0  0  0  0  0  0  0
   -2.2979   -2.7086    0.5290 H   0  0  0  0  0  0  0  0  0  0  0  0
   -0.8774   -1.7125    0.7198 H   0  0  0  0  0  0  0  0  0  0  0  0
   -1.3892   -2.2549   -0.9004 H   0  0  0  0  0  0  0  0  0  0  0  0
  1 22  1  0  0  0  0
  2 13  1  0  0  0  0
  3 14  1  0  0  0  0
  4 13  2  0  0  0  0
  5 14  2  0  0  0  0
  6 15  1  0  0  0  0
  7 15  2  0  0  0  0
  8 16  1  0  0  0  0
  9 17  1  0  0  0  0
 10 16  2  0  0  0  0
 11 17  2  0  0  0  0
 12 15  1  0  0  0  0
 12 19  1  0  0  0  0
 12 20  1  0  0  0  0
 13 18  1  0  0  0  0
 14 18  1  0  0  0  0
 16 22  1  0  0  0  0
 17 22  1  0  0  0  0
 18 19  1  0  0  0  0
 18 23  1  0  0  0  0
 19 24  1  0  0  0  0
 19 25  1  0  0  0  0
 20 21  1  0  0  0  0
 20 26  1  0  0  0  0
 20 27  1  0  0  0  0
 21 22  1  0  0  0  0
 21 28  1  0  0  0  0
 21 29  1  0  0  0  0
 23 30  1  0  0  0  0
 23 31  1  0  0  0  0
 23 32  1  0  0  0  0
M  CHG  8   2  -1   3  -1   6  -1   8  -1   9  -1  13   1  14   1  15   1
M  CHG  2  16   1  17   1
M  END
> <PUBCHEM_COMPOUND_CID>
141293

> <PUBCHEM_CONFORMER_RMSD>
1

> <PUBCHEM_CONFORMER_DIVERSEORDER>
1
58
49
19
24
51
15
44
47
12
34
56
41
46
25
57
59
28
38
53
31
2
60
7
27
33
48
16
37
52
55
13
17
6
45
43
8
50
22
11
54
39
42
30
21
20
35
40
23
14
36
32
4
18
9
10
26
3
5
29

> <PUBCHEM_MMFF94_PARTIAL_CHARGES>
21
1 -0.34
10 -0.52
11 -0.52
12 -0.53
13 0.8
14 0.8
15 1.03
16 0.8
17 0.8
18 0.48
19 0.27
2 -0.52
20 0.27
22 0.82
3 -0.52
4 -0.52
5 -0.52
6 -0.52
7 -0.52
8 -0.52
9 -0.52

> <PUBCHEM_EFFECTIVE_ROTOR_COUNT>
10

> <PUBCHEM_PHARMACOPHORE_FEATURES>
14
1 10 acceptor
1 11 acceptor
1 2 acceptor
1 2 anion
1 3 acceptor
1 3 anion
1 4 acceptor
1 5 acceptor
1 6 acceptor
1 7 acceptor
1 8 acceptor
1 8 anion
1 9 acceptor
1 9 anion

> <PUBCHEM_HEAVY_ATOM_COUNT>
23

> <PUBCHEM_ATOM_DEF_STEREO_COUNT>
0

> <PUBCHEM_ATOM_UDEF_STEREO_COUNT>
0

> <PUBCHEM_BOND_DEF_STEREO_COUNT>
0

> <PUBCHEM_BOND_UDEF_STEREO_COUNT>
0

> <PUBCHEM_ISOTOPIC_ATOM_COUNT>
0

> <PUBCHEM_COMPONENT_COUNT>
1

> <PUBCHEM_CACTVS_TAUTO_COUNT>
1

> <PUBCHEM_CONFORMER_ID>
000227ED00000001

> <PUBCHEM_MMFF94_ENERGY>
64.3912

> <PUBCHEM_FEATURE_SELFOVERLAP>
71.466

> <PUBCHEM_SHAPE_FINGERPRINT>
10366900 7 18272082812517093258
11132069 177 18060422374109080825
12363563 72 18408598171346278781
12507560 40 15626229013140690915
12553582 1 18409740568227786591
12596599 1 17989213663172394763
12892183 10 15985106318459617518
13224815 77 18341894082581713700
13583140 156 14548742763658530759
14178342 30 18121771739000605120
15375462 189 18116166612841502224
16752209 62 18188480281488013575
1813 80 18342462564268759821
18186145 218 15647053742075117426
18222031 100 18202281454645752071
200 152 18114453500816562670
20281475 54 18410013234221454318
20645477 70 17603576435456839530
20671657 53 18335976566893880341
23402539 116 18338223882418739054
23557571 272 18201149967413887184
23558518 356 17973724679642051571
23559900 14 16226041202548998176
23598288 3 18116157675030507053
3004659 81 17749379360959389582
312423 11 17896054165218322092
4921388 177 14273460296981809011
6049 1 17632015230979430956
7615 1 17968382230442670876
81228 2 18264489494451912921

> <PUBCHEM_SHAPE_MULTIPOLES>
377.48
9.17
2.29
1.67
2
1.53
0.15
-4.22
0.12
-0.59
0.08
0.25
-0.3
-0.73

> <PUBCHEM_SHAPE_SELFOVERLAP>
754.797

> <PUBCHEM_SHAPE_VOLUME>
224.5

> <PUBCHEM_COORDINATE_TYPE>
2
5
10

$$$$
