6966
  -OEChem-11012400453D

 18 20  0     0  0  0  0  0  0999 V2000
   -3.2913    0.0000    0.0000 O   0  0  0  0  0  0  0  0  0  0  0  0
    3.2912    0.0000    0.0000 O   0  0  0  0  0  0  0  0  0  0  0  0
   -2.9380   -2.2900    0.0008 O   0  0  0  0  0  0  0  0  0  0  0  0
   -2.9382    2.2899   -0.0009 O   0  0  0  0  0  0  0  0  0  0  0  0
    2.9382   -2.2900   -0.0010 O   0  0  0  0  0  0  0  0  0  0  0  0
    2.9382    2.2900    0.0008 O   0  0  0  0  0  0  0  0  0  0  0  0
   -1.1659   -0.6909    0.0002 C   0  0  0  0  0  0  0  0  0  0  0  0
   -1.1658    0.6910    0.0000 C   0  0  0  0  0  0  0  0  0  0  0  0
    1.1659   -0.6910    0.0001 C   0  0  0  0  0  0  0  0  0  0  0  0
    1.1659    0.6910    0.0001 C   0  0  0  0  0  0  0  0  0  0  0  0
   -0.0001   -1.4368    0.0002 C   0  0  0  0  0  0  0  0  0  0  0  0
    0.0000    1.4369   -0.0001 C   0  0  0  0  0  0  0  0  0  0  0  0
   -2.5395   -1.1434    0.0001 C   0  0  0  0  0  0  0  0  0  0  0  0
   -2.5394    1.1434   -0.0002 C   0  0  0  0  0  0  0  0  0  0  0  0
    2.5394   -1.1434   -0.0003 C   0  0  0  0  0  0  0  0  0  0  0  0
    2.5394    1.1434    0.0002 C   0  0  0  0  0  0  0  0  0  0  0  0
   -0.0001   -2.5187    0.0001 H   0  0  0  0  0  0  0  0  0  0  0  0
    0.0000    2.5187   -0.0002 H   0  0  0  0  0  0  0  0  0  0  0  0
  1 13  1  0  0  0  0
  1 14  1  0  0  0  0
  2 15  1  0  0  0  0
  2 16  1  0  0  0  0
  3 13  2  0  0  0  0
  4 14  2  0  0  0  0
  5 15  2  0  0  0  0
  6 16  2  0  0  0  0
  7  8  2  0  0  0  0
  7 11  1  0  0  0  0
  7 13  1  0  0  0  0
  8 12  1  0  0  0  0
  8 14  1  0  0  0  0
  9 10  1  0  0  0  0
  9 11  2  0  0  0  0
  9 15  1  0  0  0  0
 10 12  2  0  0  0  0
 10 16  1  0  0  0  0
 11 17  1  0  0  0  0
 12 18  1  0  0  0  0
M  END
> <PUBCHEM_COMPOUND_CID>
6966

> <PUBCHEM_CONFORMER_RMSD>
0.4

> <PUBCHEM_CONFORMER_DIVERSEORDER>
1

> <PUBCHEM_MMFF94_PARTIAL_CHARGES>
18
1 -0.3
10 0.09
11 -0.15
12 -0.15
13 0.63
14 0.63
15 0.63
16 0.63
17 0.15
18 0.15
2 -0.3
3 -0.57
4 -0.57
5 -0.57
6 -0.57
7 0.09
8 0.09
9 0.09

> <PUBCHEM_EFFECTIVE_ROTOR_COUNT>
0

> <PUBCHEM_PHARMACOPHORE_FEATURES>
7
1 3 acceptor
1 4 acceptor
1 5 acceptor
1 6 acceptor
5 1 7 8 13 14 rings
5 2 9 10 15 16 rings
6 7 8 9 10 11 12 rings

> <PUBCHEM_HEAVY_ATOM_COUNT>
16

> <PUBCHEM_ATOM_DEF_STEREO_COUNT>
0

> <PUBCHEM_ATOM_UDEF_STEREO_COUNT>
0

> <PUBCHEM_BOND_DEF_STEREO_COUNT>
0

> <PUBCHEM_BOND_UDEF_STEREO_COUNT>
0

> <PUBCHEM_ISOTOPIC_ATOM_COUNT>
0

> <PUBCHEM_COMPONENT_COUNT>
1

> <PUBCHEM_CACTVS_TAUTO_COUNT>
1

> <PUBCHEM_CONFORMER_ID>
00001B3600000001

> <PUBCHEM_MMFF94_ENERGY>
38.8201

> <PUBCHEM_FEATURE_SELFOVERLAP>
35.731

> <PUBCHEM_SHAPE_FINGERPRINT>
10608611 8 18410571786128565856
10967382 1 18410575058919681381
12251169 10 18410573937906811018
13140716 1 18410856516690117049
13380535 21 18410865355733045636
13897977 150 18410571773259377909
14144814 61 18410856559639789706
14325111 11 18410856568245788768
14576447 43 17697302272932131823
14648413 74 18410576150073515778
15375462 6 18339079418408069479
15442244 35 18338797784702191626
15536298 74 18342738516307482496
16945 1 18410575084663078918
17804303 29 18266465299883110302
17990270 104 18410573968372690530
18186145 218 18272660008433903968
193761 8 15744444496112331742
19973954 147 18410575084663111392
20510252 161 18270403922322004993
20645477 70 18411412930057313327
21267235 1 18410865355733272995
21501502 16 18410575088958046212
221490 88 18409458007078446506
2334 1 18410855490192932870
23366157 5 18113337514342832270
23463225 33 18410293579769368238
23552423 10 18334295374664827906
23559900 14 18198339555891108950
2748010 2 18410856559639789735
335352 9 18122624946537497013
5104073 3 18410856551049855984
57096353 35 18266460003961406071
69090 78 18340201895864235069
7364860 26 18342176665971184002
74978 22 18338517430495608842
7832392 63 18339078172978375280
8809292 202 18335145236939440099
93112 12 18410575050303340695
9709674 26 18411703187936188959

> <PUBCHEM_SHAPE_MULTIPOLES>
294.06
5.58
2.42
0.58
0
0
0
0
0
0
0
0
0
0

> <PUBCHEM_SHAPE_SELFOVERLAP>
684.936

> <PUBCHEM_SHAPE_VOLUME>
153.1

> <PUBCHEM_COORDINATE_TYPE>
2
5
10

$$$$
