136921
  -OEChem-11012400593D

 25 24  0     1  0  0  0  0  0999 V2000
    0.0053    1.1922   -1.3464 O   0  0  0  0  0  0  0  0  0  0  0  0
    0.0846    0.8176    0.0328 C   0  0  1  0  0  0  0  0  0  0  0  0
   -0.7855   -0.4428    0.2449 C   0  0  0  0  0  0  0  0  0  0  0  0
    1.5688    0.5557    0.3934 C   0  0  0  0  0  0  0  0  0  0  0  0
   -2.2609   -0.2723   -0.1403 C   0  0  0  0  0  0  0  0  0  0  0  0
   -0.4236    2.0045    0.8635 C   0  0  0  0  0  0  0  0  0  0  0  0
   -3.0397   -1.5628    0.0711 C   0  0  0  0  0  0  0  0  0  0  0  0
    2.1990   -0.5888   -0.3521 C   0  0  0  0  0  0  0  0  0  0  0  0
    2.6520   -1.7033    0.2332 C   0  0  0  0  0  0  0  0  0  0  0  0
   -0.7188   -0.7591    1.2937 H   0  0  0  0  0  0  0  0  0  0  0  0
   -0.3933   -1.2675   -0.3632 H   0  0  0  0  0  0  0  0  0  0  0  0
    2.1611    1.4499    0.1586 H   0  0  0  0  0  0  0  0  0  0  0  0
    1.6568    0.3928    1.4755 H   0  0  0  0  0  0  0  0  0  0  0  0
   -2.7262    0.5116    0.4659 H   0  0  0  0  0  0  0  0  0  0  0  0
   -2.3474    0.0288   -1.1902 H   0  0  0  0  0  0  0  0  0  0  0  0
   -1.4100    2.3393    0.5263 H   0  0  0  0  0  0  0  0  0  0  0  0
   -0.4775    1.7571    1.9285 H   0  0  0  0  0  0  0  0  0  0  0  0
    0.2386    2.8702    0.7442 H   0  0  0  0  0  0  0  0  0  0  0  0
   -4.0896   -1.4208   -0.2039 H   0  0  0  0  0  0  0  0  0  0  0  0
   -3.0023   -1.8764    1.1192 H   0  0  0  0  0  0  0  0  0  0  0  0
   -2.6339   -2.3715   -0.5451 H   0  0  0  0  0  0  0  0  0  0  0  0
    0.2101    0.4121   -1.8886 H   0  0  0  0  0  0  0  0  0  0  0  0
    2.3043   -0.4899   -1.4292 H   0  0  0  0  0  0  0  0  0  0  0  0
    3.1045   -2.4902   -0.3602 H   0  0  0  0  0  0  0  0  0  0  0  0
    2.5787   -1.8513    1.3048 H   0  0  0  0  0  0  0  0  0  0  0  0
  1  2  1  0  0  0  0
  1 22  1  0  0  0  0
  2  3  1  0  0  0  0
  2  4  1  0  0  0  0
  2  6  1  0  0  0  0
  3  5  1  0  0  0  0
  3 10  1  0  0  0  0
  3 11  1  0  0  0  0
  4  8  1  0  0  0  0
  4 12  1  0  0  0  0
  4 13  1  0  0  0  0
  5  7  1  0  0  0  0
  5 14  1  0  0  0  0
  5 15  1  0  0  0  0
  6 16  1  0  0  0  0
  6 17  1  0  0  0  0
  6 18  1  0  0  0  0
  7 19  1  0  0  0  0
  7 20  1  0  0  0  0
  7 21  1  0  0  0  0
  8  9  2  0  0  0  0
  8 23  1  0  0  0  0
  9 24  1  0  0  0  0
  9 25  1  0  0  0  0
M  END
> <PUBCHEM_COMPOUND_CID>
136921

> <PUBCHEM_CONFORMER_RMSD>
0.6

> <PUBCHEM_CONFORMER_DIVERSEORDER>
4
23
11
17
8
10
15
18
13
14
9
6
20
19
16
22
12
5
2
3
7
21
1

> <PUBCHEM_MMFF94_PARTIAL_CHARGES>
9
1 -0.68
2 0.28
22 0.4
23 0.15
24 0.15
25 0.15
4 0.14
8 -0.29
9 -0.3

> <PUBCHEM_EFFECTIVE_ROTOR_COUNT>
4

> <PUBCHEM_PHARMACOPHORE_FEATURES>
4
1 1 acceptor
1 1 donor
1 7 hydrophobe
1 9 hydrophobe

> <PUBCHEM_HEAVY_ATOM_COUNT>
9

> <PUBCHEM_ATOM_DEF_STEREO_COUNT>
0

> <PUBCHEM_ATOM_UDEF_STEREO_COUNT>
1

> <PUBCHEM_BOND_DEF_STEREO_COUNT>
0

> <PUBCHEM_BOND_UDEF_STEREO_COUNT>
0

> <PUBCHEM_ISOTOPIC_ATOM_COUNT>
0

> <PUBCHEM_COMPONENT_COUNT>
1

> <PUBCHEM_CACTVS_TAUTO_COUNT>
1

> <PUBCHEM_CONFORMER_ID>
000216D900000004

> <PUBCHEM_MMFF94_ENERGY>
11.9445

> <PUBCHEM_FEATURE_SELFOVERLAP>
20.297

> <PUBCHEM_SHAPE_FINGERPRINT>
14128692 85 18261681449196885551
20653085 51 8574424365835743330
20653091 64 17914909865831707217
20711985 344 17823686473945718817
21028194 46 9295287265648919886
23500284 5 18337957774893373995
23552423 10 18333456430149726522
23552449 11 17987800850997056899
29004967 10 18270394009331620848

> <PUBCHEM_SHAPE_MULTIPOLES>
179.35
3.99
1.98
0.88
0.81
0.27
0.16
-3.23
-0.16
0.06
-0.32
-0.04
0.29
-0.07

> <PUBCHEM_SHAPE_SELFOVERLAP>
324.972

> <PUBCHEM_SHAPE_VOLUME>
116.1

> <PUBCHEM_COORDINATE_TYPE>
2
5
10

$$$$
