68119
  -OEChem-11012401163D

 20 21  0     0  0  0  0  0  0999 V2000
    2.8607    0.1505    0.7958 O   0  0  0  0  0  0  0  0  0  0  0  0
   -2.8670    0.1652   -0.7737 O   0  0  0  0  0  0  0  0  0  0  0  0
    0.6505    1.7606    1.3463 O   0  0  0  0  0  0  0  0  0  0  0  0
   -0.7153    1.7542   -1.3318 O   0  0  0  0  0  0  0  0  0  0  0  0
    1.7365    0.0985    0.0344 C   0  0  0  0  0  0  0  0  0  0  0  0
   -1.7676    0.0651   -0.0265 C   0  0  0  0  0  0  0  0  0  0  0  0
    0.6517    0.9478    0.3906 C   0  0  0  0  0  0  0  0  0  0  0  0
   -0.6568    0.9720   -0.3941 C   0  0  0  0  0  0  0  0  0  0  0  0
    1.8841   -0.8154   -0.9831 C   0  0  0  0  0  0  0  0  0  0  0  0
   -1.8392   -0.8476    0.9497 C   0  0  0  0  0  0  0  0  0  0  0  0
    3.1823   -1.3597   -0.8374 C   0  0  0  0  0  0  0  0  0  0  0  0
   -3.1352   -1.4005    0.8164 C   0  0  0  0  0  0  0  0  0  0  0  0
    3.7357   -0.7398    0.2588 C   0  0  0  0  0  0  0  0  0  0  0  0
   -3.7203   -0.7511   -0.2456 C   0  0  0  0  0  0  0  0  0  0  0  0
    1.1528   -1.0640   -1.7392 H   0  0  0  0  0  0  0  0  0  0  0  0
   -1.0874   -1.1118    1.6792 H   0  0  0  0  0  0  0  0  0  0  0  0
    3.6555   -2.1099   -1.4540 H   0  0  0  0  0  0  0  0  0  0  0  0
   -3.5866   -2.1753    1.4191 H   0  0  0  0  0  0  0  0  0  0  0  0
    4.6902   -0.8165    0.7586 H   0  0  0  0  0  0  0  0  0  0  0  0
   -4.6858   -0.8216   -0.7252 H   0  0  0  0  0  0  0  0  0  0  0  0
  1  5  1  0  0  0  0
  1 13  1  0  0  0  0
  2  6  1  0  0  0  0
  2 14  1  0  0  0  0
  3  7  2  0  0  0  0
  4  8  2  0  0  0  0
  5  7  1  0  0  0  0
  5  9  2  0  0  0  0
  6  8  1  0  0  0  0
  6 10  2  0  0  0  0
  7  8  1  0  0  0  0
  9 11  1  0  0  0  0
  9 15  1  0  0  0  0
 10 12  1  0  0  0  0
 10 16  1  0  0  0  0
 11 13  2  0  0  0  0
 11 17  1  0  0  0  0
 12 14  2  0  0  0  0
 12 18  1  0  0  0  0
 13 19  1  0  0  0  0
 14 20  1  0  0  0  0
M  END
> <PUBCHEM_COMPOUND_CID>
68119

> <PUBCHEM_CONFORMER_RMSD>
0.6

> <PUBCHEM_CONFORMER_DIVERSEORDER>
1
30
44
33
13
32
38
31
2
11
27
43
46
36
37
26
42
12
9
28
22
45
23
7
29
39
34
35
25
6
5
40
10
47
48
24
8
41
16
15
4
3
20
17
19
14
18
21

> <PUBCHEM_MMFF94_PARTIAL_CHARGES>
20
1 -0.28
10 -0.15
11 -0.15
12 -0.15
13 -0.01
14 -0.01
15 0.15
16 0.15
17 0.15
18 0.15
19 0.15
2 -0.28
20 0.15
3 -0.57
4 -0.57
5 0.05
6 0.05
7 0.65
8 0.65
9 -0.15

> <PUBCHEM_EFFECTIVE_ROTOR_COUNT>
3

> <PUBCHEM_PHARMACOPHORE_FEATURES>
6
1 1 acceptor
1 2 acceptor
1 3 acceptor
1 4 acceptor
5 1 5 9 11 13 rings
5 2 6 10 12 14 rings

> <PUBCHEM_HEAVY_ATOM_COUNT>
14

> <PUBCHEM_ATOM_DEF_STEREO_COUNT>
0

> <PUBCHEM_ATOM_UDEF_STEREO_COUNT>
0

> <PUBCHEM_BOND_DEF_STEREO_COUNT>
0

> <PUBCHEM_BOND_UDEF_STEREO_COUNT>
0

> <PUBCHEM_ISOTOPIC_ATOM_COUNT>
0

> <PUBCHEM_COMPONENT_COUNT>
1

> <PUBCHEM_CACTVS_TAUTO_COUNT>
1

> <PUBCHEM_CONFORMER_ID>
00010A1700000001

> <PUBCHEM_MMFF94_ENERGY>
13.9656

> <PUBCHEM_FEATURE_SELFOVERLAP>
30.459

> <PUBCHEM_SHAPE_FINGERPRINT>
10465860 71 17458069282744675511
10618630 7 18411142419883825430
11127187 94 17821729442459981711
11471102 22 17775283859278235658
12251169 10 15626224623699880099
13296908 3 18410575088963476874
15375462 478 16343707625212040891
15501101 241 18271243927556689672
16945 1 18041282062712928225
17844478 74 18271806791921839164
18186145 218 12757152376685053726
20201158 50 18411419492508677034
20279233 1 18411134736092465230
20281407 28 18409171004082888106
20281475 54 18410583885051282799
20361792 2 18114467841844064063
20645476 183 15430028881674099235
20645477 70 18341604979906895191
20653085 51 11819288762191252104
20671657 53 17967538960663257476
20711985 344 18042115475653271181
20871998 22 17703240515957600798
20871999 31 17603304856216193303
21028194 46 9223230753974191170
21061003 4 17989486303580511288
21119208 17 15719389525213298039
22721475 48 18410864260516333198
23382010 3 14274311374346887577
23402539 116 17385999560003966150
23557571 272 18187638077504919060
23559900 14 18115015326168859178
276578 36 12463579469265294348
305870 269 12175356759524918709
7364860 26 17973170818092870133
77492 1 15697991972374627364
81228 2 18264213504227696953

> <PUBCHEM_SHAPE_MULTIPOLES>
264.64
6.35
1.56
1.14
0.13
0.34
0
-3.45
-0.03
-0.04
0.01
0.03
0.18
0.83

> <PUBCHEM_SHAPE_SELFOVERLAP>
579.459

> <PUBCHEM_SHAPE_VOLUME>
144.6

> <PUBCHEM_COORDINATE_TYPE>
2
5
10

$$$$
