7057902
  -OEChem-11012400363D

 29 30  0     1  0  0  0  0  0999 V2000
    3.4923   -0.7601    0.1678 O   0  0  0  0  0  0  0  0  0  0  0  0
   -0.2500   -0.6364   -0.2959 C   0  0  1  0  0  0  0  0  0  0  0  0
   -0.4480    0.7877    0.2620 C   0  0  1  0  0  0  0  0  0  0  0  0
    1.1182   -1.1931    0.1134 C   0  0  0  0  0  0  0  0  0  0  0  0
    0.6861    1.7145   -0.1957 C   0  0  0  0  0  0  0  0  0  0  0  0
   -1.3838   -1.5619    0.1638 C   0  0  0  0  0  0  0  0  0  0  0  0
   -1.8171    1.3456   -0.1477 C   0  0  0  0  0  0  0  0  0  0  0  0
    2.2521   -0.2667   -0.3270 C   0  0  1  0  0  0  0  0  0  0  0  0
    2.0512    1.1544    0.1938 C   0  0  0  0  0  0  0  0  0  0  0  0
   -2.7511   -1.0031   -0.2248 C   0  0  0  0  0  0  0  0  0  0  0  0
   -2.9498    0.4193    0.2903 C   0  0  0  0  0  0  0  0  0  0  0  0
   -0.2791   -0.5884   -1.3941 H   0  0  0  0  0  0  0  0  0  0  0  0
   -0.4195    0.7389    1.3604 H   0  0  0  0  0  0  0  0  0  0  0  0
    1.1601   -1.3394    1.2011 H   0  0  0  0  0  0  0  0  0  0  0  0
    1.2729   -2.1878   -0.3234 H   0  0  0  0  0  0  0  0  0  0  0  0
    0.5616    2.7079    0.2512 H   0  0  0  0  0  0  0  0  0  0  0  0
    0.6456    1.8474   -1.2843 H   0  0  0  0  0  0  0  0  0  0  0  0
   -1.3423   -1.6935    1.2525 H   0  0  0  0  0  0  0  0  0  0  0  0
   -1.2599   -2.5561   -0.2818 H   0  0  0  0  0  0  0  0  0  0  0  0
   -1.8573    1.4776   -1.2364 H   0  0  0  0  0  0  0  0  0  0  0  0
   -1.9670    2.3357    0.2987 H   0  0  0  0  0  0  0  0  0  0  0  0
    2.3153   -0.2542   -1.4210 H   0  0  0  0  0  0  0  0  0  0  0  0
    2.8468    1.8045   -0.1898 H   0  0  0  0  0  0  0  0  0  0  0  0
    2.1585    1.1701    1.2864 H   0  0  0  0  0  0  0  0  0  0  0  0
   -3.5402   -1.6520    0.1715 H   0  0  0  0  0  0  0  0  0  0  0  0
   -2.8502   -1.0114   -1.3173 H   0  0  0  0  0  0  0  0  0  0  0  0
   -3.9069    0.8118   -0.0714 H   0  0  0  0  0  0  0  0  0  0  0  0
   -3.0046    0.4049    1.3859 H   0  0  0  0  0  0  0  0  0  0  0  0
    3.4401   -0.7874    1.1384 H   0  0  0  0  0  0  0  0  0  0  0  0
  1  8  1  0  0  0  0
  1 29  1  0  0  0  0
  2  3  1  0  0  0  0
  2  4  1  0  0  0  0
  2  6  1  0  0  0  0
  2 12  1  0  0  0  0
  3  5  1  0  0  0  0
  3  7  1  0  0  0  0
  3 13  1  0  0  0  0
  4  8  1  0  0  0  0
  4 14  1  0  0  0  0
  4 15  1  0  0  0  0
  5  9  1  0  0  0  0
  5 16  1  0  0  0  0
  5 17  1  0  0  0  0
  6 10  1  0  0  0  0
  6 18  1  0  0  0  0
  6 19  1  0  0  0  0
  7 11  1  0  0  0  0
  7 20  1  0  0  0  0
  7 21  1  0  0  0  0
  8  9  1  0  0  0  0
  8 22  1  0  0  0  0
  9 23  1  0  0  0  0
  9 24  1  0  0  0  0
 10 11  1  0  0  0  0
 10 25  1  0  0  0  0
 10 26  1  0  0  0  0
 11 27  1  0  0  0  0
 11 28  1  0  0  0  0
M  END
> <PUBCHEM_COMPOUND_CID>
7057902

> <PUBCHEM_CONFORMER_RMSD>
0.4

> <PUBCHEM_CONFORMER_DIVERSEORDER>
1
2

> <PUBCHEM_MMFF94_PARTIAL_CHARGES>
3
1 -0.68
29 0.4
8 0.28

> <PUBCHEM_EFFECTIVE_ROTOR_COUNT>
1.6

> <PUBCHEM_PHARMACOPHORE_FEATURES>
4
1 1 acceptor
1 1 donor
6 2 3 4 5 8 9 rings
6 2 3 6 7 10 11 rings

> <PUBCHEM_HEAVY_ATOM_COUNT>
11

> <PUBCHEM_ATOM_DEF_STEREO_COUNT>
3

> <PUBCHEM_ATOM_UDEF_STEREO_COUNT>
0

> <PUBCHEM_BOND_DEF_STEREO_COUNT>
0

> <PUBCHEM_BOND_UDEF_STEREO_COUNT>
0

> <PUBCHEM_ISOTOPIC_ATOM_COUNT>
0

> <PUBCHEM_COMPONENT_COUNT>
1

> <PUBCHEM_CACTVS_TAUTO_COUNT>
1

> <PUBCHEM_CONFORMER_ID>
006BB1EE00000001

> <PUBCHEM_MMFF94_ENERGY>
12.0853

> <PUBCHEM_FEATURE_SELFOVERLAP>
20.314

> <PUBCHEM_SHAPE_FINGERPRINT>
10857977 72 18412535518222032568
11206711 2 18408322172663919565
12032990 46 18411427193374424294
12897270 3 18410011061141945999
12932764 1 17385996273910827345
14128692 85 18413110588583803477
14325111 11 18411419535431904753
15775835 57 18335428941051318693
16945 1 18411139112769375085
17844478 74 18041009457387080865
193761 8 17834396000741834686
19973954 147 18337956817141624557
20201158 50 18413388713517821223
21040471 1 18410294679165068389
21501502 16 18339928224289336733
23380061 330 18341606010361240974
23402655 69 18196074566227616045
23463225 33 18408322159921448470
23552423 10 18189618413430092757
23559900 14 18341896230851579246
241688 4 18408321090168903232
2748010 2 18338799047211560621
369184 2 18413388756620215033
5084963 1 18343302586804360545
528886 8 18411413973549158555
53812653 166 18341328886038740801
63268167 104 18411422851135984569
7364860 26 18198625630218630928
8809292 202 18260835929071594995

> <PUBCHEM_SHAPE_MULTIPOLES>
220.51
4.47
1.79
0.66
0.65
0.19
-0.01
-0.66
0.14
-0.11
-0.01
-0.03
0.01
-0.05

> <PUBCHEM_SHAPE_SELFOVERLAP>
444.213

> <PUBCHEM_SHAPE_VOLUME>
127.4

> <PUBCHEM_COORDINATE_TYPE>
2
5
10

$$$$
