137056
  -OEChem-11012401033D

 34 35  0     0  0  0  0  0  0999 V2000
    0.0515    1.0819   -0.7694 C   0  0  0  0  0  0  0  0  0  0  0  0
   -1.3384    0.9540   -1.4388 C   0  0  0  0  0  0  0  0  0  0  0  0
    0.6510   -0.2773   -0.3347 C   0  0  0  0  0  0  0  0  0  0  0  0
   -0.0803    1.9799    0.4696 C   0  0  0  0  0  0  0  0  0  0  0  0
   -2.4007    0.2732   -0.6101 C   0  0  0  0  0  0  0  0  0  0  0  0
    2.1346   -0.2756   -0.0563 C   0  0  0  0  0  0  0  0  0  0  0  0
   -2.5565   -1.1010   -0.7012 C   0  0  0  0  0  0  0  0  0  0  0  0
    3.0197   -0.5484   -1.0875 C   0  0  0  0  0  0  0  0  0  0  0  0
   -3.2009    1.0345    0.2273 C   0  0  0  0  0  0  0  0  0  0  0  0
    2.5852   -0.0010    1.2253 C   0  0  0  0  0  0  0  0  0  0  0  0
   -3.5380   -1.7302    0.0646 C   0  0  0  0  0  0  0  0  0  0  0  0
    4.3907   -0.5467   -0.8304 C   0  0  0  0  0  0  0  0  0  0  0  0
   -4.1823    0.4051    0.9932 C   0  0  0  0  0  0  0  0  0  0  0  0
    3.9563    0.0008    1.4822 C   0  0  0  0  0  0  0  0  0  0  0  0
   -4.3507   -0.9772    0.9118 C   0  0  0  0  0  0  0  0  0  0  0  0
    4.8589   -0.2720    0.4543 C   0  0  0  0  0  0  0  0  0  0  0  0
    0.7227    1.5705   -1.4872 H   0  0  0  0  0  0  0  0  0  0  0  0
   -1.6954    1.9497   -1.7355 H   0  0  0  0  0  0  0  0  0  0  0  0
   -1.2231    0.4057   -2.3839 H   0  0  0  0  0  0  0  0  0  0  0  0
    0.4690   -1.0131   -1.1302 H   0  0  0  0  0  0  0  0  0  0  0  0
    0.1255   -0.6739    0.5443 H   0  0  0  0  0  0  0  0  0  0  0  0
   -0.5909    1.4819    1.3000 H   0  0  0  0  0  0  0  0  0  0  0  0
   -0.6227    2.9014    0.2311 H   0  0  0  0  0  0  0  0  0  0  0  0
    0.9071    2.2874    0.8290 H   0  0  0  0  0  0  0  0  0  0  0  0
   -1.9335   -1.6978   -1.3609 H   0  0  0  0  0  0  0  0  0  0  0  0
    2.6653   -0.7607   -2.0921 H   0  0  0  0  0  0  0  0  0  0  0  0
   -3.0847    2.1121    0.2947 H   0  0  0  0  0  0  0  0  0  0  0  0
    1.8916    0.2076    2.0347 H   0  0  0  0  0  0  0  0  0  0  0  0
   -3.6701   -2.8063    0.0003 H   0  0  0  0  0  0  0  0  0  0  0  0
    5.0936   -0.7584   -1.6308 H   0  0  0  0  0  0  0  0  0  0  0  0
   -4.8163    0.9914    1.6518 H   0  0  0  0  0  0  0  0  0  0  0  0
    4.3210    0.2135    2.4829 H   0  0  0  0  0  0  0  0  0  0  0  0
   -5.1153   -1.4671    1.5076 H   0  0  0  0  0  0  0  0  0  0  0  0
    5.9264   -0.2707    0.6545 H   0  0  0  0  0  0  0  0  0  0  0  0
  1  2  1  0  0  0  0
  1  3  1  0  0  0  0
  1  4  1  0  0  0  0
  1 17  1  0  0  0  0
  2  5  1  0  0  0  0
  2 18  1  0  0  0  0
  2 19  1  0  0  0  0
  3  6  1  0  0  0  0
  3 20  1  0  0  0  0
  3 21  1  0  0  0  0
  4 22  1  0  0  0  0
  4 23  1  0  0  0  0
  4 24  1  0  0  0  0
  5  7  2  0  0  0  0
  5  9  1  0  0  0  0
  6  8  2  0  0  0  0
  6 10  1  0  0  0  0
  7 11  1  0  0  0  0
  7 25  1  0  0  0  0
  8 12  1  0  0  0  0
  8 26  1  0  0  0  0
  9 13  2  0  0  0  0
  9 27  1  0  0  0  0
 10 14  2  0  0  0  0
 10 28  1  0  0  0  0
 11 15  2  0  0  0  0
 11 29  1  0  0  0  0
 12 16  2  0  0  0  0
 12 30  1  0  0  0  0
 13 15  1  0  0  0  0
 13 31  1  0  0  0  0
 14 16  1  0  0  0  0
 14 32  1  0  0  0  0
 15 33  1  0  0  0  0
 16 34  1  0  0  0  0
M  END
> <PUBCHEM_COMPOUND_CID>
137056

> <PUBCHEM_CONFORMER_RMSD>
0.6

> <PUBCHEM_CONFORMER_DIVERSEORDER>
3
11
18
9
10
7
15
20
8
5
17
14
12
4
16
6
13
19
1
2

> <PUBCHEM_MMFF94_PARTIAL_CHARGES>
24
10 -0.15
11 -0.15
12 -0.15
13 -0.15
14 -0.15
15 -0.15
16 -0.15
2 0.14
25 0.15
26 0.15
27 0.15
28 0.15
29 0.15
3 0.14
30 0.15
31 0.15
32 0.15
33 0.15
34 0.15
5 -0.14
6 -0.14
7 -0.15
8 -0.15
9 -0.15

> <PUBCHEM_EFFECTIVE_ROTOR_COUNT>
4

> <PUBCHEM_PHARMACOPHORE_FEATURES>
3
1 4 hydrophobe
6 5 7 9 11 13 15 rings
6 6 8 10 12 14 16 rings

> <PUBCHEM_HEAVY_ATOM_COUNT>
16

> <PUBCHEM_ATOM_DEF_STEREO_COUNT>
0

> <PUBCHEM_ATOM_UDEF_STEREO_COUNT>
0

> <PUBCHEM_BOND_DEF_STEREO_COUNT>
0

> <PUBCHEM_BOND_UDEF_STEREO_COUNT>
0

> <PUBCHEM_ISOTOPIC_ATOM_COUNT>
0

> <PUBCHEM_COMPONENT_COUNT>
1

> <PUBCHEM_CACTVS_TAUTO_COUNT>
1

> <PUBCHEM_CONFORMER_ID>
0002176000000003

> <PUBCHEM_MMFF94_ENERGY>
42.4592

> <PUBCHEM_FEATURE_SELFOVERLAP>
15.223

> <PUBCHEM_SHAPE_FINGERPRINT>
11045515 52 14996283626043141527
11046707 91 18113616802801459151
11132069 177 18413386531679514839
11370993 144 17202775803799892115
11543360 7 14923943465937828342
11552529 35 16773222028434315391
121448 382 10881690130396123977
12236239 1 17385444302474082990
12251169 10 18202284727695602845
12507557 5 13758065312172784707
12507560 40 17275388702923514753
12553582 1 18040433308709099487
12633257 1 18200045044179949131
12670546 177 13623537882496678115
12670546 56 13901901185793259074
12714826 92 18114175311695685549
128620 24 16081089281460237350
12892183 10 17275112729895076595
12916748 109 9511456732137375271
13103583 49 17679052416041546785
13167823 11 16805601434944176450
13675066 3 17704073988357260788
13705890 14 14706927345694653300
14004511 7 13973962108203897172
14123260 362 12031791378992254263
14251752 14 16443332171130439503
14252887 29 18131074822662861550
14341114 176 17561372785224959754
14445660 50 15984813865868245412
14576447 43 16515685550590927834
15209289 33 18260552246766394515
15239154 128 15554439726047179080
15239191 94 17894910745617698099
15375462 189 18040714766278944897
17349148 13 15357694163587925056
17804303 29 18409172138534386077
17834072 8 11527958871926092784
1813 80 18113626685115168853
18785283 64 18125994112818261392
18915474 69 17022905674462755274
19784866 170 17775007864532179708
200 152 16008747996258363268
20281475 54 18113896048326230730
20300324 65 8430313528846705331
20871999 31 16153416256269002975
21033648 29 16988553559909463793
21065199 12 17489590073431387603
21069387 34 14996562833498398826
21524375 3 11887676156583228941
22393880 68 11747203658824782752
22646028 1 16805319985668697634
22646028 28 17095238111900059370
231179 274 13973971999397639240
23402539 116 15502372296926407916
23402655 69 13551465947700241654
235170 7 13262390064123421283
23559900 14 18268997484068337518
23622692 88 18411426098975408889
2838139 119 15266224618974035089
3268164 11 8862940550807830779
351380 3 17675929806596263243
4028521 119 8286204937629671555
4325135 7 18187086204409024892
474 4 13110974110528402501
53428517 58 14707212127785625846
5902787 121 18334291006693669948
5924683 9 17203037599753866023
602551 16 18410292549246755866
633830 44 13398640458505499540
8272917 22 14548470084901638228
83771 10 17603307068098028781
90127 26 16988566788250479248

> <PUBCHEM_SHAPE_MULTIPOLES>
329.27
10.15
1.45
1.34
3.16
0.2
0.07
-3.11
2.68
-1.3
-0.02
0.46
0.07
0.33

> <PUBCHEM_SHAPE_SELFOVERLAP>
692.032

> <PUBCHEM_SHAPE_VOLUME>
177.6

> <PUBCHEM_COORDINATE_TYPE>
2
5
10

$$$$
