123423
  -OEChem-11012401003D

 23 22  0     0  0  0  0  0  0999 V2000
   -4.9050   -0.9891    0.0410 Cl  0  0  0  0  0  0  0  0  0  0  0  0
    0.1281   -0.2936   -0.0495 O   0  0  0  0  0  0  0  0  0  0  0  0
   -1.1181    1.6467    0.0102 O   0  0  0  0  0  0  0  0  0  0  0  0
    2.5147   -0.4860   -0.0314 C   0  0  0  0  0  0  0  0  0  0  0  0
    3.8416    0.2655    0.0270 C   0  0  0  0  0  0  0  0  0  0  0  0
    1.3278    0.4666   -0.0082 C   0  0  0  0  0  0  0  0  0  0  0  0
    5.0232   -0.6910    0.0472 C   0  0  0  0  0  0  0  0  0  0  0  0
   -2.2144   -0.5251   -0.0546 C   0  0  0  0  0  0  0  0  0  0  0  0
   -1.0379    0.4268   -0.0349 C   0  0  0  0  0  0  0  0  0  0  0  0
   -3.5600    0.1793    0.0531 C   0  0  0  0  0  0  0  0  0  0  0  0
    2.4678   -1.1054   -0.9359 H   0  0  0  0  0  0  0  0  0  0  0  0
    2.4356   -1.1826    0.8128 H   0  0  0  0  0  0  0  0  0  0  0  0
    3.8750    0.8941    0.9245 H   0  0  0  0  0  0  0  0  0  0  0  0
    3.9308    0.9314   -0.8391 H   0  0  0  0  0  0  0  0  0  0  0  0
    1.3467    1.0674    0.9087 H   0  0  0  0  0  0  0  0  0  0  0  0
    1.3669    1.1353   -0.8761 H   0  0  0  0  0  0  0  0  0  0  0  0
    4.9812   -1.3482    0.9217 H   0  0  0  0  0  0  0  0  0  0  0  0
    5.0376   -1.3154   -0.8518 H   0  0  0  0  0  0  0  0  0  0  0  0
    5.9631   -0.1317    0.0876 H   0  0  0  0  0  0  0  0  0  0  0  0
   -2.1676   -1.0943   -0.9902 H   0  0  0  0  0  0  0  0  0  0  0  0
   -2.0972   -1.2191    0.7862 H   0  0  0  0  0  0  0  0  0  0  0  0
   -3.7101    0.8686   -0.7838 H   0  0  0  0  0  0  0  0  0  0  0  0
   -3.6280    0.7556    0.9812 H   0  0  0  0  0  0  0  0  0  0  0  0
  1 10  1  0  0  0  0
  2  6  1  0  0  0  0
  2  9  1  0  0  0  0
  3  9  2  0  0  0  0
  4  5  1  0  0  0  0
  4  6  1  0  0  0  0
  4 11  1  0  0  0  0
  4 12  1  0  0  0  0
  5  7  1  0  0  0  0
  5 13  1  0  0  0  0
  5 14  1  0  0  0  0
  6 15  1  0  0  0  0
  6 16  1  0  0  0  0
  7 17  1  0  0  0  0
  7 18  1  0  0  0  0
  7 19  1  0  0  0  0
  8  9  1  0  0  0  0
  8 10  1  0  0  0  0
  8 20  1  0  0  0  0
  8 21  1  0  0  0  0
 10 22  1  0  0  0  0
 10 23  1  0  0  0  0
M  END
> <PUBCHEM_COMPOUND_CID>
123423

> <PUBCHEM_CONFORMER_RMSD>
0.6

> <PUBCHEM_CONFORMER_DIVERSEORDER>
1
394
349
111
135
353
89
119
368
91
297
280
276
230
313
42
296
328
180
263
352
304
391
318
122
252
376
130
350
33
115
317
378
53
133
143
283
369
175
365
377
22
346
255
374
44
95
156
291
74
372
330
5
245
386
316
178
167
305
240
364
334
337
339
63
272
136
117
165
234
191
314
241
204
389
281
141
390
387
145
172
105
3
381
331
59
279
128
345
277
144
322
125
20
127
271
393
82
382
183
159
235
265
77
9
384
341
367
71
140
363
285
72
174
147
385
315
14
333
78
232
151
383
311
321
15
257
188
99
200
253
51
273
93
179
132
261
23
327
282
177
142
8
211
294
303
379
64
197
312
101
97
298
84
192
243
46
106
35
351
120
181
308
229
302
173
301
92
290
269
56
348
48
238
24
87
215
37
88
114
29
323
248
275
289
373
86
207
231
366
278
43
246
292
153
90
199
237
110
320
329
2
362
17
220
370
30
158
267
138
224
55
154
342
361
213
65
388
124
239
58
69
336
131
123
260
73
355
203
193
306
202
66
264
326
12
75
164
214
166
335
356
49
270
76
309
293
284
100
26
262
134
160
242
338
108
109
163
266
118
57
13
268
226
344
218
295
98
251
96
259
258
212
184
250
256
189
150
157
343
45
307
375
18
324
137
80
228
247
359
216
6
103
36
347
32
83
4
116
209
25
299
392
27
249
11
47
104
354
225
94
194
38
62
79
182
219
274
149
287
221
70
168
310
107
380
10
186
171
358
244
236
40
121
169
201
146
39
129
81
54
176
152
113
41
155
325
139
198
208
357
7
31
61
360
148
340
300
233
28
67
68
187
286
170
206
196
195
126
161
288
162
112
85
102
205
60
254
223
190
210
34
217
371
19
332
227
319
50
16
185
21
52
222

> <PUBCHEM_MMFF94_PARTIAL_CHARGES>
7
1 -0.29
10 0.29
2 -0.43
3 -0.57
6 0.28
8 0.06
9 0.66

> <PUBCHEM_EFFECTIVE_ROTOR_COUNT>
6

> <PUBCHEM_PHARMACOPHORE_FEATURES>
2
1 3 acceptor
1 7 hydrophobe

> <PUBCHEM_HEAVY_ATOM_COUNT>
10

> <PUBCHEM_ATOM_DEF_STEREO_COUNT>
0

> <PUBCHEM_ATOM_UDEF_STEREO_COUNT>
0

> <PUBCHEM_BOND_DEF_STEREO_COUNT>
0

> <PUBCHEM_BOND_UDEF_STEREO_COUNT>
0

> <PUBCHEM_ISOTOPIC_ATOM_COUNT>
0

> <PUBCHEM_COMPONENT_COUNT>
1

> <PUBCHEM_CACTVS_TAUTO_COUNT>
1

> <PUBCHEM_CONFORMER_ID>
0001E21F00000001

> <PUBCHEM_MMFF94_ENERGY>
3.0374

> <PUBCHEM_FEATURE_SELFOVERLAP>
10.148

> <PUBCHEM_SHAPE_FINGERPRINT>
11062470 55 11891051674359890002
12932764 1 16988263297471758772
13690532 89 18260829301942000386
14123238 8 18272089409212150862
14252887 29 17560812017320938830
17834076 25 10665228150959160394
18342897 14 10159701295778211823
187816 3 17095242527448167081
20605781 2 8718834184573818419
20645477 70 18260545576940997154
20719005 15 18410856568250979074
20767249 13 18334856129969088755
20767249 213 11312054353005335027
20828058 44 16917066689547145751
21119208 17 15719109175713048339
22485316 2 18412259536709161231
23402539 116 18410287004438097991
23402655 69 11746926603627810563
42788 4 18410575088963346951
449060 50 13039189212274411600

> <PUBCHEM_SHAPE_MULTIPOLES>
195.93
10.46
1.08
0.6
1.91
0.22
0
-3.77
0.27
-0.41
0.01
-0.01
-0.02
0

> <PUBCHEM_SHAPE_SELFOVERLAP>
346.876

> <PUBCHEM_SHAPE_VOLUME>
128.4

> <PUBCHEM_COORDINATE_TYPE>
2
5
10

$$$$
