7483
  -OEChem-11012401123D

 19 19  0     0  0  0  0  0  0999 V2000
    3.2138    0.9214   -0.1188 O   0  5  0  0  0  0  0  0  0  0  0  0
    3.0299   -1.2638   -0.0172 O   0  0  0  0  0  0  0  0  0  0  0  0
   -3.0790    0.3621    0.1676 N   0  0  0  0  0  0  0  0  0  0  0  0
    2.5164   -0.1192   -0.0451 N   0  3  0  0  0  0  0  0  0  0  0  0
   -1.6748    0.2414    0.1145 C   0  0  0  0  0  0  0  0  0  0  0  0
   -0.8792    1.3841    0.0325 C   0  0  0  0  0  0  0  0  0  0  0  0
   -1.0818   -1.0209    0.1436 C   0  0  0  0  0  0  0  0  0  0  0  0
    1.1027    0.0023    0.0088 C   0  0  0  0  0  0  0  0  0  0  0  0
    0.5095    1.2645   -0.0204 C   0  0  0  0  0  0  0  0  0  0  0  0
    0.3070   -1.1405    0.0907 C   0  0  0  0  0  0  0  0  0  0  0  0
   -3.9645   -0.6314   -0.3562 C   0  0  0  0  0  0  0  0  0  0  0  0
   -1.3292    2.3733    0.0086 H   0  0  0  0  0  0  0  0  0  0  0  0
   -1.6738   -1.9288    0.2154 H   0  0  0  0  0  0  0  0  0  0  0  0
    1.0977    2.1764   -0.0841 H   0  0  0  0  0  0  0  0  0  0  0  0
    0.7345   -2.1396    0.1173 H   0  0  0  0  0  0  0  0  0  0  0  0
   -3.4426    1.3041    0.2718 H   0  0  0  0  0  0  0  0  0  0  0  0
   -3.7106   -0.8910   -1.3893 H   0  0  0  0  0  0  0  0  0  0  0  0
   -4.9901   -0.2483   -0.3543 H   0  0  0  0  0  0  0  0  0  0  0  0
   -3.9576   -1.5385    0.2562 H   0  0  0  0  0  0  0  0  0  0  0  0
  1  4  1  0  0  0  0
  2  4  2  0  0  0  0
  3  5  1  0  0  0  0
  3 11  1  0  0  0  0
  3 16  1  0  0  0  0
  4  8  1  0  0  0  0
  5  6  2  0  0  0  0
  5  7  1  0  0  0  0
  6  9  1  0  0  0  0
  6 12  1  0  0  0  0
  7 10  2  0  0  0  0
  7 13  1  0  0  0  0
  8  9  2  0  0  0  0
  8 10  1  0  0  0  0
  9 14  1  0  0  0  0
 10 15  1  0  0  0  0
 11 17  1  0  0  0  0
 11 18  1  0  0  0  0
 11 19  1  0  0  0  0
M  CHG  2   1  -1   4   1
M  END
> <PUBCHEM_COMPOUND_CID>
7483

> <PUBCHEM_CONFORMER_RMSD>
0.4

> <PUBCHEM_CONFORMER_DIVERSEORDER>
1

> <PUBCHEM_MMFF94_PARTIAL_CHARGES>
16
1 -0.52
10 -0.15
11 0.37
12 0.15
13 0.15
14 0.15
15 0.15
16 0.4
2 -0.52
3 -0.87
4 0.91
5 0.1
6 -0.15
7 -0.15
8 0.13
9 -0.15

> <PUBCHEM_EFFECTIVE_ROTOR_COUNT>
2

> <PUBCHEM_PHARMACOPHORE_FEATURES>
6
1 1 acceptor
1 1 anion
1 2 acceptor
1 3 cation
1 3 donor
6 5 6 7 8 9 10 rings

> <PUBCHEM_HEAVY_ATOM_COUNT>
11

> <PUBCHEM_ATOM_DEF_STEREO_COUNT>
0

> <PUBCHEM_ATOM_UDEF_STEREO_COUNT>
0

> <PUBCHEM_BOND_DEF_STEREO_COUNT>
0

> <PUBCHEM_BOND_UDEF_STEREO_COUNT>
0

> <PUBCHEM_ISOTOPIC_ATOM_COUNT>
0

> <PUBCHEM_COMPONENT_COUNT>
1

> <PUBCHEM_CACTVS_TAUTO_COUNT>
1

> <PUBCHEM_CONFORMER_ID>
00001D3B00000001

> <PUBCHEM_MMFF94_ENERGY>
41.8197

> <PUBCHEM_FEATURE_SELFOVERLAP>
30.527

> <PUBCHEM_SHAPE_FINGERPRINT>
10219947 1 18412266138100093535
11062470 55 18410856577078245053
12032990 46 18409736157592052067
12932764 1 13973681685309681045
14325111 11 18410856542602481625
14993402 34 18342457071110752079
16945 1 18334867129237818121
193761 8 17617941773768793857
20201158 50 18409450288621081043
21293036 1 18334573572750147509
23235685 24 18409725179497180017
23402539 116 18343010073666708287
23402655 69 18194665005348107973
23463225 33 18337390439841412698
23552423 10 18260834739650249946
2748010 2 18049447246566957337
369184 2 18411700967590551456
5084963 1 18343018844074361624
528886 8 18410570725287169371

> <PUBCHEM_SHAPE_MULTIPOLES>
204.67
5.38
1.4
0.6
1.24
0.09
0
-0.84
0.5
-0.29
-0.01
0.11
0
-0.11

> <PUBCHEM_SHAPE_SELFOVERLAP>
423.208

> <PUBCHEM_SHAPE_VOLUME>
118.5

> <PUBCHEM_COORDINATE_TYPE>
2
5
10

$$$$
