61158
  -OEChem-11012400343D

 18 18  0     0  0  0  0  0  0999 V2000
   -2.3755   -1.9003    0.0000 O   0  0  0  0  0  0  0  0  0  0  0  0
    2.3757   -1.9002    0.0000 O   0  0  0  0  0  0  0  0  0  0  0  0
    2.3900    2.1788    0.0001 O   0  5  0  0  0  0  0  0  0  0  0  0
   -2.3900    2.1787    0.0000 O   0  5  0  0  0  0  0  0  0  0  0  0
    3.5121    0.2920    0.0003 O   0  0  0  0  0  0  0  0  0  0  0  0
   -3.5121    0.2919   -0.0001 O   0  0  0  0  0  0  0  0  0  0  0  0
    2.4302    0.9256   -0.0002 N   0  3  0  0  0  0  0  0  0  0  0  0
   -2.4303    0.9256    0.0001 N   0  3  0  0  0  0  0  0  0  0  0  0
    1.2080    0.1988   -0.0003 C   0  0  0  0  0  0  0  0  0  0  0  0
   -1.2079    0.1987    0.0000 C   0  0  0  0  0  0  0  0  0  0  0  0
    0.0000    0.8962   -0.0001 C   0  0  0  0  0  0  0  0  0  0  0  0
   -1.2080   -1.1961    0.0002 C   0  0  0  0  0  0  0  0  0  0  0  0
    1.2080   -1.1961   -0.0001 C   0  0  0  0  0  0  0  0  0  0  0  0
    0.0001   -1.8936    0.0001 C   0  0  0  0  0  0  0  0  0  0  0  0
   -0.0001    1.9837   -0.0003 H   0  0  0  0  0  0  0  0  0  0  0  0
    0.0083   -2.9809    0.0000 H   0  0  0  0  0  0  0  0  0  0  0  0
   -2.1740   -2.8517    0.0000 H   0  0  0  0  0  0  0  0  0  0  0  0
    3.0982   -1.3644   -0.3609 H   0  0  0  0  0  0  0  0  0  0  0  0
  1 12  1  0  0  0  0
  1 17  1  0  0  0  0
  2 13  1  0  0  0  0
  2 18  1  0  0  0  0
  3  7  1  0  0  0  0
  4  8  1  0  0  0  0
  5  7  2  0  0  0  0
  6  8  2  0  0  0  0
  7  9  1  0  0  0  0
  8 10  1  0  0  0  0
  9 11  2  0  0  0  0
  9 13  1  0  0  0  0
 10 11  1  0  0  0  0
 10 12  2  0  0  0  0
 11 15  1  0  0  0  0
 12 14  1  0  0  0  0
 13 14  2  0  0  0  0
 14 16  1  0  0  0  0
M  CHG  4   3  -1   4  -1   7   1   8   1
M  END
> <PUBCHEM_COMPOUND_CID>
61158

> <PUBCHEM_CONFORMER_RMSD>
0.6

> <PUBCHEM_CONFORMER_DIVERSEORDER>
1

> <PUBCHEM_MMFF94_PARTIAL_CHARGES>
18
1 -0.53
10 0.13
11 -0.15
12 0.08
13 0.08
14 -0.15
15 0.15
16 0.15
17 0.45
18 0.45
2 -0.53
3 -0.52
4 -0.52
5 -0.52
6 -0.52
7 0.91
8 0.91
9 0.13

> <PUBCHEM_EFFECTIVE_ROTOR_COUNT>
2

> <PUBCHEM_PHARMACOPHORE_FEATURES>
9
1 1 donor
1 2 donor
1 3 acceptor
1 3 anion
1 4 acceptor
1 4 anion
1 5 acceptor
1 6 acceptor
6 9 10 11 12 13 14 rings

> <PUBCHEM_HEAVY_ATOM_COUNT>
14

> <PUBCHEM_ATOM_DEF_STEREO_COUNT>
0

> <PUBCHEM_ATOM_UDEF_STEREO_COUNT>
0

> <PUBCHEM_BOND_DEF_STEREO_COUNT>
0

> <PUBCHEM_BOND_UDEF_STEREO_COUNT>
0

> <PUBCHEM_ISOTOPIC_ATOM_COUNT>
0

> <PUBCHEM_COMPONENT_COUNT>
1

> <PUBCHEM_CACTVS_TAUTO_COUNT>
8

> <PUBCHEM_CONFORMER_ID>
0000EEE600000001

> <PUBCHEM_MMFF94_ENERGY>
50.1589

> <PUBCHEM_FEATURE_SELFOVERLAP>
45.835

> <PUBCHEM_SHAPE_FINGERPRINT>
10608611 8 18410854364911787136
10967382 1 18410856520985109892
13380535 21 18338529589548218694
13380535 76 18410852161593603267
13897977 150 18410853278411447525
14325111 11 18338797814809290529
14648413 74 18338802217056018410
14897335 6 18411412908328801223
15279308 100 18266746783396806782
15442244 35 18266737978724685114
15775835 57 18410580586516289028
16945 1 18410856559639900006
18186145 218 18199755734666139925
193761 8 18410855464423512359
19973954 147 18410857663446482083
20510252 161 18126570252098705704
21501502 16 18410852165893864807
2334 1 18410574015227090018
23402655 69 18270105830718147933
23463225 33 18334852827381740378
23552423 10 18335138708710391350
23559900 14 18271255916044887366
241688 4 16827846487540453947
2748010 2 18410578387503784519
528886 8 18411131441936705018
53812653 166 18343579672488083608
6333449 129 18339922718262459135
7364860 26 18342458093455743910

> <PUBCHEM_SHAPE_MULTIPOLES>
242.94
4.68
2.31
0.56
0
0.01
0
-1.35
0
0
0
0
0.02
0

> <PUBCHEM_SHAPE_SELFOVERLAP>
521.165

> <PUBCHEM_SHAPE_VOLUME>
134.4

> <PUBCHEM_COORDINATE_TYPE>
2
5
10

$$$$
