140814
  -OEChem-11012400303D

 21 22  0     0  0  0  0  0  0999 V2000
    1.8350   -1.0623   -0.1894 N   0  0  0  0  0  0  0  0  0  0  0  0
   -1.8273   -1.0627   -0.1906 N   0  0  0  0  0  0  0  0  0  0  0  0
    0.0041    0.1809   -1.3119 C   0  0  0  0  0  0  0  0  0  0  0  0
    1.2381    0.1301   -0.5055 C   0  0  0  0  0  0  0  0  0  0  0  0
   -1.2718    0.1282   -0.4796 C   0  0  0  0  0  0  0  0  0  0  0  0
    1.9910    1.1397    0.0523 C   0  0  0  0  0  0  0  0  0  0  0  0
   -1.9841    1.1395    0.0506 C   0  0  0  0  0  0  0  0  0  0  0  0
    2.9579   -0.8291    0.5611 C   0  0  0  0  0  0  0  0  0  0  0  0
   -2.9500   -0.8296    0.5603 C   0  0  0  0  0  0  0  0  0  0  0  0
    3.0790    0.5328    0.7272 C   0  0  0  0  0  0  0  0  0  0  0  0
   -3.0720    0.5323    0.7255 C   0  0  0  0  0  0  0  0  0  0  0  0
   -0.0085    1.1064   -1.9029 H   0  0  0  0  0  0  0  0  0  0  0  0
   -0.0081   -0.6377   -2.0438 H   0  0  0  0  0  0  0  0  0  0  0  0
    1.5002   -1.9755   -0.4649 H   0  0  0  0  0  0  0  0  0  0  0  0
   -1.4871   -1.9737   -0.4687 H   0  0  0  0  0  0  0  0  0  0  0  0
    1.7812    2.1982   -0.0177 H   0  0  0  0  0  0  0  0  0  0  0  0
   -1.7724    2.1970   -0.0209 H   0  0  0  0  0  0  0  0  0  0  0  0
    3.5681   -1.6504    0.9094 H   0  0  0  0  0  0  0  0  0  0  0  0
   -3.5597   -1.6513    0.9091 H   0  0  0  0  0  0  0  0  0  0  0  0
    3.8652    1.0331    1.2747 H   0  0  0  0  0  0  0  0  0  0  0  0
   -3.8586    1.0324    1.2728 H   0  0  0  0  0  0  0  0  0  0  0  0
  1  4  1  0  0  0  0
  1  8  1  0  0  0  0
  1 14  1  0  0  0  0
  2  5  1  0  0  0  0
  2  9  1  0  0  0  0
  2 15  1  0  0  0  0
  3  4  1  0  0  0  0
  3  5  1  0  0  0  0
  3 12  1  0  0  0  0
  3 13  1  0  0  0  0
  4  6  2  0  0  0  0
  5  7  2  0  0  0  0
  6 10  1  0  0  0  0
  6 16  1  0  0  0  0
  7 11  1  0  0  0  0
  7 17  1  0  0  0  0
  8 10  2  0  0  0  0
  8 18  1  0  0  0  0
  9 11  2  0  0  0  0
  9 19  1  0  0  0  0
 10 20  1  0  0  0  0
 11 21  1  0  0  0  0
M  END
> <PUBCHEM_COMPOUND_CID>
140814

> <PUBCHEM_CONFORMER_RMSD>
0.4

> <PUBCHEM_CONFORMER_DIVERSEORDER>
1
5
10
16
11
4
15
2
13
3
6
17
14
12
7
8
9

> <PUBCHEM_MMFF94_PARTIAL_CHARGES>
19
1 0.03
10 -0.15
11 -0.15
14 0.27
15 0.27
16 0.15
17 0.15
18 0.15
19 0.15
2 0.03
20 0.15
21 0.15
3 0.36
4 -0.33
5 -0.33
6 -0.15
7 -0.15
8 -0.3
9 -0.3

> <PUBCHEM_EFFECTIVE_ROTOR_COUNT>
2

> <PUBCHEM_PHARMACOPHORE_FEATURES>
6
1 1 cation
1 1 donor
1 2 cation
1 2 donor
5 1 4 6 8 10 rings
5 2 5 7 9 11 rings

> <PUBCHEM_HEAVY_ATOM_COUNT>
11

> <PUBCHEM_ATOM_DEF_STEREO_COUNT>
0

> <PUBCHEM_ATOM_UDEF_STEREO_COUNT>
0

> <PUBCHEM_BOND_DEF_STEREO_COUNT>
0

> <PUBCHEM_BOND_UDEF_STEREO_COUNT>
0

> <PUBCHEM_ISOTOPIC_ATOM_COUNT>
0

> <PUBCHEM_COMPONENT_COUNT>
1

> <PUBCHEM_CACTVS_TAUTO_COUNT>
1

> <PUBCHEM_CONFORMER_ID>
0002260E00000001

> <PUBCHEM_MMFF94_ENERGY>
4.8167

> <PUBCHEM_FEATURE_SELFOVERLAP>
30.446

> <PUBCHEM_SHAPE_FINGERPRINT>
10857977 72 18130234847382047621
12251169 10 18411699902243450704
12696612 119 18340770428806026116
12932764 1 18411420613463187676
13296908 3 16153421766047398701
13764800 53 15123232190656445847
14144814 61 18411982455256972232
14390081 3 13326855521881399347
15775835 57 14979954748546153305
18186145 218 12607410991720128096
20281407 28 17240479178608316298
20361792 2 15936129676922988439
20528008 55 18412256255506913525
20645464 45 17989212520874345079
20653085 51 11167951285348203031
20711985 344 15141501563925085525
21028194 46 15410896262184286029
21119208 17 8790891782463381424
22445834 79 18333448716341282723
230 275 15554452877089378472
23402539 116 18336816512801045845
3248919 1 18412541015774929157
369184 2 18413388735351145877
81228 2 15937514975548215853

> <PUBCHEM_SHAPE_MULTIPOLES>
216.41
5.59
1.2
0.98
0.04
0.02
0.13
0.35
-1.98
0
-0.08
0
-0.05
0

> <PUBCHEM_SHAPE_SELFOVERLAP>
467.219

> <PUBCHEM_SHAPE_VOLUME>
119

> <PUBCHEM_COORDINATE_TYPE>
2
5
10

$$$$
