17452
  -OEChem-11012400593D

 27 27  0     0  0  0  0  0  0999 V2000
    2.6365   -0.0001    1.2053 O   0  0  0  0  0  0  0  0  0  0  0  0
    2.8033   -0.0008   -1.0616 O   0  0  0  0  0  0  0  0  0  0  0  0
   -0.0520   -1.2080   -0.0190 C   0  0  0  0  0  0  0  0  0  0  0  0
   -0.0510    1.2079   -0.0181 C   0  0  0  0  0  0  0  0  0  0  0  0
    0.6459   -0.0003   -0.0274 C   0  0  0  0  0  0  0  0  0  0  0  0
   -1.4468   -1.2075   -0.0011 C   0  0  0  0  0  0  0  0  0  0  0  0
   -1.4457    1.2085   -0.0003 C   0  0  0  0  0  0  0  0  0  0  0  0
   -2.1437    0.0008    0.0083 C   0  0  0  0  0  0  0  0  0  0  0  0
    0.6894   -2.5082   -0.0271 C   0  0  0  0  0  0  0  0  0  0  0  0
    0.6918    2.5072   -0.0289 C   0  0  0  0  0  0  0  0  0  0  0  0
   -2.2173   -2.4870    0.0075 C   0  0  0  0  0  0  0  0  0  0  0  0
   -2.2160    2.4884    0.0082 C   0  0  0  0  0  0  0  0  0  0  0  0
    2.1057   -0.0009   -0.0459 C   0  0  0  0  0  0  0  0  0  0  0  0
   -3.2311    0.0012    0.0194 H   0  0  0  0  0  0  0  0  0  0  0  0
    1.7237   -2.4183   -0.3707 H   0  0  0  0  0  0  0  0  0  0  0  0
    0.7062   -2.9343    0.9816 H   0  0  0  0  0  0  0  0  0  0  0  0
    0.2240   -3.2275   -0.7091 H   0  0  0  0  0  0  0  0  0  0  0  0
    1.7251    2.4160   -0.3749 H   0  0  0  0  0  0  0  0  0  0  0  0
    0.2255    3.2266   -0.7103 H   0  0  0  0  0  0  0  0  0  0  0  0
    0.7112    2.9340    0.9794 H   0  0  0  0  0  0  0  0  0  0  0  0
   -1.8732   -3.1472    0.8104 H   0  0  0  0  0  0  0  0  0  0  0  0
   -3.2855   -2.3136    0.1801 H   0  0  0  0  0  0  0  0  0  0  0  0
   -2.1208   -2.9991   -0.9552 H   0  0  0  0  0  0  0  0  0  0  0  0
   -1.8699    3.1497    0.8094 H   0  0  0  0  0  0  0  0  0  0  0  0
   -2.1213    2.9992   -0.9554 H   0  0  0  0  0  0  0  0  0  0  0  0
   -3.2838    2.3156    0.1836 H   0  0  0  0  0  0  0  0  0  0  0  0
    3.6173    0.0002    1.1859 H   0  0  0  0  0  0  0  0  0  0  0  0
  1 13  1  0  0  0  0
  1 27  1  0  0  0  0
  2 13  2  0  0  0  0
  3  5  2  0  0  0  0
  3  6  1  0  0  0  0
  3  9  1  0  0  0  0
  4  5  1  0  0  0  0
  4  7  2  0  0  0  0
  4 10  1  0  0  0  0
  5 13  1  0  0  0  0
  6  8  2  0  0  0  0
  6 11  1  0  0  0  0
  7  8  1  0  0  0  0
  7 12  1  0  0  0  0
  8 14  1  0  0  0  0
  9 15  1  0  0  0  0
  9 16  1  0  0  0  0
  9 17  1  0  0  0  0
 10 18  1  0  0  0  0
 10 19  1  0  0  0  0
 10 20  1  0  0  0  0
 11 21  1  0  0  0  0
 11 22  1  0  0  0  0
 11 23  1  0  0  0  0
 12 24  1  0  0  0  0
 12 25  1  0  0  0  0
 12 26  1  0  0  0  0
M  END
> <PUBCHEM_COMPOUND_CID>
17452

> <PUBCHEM_CONFORMER_RMSD>
0.4

> <PUBCHEM_CONFORMER_DIVERSEORDER>
1
2
3

> <PUBCHEM_MMFF94_PARTIAL_CHARGES>
15
1 -0.65
10 0.14
11 0.14
12 0.14
13 0.63
14 0.15
2 -0.57
27 0.5
3 -0.14
4 -0.14
5 0.09
6 -0.14
7 -0.14
8 -0.15
9 0.14

> <PUBCHEM_EFFECTIVE_ROTOR_COUNT>
1

> <PUBCHEM_PHARMACOPHORE_FEATURES>
4
1 1 acceptor
1 2 acceptor
3 1 2 13 anion
6 3 4 5 6 7 8 rings

> <PUBCHEM_HEAVY_ATOM_COUNT>
13

> <PUBCHEM_ATOM_DEF_STEREO_COUNT>
0

> <PUBCHEM_ATOM_UDEF_STEREO_COUNT>
0

> <PUBCHEM_BOND_DEF_STEREO_COUNT>
0

> <PUBCHEM_BOND_UDEF_STEREO_COUNT>
0

> <PUBCHEM_ISOTOPIC_ATOM_COUNT>
0

> <PUBCHEM_COMPONENT_COUNT>
1

> <PUBCHEM_CACTVS_TAUTO_COUNT>
1

> <PUBCHEM_CONFORMER_ID>
0000442C00000001

> <PUBCHEM_MMFF94_ENERGY>
45.2937

> <PUBCHEM_FEATURE_SELFOVERLAP>
20.355

> <PUBCHEM_SHAPE_FINGERPRINT>
10967382 1 17689998934088916885
11206711 2 18409448124152574263
12524768 44 17764876088041298494
13140716 1 18266458896345133713
13380535 76 18195517095802812967
14817 1 8787784339417935933
161256 15 17979362184916131060
16945 1 18410573989747079303
193761 8 18410856559972098975
20511035 2 18050847710953892823
20871998 184 18272088348165474302
21040471 1 18266740177568339140
22802520 49 18057904475591995678
2334 1 17978228593165667527
23552423 10 17900260002799276493
23559900 14 18127980716139969726
2748010 2 18122339353098599317
5084963 1 17987529267145691954
53812653 166 18199181798123150121
7364860 26 17116924063355475095
81228 2 18411417336709017947

> <PUBCHEM_SHAPE_MULTIPOLES>
255.8
3.4
3.08
0.75
1.04
0
0.03
0
0
-1.59
-0.02
0.38
0
0

> <PUBCHEM_SHAPE_SELFOVERLAP>
536.353

> <PUBCHEM_SHAPE_VOLUME>
148.8

> <PUBCHEM_COORDINATE_TYPE>
2
5
10

$$$$
