86142482
  -OEChem-11012400433D

 47 46  0     0  0  0  0  0  0999 V2000
    0.0001   -0.4988    0.0002 Si  0  0  0  0  0  0  0  0  0  0  0  0
    1.1461    0.5839   -1.0152 C   0  0  0  0  0  0  0  0  0  0  0  0
   -1.1464    0.5834    1.0154 C   0  0  0  0  0  0  0  0  0  0  0  0
    1.0154   -1.5814    1.1464 C   0  0  0  0  0  0  0  0  0  0  0  0
   -1.0147   -1.5817   -1.1463 C   0  0  0  0  0  0  0  0  0  0  0  0
    2.0433    1.5288   -0.2081 C   0  0  0  0  0  0  0  0  0  0  0  0
   -2.0441    1.5278    0.2081 C   0  0  0  0  0  0  0  0  0  0  0  0
    2.0033   -2.5249    0.4540 C   0  0  0  0  0  0  0  0  0  0  0  0
   -2.0020   -2.5258   -0.4541 C   0  0  0  0  0  0  0  0  0  0  0  0
    2.9700    2.3307   -1.1233 C   0  0  0  0  0  0  0  0  0  0  0  0
   -2.9712    2.3294    1.1233 C   0  0  0  0  0  0  0  0  0  0  0  0
    2.8114   -3.3241    1.4655 C   0  0  0  0  0  0  0  0  0  0  0  0
   -2.8096   -3.3254   -1.4658 C   0  0  0  0  0  0  0  0  0  0  0  0
    3.8910    3.2399   -0.3255 C   0  0  0  0  0  0  0  0  0  0  0  0
   -3.8926    3.2381    0.3252 C   0  0  0  0  0  0  0  0  0  0  0  0
    0.5380    1.1741   -1.7111 H   0  0  0  0  0  0  0  0  0  0  0  0
    1.7743   -0.0691   -1.6327 H   0  0  0  0  0  0  0  0  0  0  0  0
   -0.5387    1.1740    1.7113 H   0  0  0  0  0  0  0  0  0  0  0  0
   -1.7744   -0.0698    1.6329 H   0  0  0  0  0  0  0  0  0  0  0  0
    0.3278   -2.1718    1.7637 H   0  0  0  0  0  0  0  0  0  0  0  0
    1.5643   -0.9287    1.8359 H   0  0  0  0  0  0  0  0  0  0  0  0
   -0.3267   -2.1717   -1.7637 H   0  0  0  0  0  0  0  0  0  0  0  0
   -1.5638   -0.9293   -1.8356 H   0  0  0  0  0  0  0  0  0  0  0  0
    1.4295    2.2202    0.3829 H   0  0  0  0  0  0  0  0  0  0  0  0
    2.6505    0.9551    0.5035 H   0  0  0  0  0  0  0  0  0  0  0  0
   -2.6509    0.9538   -0.5034 H   0  0  0  0  0  0  0  0  0  0  0  0
   -1.4306    2.2195   -0.3829 H   0  0  0  0  0  0  0  0  0  0  0  0
    1.4688   -3.2213   -0.2033 H   0  0  0  0  0  0  0  0  0  0  0  0
    2.6965   -1.9572   -0.1784 H   0  0  0  0  0  0  0  0  0  0  0  0
   -1.4671   -3.2221    0.2031 H   0  0  0  0  0  0  0  0  0  0  0  0
   -2.6955   -1.9587    0.1784 H   0  0  0  0  0  0  0  0  0  0  0  0
    2.3749    2.9372   -1.8159 H   0  0  0  0  0  0  0  0  0  0  0  0
    3.5780    1.6484   -1.7287 H   0  0  0  0  0  0  0  0  0  0  0  0
   -2.3764    2.9362    1.8159 H   0  0  0  0  0  0  0  0  0  0  0  0
   -3.5789    1.6467    1.7287 H   0  0  0  0  0  0  0  0  0  0  0  0
    3.5084   -3.9925    0.9504 H   0  0  0  0  0  0  0  0  0  0  0  0
    2.1568   -3.9353    2.0950 H   0  0  0  0  0  0  0  0  0  0  0  0
    3.3930   -2.6616    2.1145 H   0  0  0  0  0  0  0  0  0  0  0  0
   -3.3916   -2.6630   -2.1146 H   0  0  0  0  0  0  0  0  0  0  0  0
   -3.5063   -3.9943   -0.9508 H   0  0  0  0  0  0  0  0  0  0  0  0
   -2.1547   -3.9361   -2.0953 H   0  0  0  0  0  0  0  0  0  0  0  0
    4.5246    2.6594    0.3527 H   0  0  0  0  0  0  0  0  0  0  0  0
    4.5429    3.8047   -0.9993 H   0  0  0  0  0  0  0  0  0  0  0  0
    3.3156    3.9560    0.2700 H   0  0  0  0  0  0  0  0  0  0  0  0
   -4.5258    2.6571   -0.3529 H   0  0  0  0  0  0  0  0  0  0  0  0
   -4.5449    3.8025    0.9989 H   0  0  0  0  0  0  0  0  0  0  0  0
   -3.3175    3.9543   -0.2702 H   0  0  0  0  0  0  0  0  0  0  0  0
  1  2  1  0  0  0  0
  1  3  1  0  0  0  0
  1  4  1  0  0  0  0
  1  5  1  0  0  0  0
  2  6  1  0  0  0  0
  2 16  1  0  0  0  0
  2 17  1  0  0  0  0
  3  7  1  0  0  0  0
  3 18  1  0  0  0  0
  3 19  1  0  0  0  0
  4  8  1  0  0  0  0
  4 20  1  0  0  0  0
  4 21  1  0  0  0  0
  5  9  1  0  0  0  0
  5 22  1  0  0  0  0
  5 23  1  0  0  0  0
  6 10  1  0  0  0  0
  6 24  1  0  0  0  0
  6 25  1  0  0  0  0
  7 11  1  0  0  0  0
  7 26  1  0  0  0  0
  7 27  1  0  0  0  0
  8 12  1  0  0  0  0
  8 28  1  0  0  0  0
  8 29  1  0  0  0  0
  9 13  1  0  0  0  0
  9 30  1  0  0  0  0
  9 31  1  0  0  0  0
 10 14  1  0  0  0  0
 10 32  1  0  0  0  0
 10 33  1  0  0  0  0
 11 15  1  0  0  0  0
 11 34  1  0  0  0  0
 11 35  1  0  0  0  0
 12 36  1  0  0  0  0
 12 37  1  0  0  0  0
 12 38  1  0  0  0  0
 13 39  1  0  0  0  0
 13 40  1  0  0  0  0
 13 41  1  0  0  0  0
 14 42  1  0  0  0  0
 14 43  1  0  0  0  0
 14 44  1  0  0  0  0
 15 45  1  0  0  0  0
 15 46  1  0  0  0  0
 15 47  1  0  0  0  0
M  END
> <PUBCHEM_COMPOUND_CID>
86142482

> <PUBCHEM_CONFORMER_RMSD>
1

> <PUBCHEM_CONFORMER_DIVERSEORDER>
1
110
90
42
96
123
104
99
115
9
120
41
116
85
92
21
83
8
58
25
86
49
29
106
78
67
35
111
68
3
93
17
87
36
91
71
124
113
77
105
48
6
54
95
23
119
57
45
79
73
20
109
76
121
98
22
108
13
60
81
88
33
59
18
2
89
55
37
64
112
72
28
62
39
100
122
114
15
53
117
50
75
70
69
94
56
16
82
40
10
32
80
31
102
27
101
12
63
4
107
7
26
84
103
46
118
97
43
52
66
5
14
34
11
38
19
47
74
61
51
24
30
44
65

> <PUBCHEM_MMFF94_PARTIAL_CHARGES>
5
1 0.32
2 -0.08
3 -0.08
4 -0.08
5 -0.08

> <PUBCHEM_EFFECTIVE_ROTOR_COUNT>
10

> <PUBCHEM_PHARMACOPHORE_FEATURES>
4
1 12 hydrophobe
1 13 hydrophobe
1 14 hydrophobe
1 15 hydrophobe

> <PUBCHEM_HEAVY_ATOM_COUNT>
15

> <PUBCHEM_ATOM_DEF_STEREO_COUNT>
0

> <PUBCHEM_ATOM_UDEF_STEREO_COUNT>
0

> <PUBCHEM_BOND_DEF_STEREO_COUNT>
0

> <PUBCHEM_BOND_UDEF_STEREO_COUNT>
0

> <PUBCHEM_ISOTOPIC_ATOM_COUNT>
0

> <PUBCHEM_COMPONENT_COUNT>
1

> <PUBCHEM_CACTVS_TAUTO_COUNT>
1

> <PUBCHEM_CONFORMER_ID>
05226E1200000001

> <PUBCHEM_MMFF94_ENERGY>
-7.5279

> <PUBCHEM_FEATURE_SELFOVERLAP>
20.3

> <PUBCHEM_SHAPE_FINGERPRINT>
10756046 70 18193554471731417607
12293681 160 17834103522043041961
12507560 14 17905327325474233472
12788726 201 17979637067587742152
13134695 92 17755305565139436852
13294875 104 18341055121151338256
13380536 167 18411976962089109867
13380536 55 18410016562831515274
14943834 7 18410568491888649826
15490181 7 18266767772728103588
187816 3 17761773275060158166
20511035 2 18044403567887509369
20671657 1 18336837376939818416
20723712 36 17836086675878862000
21524375 3 18266767764149205704
23402539 116 17766568219425089588
23419403 2 17316478401441356004
23526113 38 16754931888670894230
23558518 356 18265626544457489332
266924 1 18338790216759072927
266924 87 18195528314389129310
283562 15 18121779705595460820
3060560 45 17909562661739714925
3084891 72 17833829752649318350
589210 1 18410569587110598054
7164475 11 18270682107401083780
81228 2 17693967457921704360

> <PUBCHEM_SHAPE_MULTIPOLES>
326.91
5.99
5.53
1.42
0
0.47
0
-5.01
0
0
0
0
0.73
-3.91

> <PUBCHEM_SHAPE_SELFOVERLAP>
572.51

> <PUBCHEM_SHAPE_VOLUME>
214.5

> <PUBCHEM_COORDINATE_TYPE>
2
5
10

$$$$
