95314
  -OEChem-11012401023D

 18 18  0     1  0  0  0  0  0999 V2000
    2.1909    1.2355   -0.7095 Br  0  0  0  0  0  0  0  0  0  0  0  0
   -2.1926    1.2330    0.7094 Br  0  0  0  0  0  0  0  0  0  0  0  0
    0.6271    0.8738    0.4351 C   0  0  1  0  0  0  0  0  0  0  0  0
   -0.6284    0.8731   -0.4349 C   0  0  1  0  0  0  0  0  0  0  0  0
    0.8636   -0.4256    1.2065 C   0  0  0  0  0  0  0  0  0  0  0  0
   -0.8628   -0.4266   -1.2066 C   0  0  0  0  0  0  0  0  0  0  0  0
    0.6737   -1.6812    0.3576 C   0  0  0  0  0  0  0  0  0  0  0  0
   -0.6714   -1.6820   -0.3575 C   0  0  0  0  0  0  0  0  0  0  0  0
    0.6312    1.7200    1.1315 H   0  0  0  0  0  0  0  0  0  0  0  0
   -0.6335    1.7193   -1.1313 H   0  0  0  0  0  0  0  0  0  0  0  0
    0.1570   -0.4695    2.0452 H   0  0  0  0  0  0  0  0  0  0  0  0
    1.8651   -0.4384    1.6536 H   0  0  0  0  0  0  0  0  0  0  0  0
   -0.1559   -0.4695   -2.0451 H   0  0  0  0  0  0  0  0  0  0  0  0
   -1.8642   -0.4408   -1.6539 H   0  0  0  0  0  0  0  0  0  0  0  0
    0.7468   -2.5675    0.9985 H   0  0  0  0  0  0  0  0  0  0  0  0
    1.4808   -1.7628   -0.3798 H   0  0  0  0  0  0  0  0  0  0  0  0
   -0.7434   -2.5685   -0.9983 H   0  0  0  0  0  0  0  0  0  0  0  0
   -1.4784   -1.7645    0.3798 H   0  0  0  0  0  0  0  0  0  0  0  0
  1  3  1  0  0  0  0
  2  4  1  0  0  0  0
  3  4  1  0  0  0  0
  3  5  1  0  0  0  0
  3  9  1  0  0  0  0
  4  6  1  0  0  0  0
  4 10  1  0  0  0  0
  5  7  1  0  0  0  0
  5 11  1  0  0  0  0
  5 12  1  0  0  0  0
  6  8  1  0  0  0  0
  6 13  1  0  0  0  0
  6 14  1  0  0  0  0
  7  8  1  0  0  0  0
  7 15  1  0  0  0  0
  7 16  1  0  0  0  0
  8 17  1  0  0  0  0
  8 18  1  0  0  0  0
M  END
> <PUBCHEM_COMPOUND_CID>
95314

> <PUBCHEM_CONFORMER_RMSD>
0.4

> <PUBCHEM_CONFORMER_DIVERSEORDER>
1
4
3
2
5
6

> <PUBCHEM_MMFF94_PARTIAL_CHARGES>
4
1 -0.23
2 -0.23
3 0.23
4 0.23

> <PUBCHEM_EFFECTIVE_ROTOR_COUNT>
1.2

> <PUBCHEM_PHARMACOPHORE_FEATURES>
3
1 1 hydrophobe
1 2 hydrophobe
6 3 4 5 6 7 8 rings

> <PUBCHEM_HEAVY_ATOM_COUNT>
8

> <PUBCHEM_ATOM_DEF_STEREO_COUNT>
0

> <PUBCHEM_ATOM_UDEF_STEREO_COUNT>
2

> <PUBCHEM_BOND_DEF_STEREO_COUNT>
0

> <PUBCHEM_BOND_UDEF_STEREO_COUNT>
0

> <PUBCHEM_ISOTOPIC_ATOM_COUNT>
0

> <PUBCHEM_COMPONENT_COUNT>
1

> <PUBCHEM_CACTVS_TAUTO_COUNT>
1

> <PUBCHEM_CONFORMER_ID>
0001745200000001

> <PUBCHEM_MMFF94_ENERGY>
6.2997

> <PUBCHEM_FEATURE_SELFOVERLAP>
15.223

> <PUBCHEM_SHAPE_FINGERPRINT>
10702982 57 18339375135501783700
12423570 1 14323338279980753449
13024252 1 11892992445585157108
137420 1 14525864490869827608
20653091 64 17694241979689079129
21040471 1 18272641325299721233
29004967 10 17615971002228892483
5084963 1 17984404270684802253
528862 383 18189901919921092184
68250623 7 18338816562083250118

> <PUBCHEM_SHAPE_MULTIPOLES>
176.52
2.47
1.98
1.21
0
0.62
0
-1.61
0
0
0
0
0.08
-0.58

> <PUBCHEM_SHAPE_SELFOVERLAP>
311.789

> <PUBCHEM_SHAPE_VOLUME>
116.7

> <PUBCHEM_COORDINATE_TYPE>
2
5
10

$$$$
