137212
  -OEChem-11012401143D

 57 57  0     0  0  0  0  0  0999 V2000
    6.7628    0.1500   -0.2954 C   0  0  0  0  0  0  0  0  0  0  0  0
    6.9406   -1.1985    0.3951 C   0  0  0  0  0  0  0  0  0  0  0  0
    8.0232    0.8994    0.1250 C   0  0  0  0  0  0  0  0  0  0  0  0
    8.4239   -1.5079    0.2212 C   0  0  0  0  0  0  0  0  0  0  0  0
    9.1223   -0.1566    0.0593 C   0  0  0  0  0  0  0  0  0  0  0  0
    5.4818    0.8621    0.1024 C   0  0  0  0  0  0  0  0  0  0  0  0
    4.2470    0.0550   -0.3008 C   0  0  0  0  0  0  0  0  0  0  0  0
    2.9275    0.7396    0.0697 C   0  0  0  0  0  0  0  0  0  0  0  0
    1.6925   -0.0578   -0.3563 C   0  0  0  0  0  0  0  0  0  0  0  0
    0.3733    0.5869    0.0821 C   0  0  0  0  0  0  0  0  0  0  0  0
   -0.9019   -0.1331   -0.3675 C   0  0  0  0  0  0  0  0  0  0  0  0
   -2.1862    0.5412    0.1187 C   0  0  0  0  0  0  0  0  0  0  0  0
   -3.4254   -0.2372   -0.3312 C   0  0  0  0  0  0  0  0  0  0  0  0
   -4.7080    0.4197    0.1832 C   0  0  0  0  0  0  0  0  0  0  0  0
   -5.9823   -0.3065   -0.2570 C   0  0  0  0  0  0  0  0  0  0  0  0
   -7.2986    0.2945    0.2469 C   0  0  0  0  0  0  0  0  0  0  0  0
   -8.5689   -0.4708   -0.1357 C   0  0  0  0  0  0  0  0  0  0  0  0
   -9.8422    0.1294    0.4609 C   0  0  0  0  0  0  0  0  0  0  0  0
  -11.0815   -0.6096   -0.0204 C   0  0  0  0  0  0  0  0  0  0  0  0
    6.7810    0.0040   -1.3842 H   0  0  0  0  0  0  0  0  0  0  0  0
    6.6997   -1.1288    1.4630 H   0  0  0  0  0  0  0  0  0  0  0  0
    6.3200   -1.9867   -0.0420 H   0  0  0  0  0  0  0  0  0  0  0  0
    8.2366    1.7540   -0.5245 H   0  0  0  0  0  0  0  0  0  0  0  0
    7.9318    1.2732    1.1524 H   0  0  0  0  0  0  0  0  0  0  0  0
    8.8169   -2.0707    1.0739 H   0  0  0  0  0  0  0  0  0  0  0  0
    8.5841   -2.1169   -0.6762 H   0  0  0  0  0  0  0  0  0  0  0  0
    9.6333   -0.1167   -0.9095 H   0  0  0  0  0  0  0  0  0  0  0  0
    9.8773    0.0070    0.8350 H   0  0  0  0  0  0  0  0  0  0  0  0
    5.4628    1.0393    1.1851 H   0  0  0  0  0  0  0  0  0  0  0  0
    5.4476    1.8469   -0.3794 H   0  0  0  0  0  0  0  0  0  0  0  0
    4.2667   -0.1217   -1.3833 H   0  0  0  0  0  0  0  0  0  0  0  0
    4.2653   -0.9283    0.1829 H   0  0  0  0  0  0  0  0  0  0  0  0
    2.8919    1.7327   -0.3947 H   0  0  0  0  0  0  0  0  0  0  0  0
    2.8993    0.8962    1.1552 H   0  0  0  0  0  0  0  0  0  0  0  0
    1.7493   -1.0694    0.0639 H   0  0  0  0  0  0  0  0  0  0  0  0
    1.6942   -0.1676   -1.4477 H   0  0  0  0  0  0  0  0  0  0  0  0
    0.3680    0.6616    1.1770 H   0  0  0  0  0  0  0  0  0  0  0  0
    0.3431    1.6164   -0.2974 H   0  0  0  0  0  0  0  0  0  0  0  0
   -0.8726   -1.1659    0.0012 H   0  0  0  0  0  0  0  0  0  0  0  0
   -0.9125   -0.1887   -1.4630 H   0  0  0  0  0  0  0  0  0  0  0  0
   -2.1710    0.6083    1.2132 H   0  0  0  0  0  0  0  0  0  0  0  0
   -2.2317    1.5662   -0.2682 H   0  0  0  0  0  0  0  0  0  0  0  0
   -3.3701   -1.2681    0.0388 H   0  0  0  0  0  0  0  0  0  0  0  0
   -3.4518   -0.2868   -1.4264 H   0  0  0  0  0  0  0  0  0  0  0  0
   -4.6807    0.4586    1.2792 H   0  0  0  0  0  0  0  0  0  0  0  0
   -4.7521    1.4576   -0.1691 H   0  0  0  0  0  0  0  0  0  0  0  0
   -5.9246   -1.3488    0.0817 H   0  0  0  0  0  0  0  0  0  0  0  0
   -6.0110   -0.3398   -1.3534 H   0  0  0  0  0  0  0  0  0  0  0  0
   -7.2495    0.3635    1.3411 H   0  0  0  0  0  0  0  0  0  0  0  0
   -7.3792    1.3242   -0.1236 H   0  0  0  0  0  0  0  0  0  0  0  0
   -8.4733   -1.5127    0.1939 H   0  0  0  0  0  0  0  0  0  0  0  0
   -8.6508   -0.4919   -1.2295 H   0  0  0  0  0  0  0  0  0  0  0  0
   -9.7947    0.0883    1.5550 H   0  0  0  0  0  0  0  0  0  0  0  0
   -9.9222    1.1855    0.1783 H   0  0  0  0  0  0  0  0  0  0  0  0
  -11.0456   -1.6648    0.2684 H   0  0  0  0  0  0  0  0  0  0  0  0
  -11.9808   -0.1673    0.4194 H   0  0  0  0  0  0  0  0  0  0  0  0
  -11.1737   -0.5539   -1.1098 H   0  0  0  0  0  0  0  0  0  0  0  0
  1  2  1  0  0  0  0
  1  3  1  0  0  0  0
  1  6  1  0  0  0  0
  1 20  1  0  0  0  0
  2  4  1  0  0  0  0
  2 21  1  0  0  0  0
  2 22  1  0  0  0  0
  3  5  1  0  0  0  0
  3 23  1  0  0  0  0
  3 24  1  0  0  0  0
  4  5  1  0  0  0  0
  4 25  1  0  0  0  0
  4 26  1  0  0  0  0
  5 27  1  0  0  0  0
  5 28  1  0  0  0  0
  6  7  1  0  0  0  0
  6 29  1  0  0  0  0
  6 30  1  0  0  0  0
  7  8  1  0  0  0  0
  7 31  1  0  0  0  0
  7 32  1  0  0  0  0
  8  9  1  0  0  0  0
  8 33  1  0  0  0  0
  8 34  1  0  0  0  0
  9 10  1  0  0  0  0
  9 35  1  0  0  0  0
  9 36  1  0  0  0  0
 10 11  1  0  0  0  0
 10 37  1  0  0  0  0
 10 38  1  0  0  0  0
 11 12  1  0  0  0  0
 11 39  1  0  0  0  0
 11 40  1  0  0  0  0
 12 13  1  0  0  0  0
 12 41  1  0  0  0  0
 12 42  1  0  0  0  0
 13 14  1  0  0  0  0
 13 43  1  0  0  0  0
 13 44  1  0  0  0  0
 14 15  1  0  0  0  0
 14 45  1  0  0  0  0
 14 46  1  0  0  0  0
 15 16  1  0  0  0  0
 15 47  1  0  0  0  0
 15 48  1  0  0  0  0
 16 17  1  0  0  0  0
 16 49  1  0  0  0  0
 16 50  1  0  0  0  0
 17 18  1  0  0  0  0
 17 51  1  0  0  0  0
 17 52  1  0  0  0  0
 18 19  1  0  0  0  0
 18 53  1  0  0  0  0
 18 54  1  0  0  0  0
 19 55  1  0  0  0  0
 19 56  1  0  0  0  0
 19 57  1  0  0  0  0
M  END
> <PUBCHEM_COMPOUND_CID>
137212

> <PUBCHEM_CONFORMER_RMSD>
1.4

> <PUBCHEM_CONFORMER_DIVERSEORDER>
1
18
44
6
48
14
28
13
5
15
8
22
32
11
38
2
9
47
20
12
27
26
24
19
51
31
7
16
39
34
40
17
33
45
3
30
50
46
36
10
21
49
23
41
4
25
35
29
37
43
42

> <PUBCHEM_MMFF94_PARTIAL_CHARGES>
0

> <PUBCHEM_EFFECTIVE_ROTOR_COUNT>
14

> <PUBCHEM_PHARMACOPHORE_FEATURES>
2
1 19 hydrophobe
5 1 2 3 4 5 rings

> <PUBCHEM_HEAVY_ATOM_COUNT>
19

> <PUBCHEM_ATOM_DEF_STEREO_COUNT>
0

> <PUBCHEM_ATOM_UDEF_STEREO_COUNT>
0

> <PUBCHEM_BOND_DEF_STEREO_COUNT>
0

> <PUBCHEM_BOND_UDEF_STEREO_COUNT>
0

> <PUBCHEM_ISOTOPIC_ATOM_COUNT>
0

> <PUBCHEM_COMPONENT_COUNT>
1

> <PUBCHEM_CACTVS_TAUTO_COUNT>
1

> <PUBCHEM_CONFORMER_ID>
000217FC00000001

> <PUBCHEM_MMFF94_ENERGY>
5.7971

> <PUBCHEM_FEATURE_SELFOVERLAP>
10.148

> <PUBCHEM_SHAPE_FINGERPRINT>
11211813 74 11963685434720750414
11638347 137 18410294696556051086
13885169 127 18260546693104778613
14202775 3 18334582352318428939
14251764 18 18201721743482780272
14251764 46 17989488524363348847
14251920 1 18410575084663078916
14344974 52 12035741932966218253
14428016 248 10665228134053968407
15061470 23 18409446986488004373
15510794 2 18187087269603255203
155225 1 10159690301648572642
20812841 46 17703785947235729712
21095086 128 18114179731026888467
21150785 3 11458424635250589796
21362267 20 18410854404459251387
21362267 313 15769228132780176911
22224240 67 13686295777444229468
232437 2 18410856573426888419
23521765 1 18341895194683006645
23581129 1 18409449189051210085
246663 6 17385725789718516925
249057 3 15357984485669497775
28498 318 18260828185609030828
33684 2 18410855460133443045
5283156 175 18410012130852644236
59520647 119 18040439935929021498
59521120 56 17060043904627095910
67123 10 18410575093258294757
8209 1 18342176674355559229
9663363 56 15647052677857073972

> <PUBCHEM_SHAPE_MULTIPOLES>
391.01
42.39
1.01
0.68
48.09
0.17
0
8.58
3.58
-1.72
0.07
0.05
0.01
-0.42

> <PUBCHEM_SHAPE_SELFOVERLAP>
725.168

> <PUBCHEM_SHAPE_VOLUME>
244

> <PUBCHEM_COORDINATE_TYPE>
2
5
10

$$$$
