68018
  -OEChem-11012401043D

 19 19  0     0  0  0  0  0  0999 V2000
    3.5375    0.2970    0.2661 F   0  0  0  0  0  0  0  0  0  0  0  0
   -1.8610   -0.4434   -0.4038 O   0  0  0  0  0  0  0  0  0  0  0  0
   -0.5228   -0.2598   -0.2373 C   0  0  0  0  0  0  0  0  0  0  0  0
   -2.7221    0.5925    0.0663 C   0  0  0  0  0  0  0  0  0  0  0  0
    0.0098    1.0293   -0.2391 C   0  0  0  0  0  0  0  0  0  0  0  0
    0.3161   -1.3610   -0.0655 C   0  0  0  0  0  0  0  0  0  0  0  0
   -4.0471   -0.0151    0.4751 C   0  0  0  0  0  0  0  0  0  0  0  0
    1.3814    1.2173   -0.0691 C   0  0  0  0  0  0  0  0  0  0  0  0
    1.6878   -1.1730    0.1046 C   0  0  0  0  0  0  0  0  0  0  0  0
    2.2205    0.1162    0.1028 C   0  0  0  0  0  0  0  0  0  0  0  0
   -2.3078    1.0998    0.9466 H   0  0  0  0  0  0  0  0  0  0  0  0
   -2.8805    1.3209   -0.7366 H   0  0  0  0  0  0  0  0  0  0  0  0
   -0.6037    1.9112   -0.3974 H   0  0  0  0  0  0  0  0  0  0  0  0
   -0.0932   -2.3675   -0.0632 H   0  0  0  0  0  0  0  0  0  0  0  0
   -4.7375    0.7543    0.8317 H   0  0  0  0  0  0  0  0  0  0  0  0
   -4.5078   -0.5387   -0.3691 H   0  0  0  0  0  0  0  0  0  0  0  0
   -3.9033   -0.7562    1.2684 H   0  0  0  0  0  0  0  0  0  0  0  0
    1.7979    2.2203   -0.0764 H   0  0  0  0  0  0  0  0  0  0  0  0
    2.3412   -2.0300    0.2384 H   0  0  0  0  0  0  0  0  0  0  0  0
  1 10  1  0  0  0  0
  2  3  1  0  0  0  0
  2  4  1  0  0  0  0
  3  5  2  0  0  0  0
  3  6  1  0  0  0  0
  4  7  1  0  0  0  0
  4 11  1  0  0  0  0
  4 12  1  0  0  0  0
  5  8  1  0  0  0  0
  5 13  1  0  0  0  0
  6  9  2  0  0  0  0
  6 14  1  0  0  0  0
  7 15  1  0  0  0  0
  7 16  1  0  0  0  0
  7 17  1  0  0  0  0
  8 10  2  0  0  0  0
  8 18  1  0  0  0  0
  9 10  1  0  0  0  0
  9 19  1  0  0  0  0
M  END
> <PUBCHEM_COMPOUND_CID>
68018

> <PUBCHEM_CONFORMER_RMSD>
0.4

> <PUBCHEM_CONFORMER_DIVERSEORDER>
1
6
5
2
3
4

> <PUBCHEM_MMFF94_PARTIAL_CHARGES>
13
1 -0.19
10 0.19
13 0.15
14 0.15
18 0.15
19 0.15
2 -0.36
3 0.08
4 0.28
5 -0.15
6 -0.15
8 -0.15
9 -0.15

> <PUBCHEM_EFFECTIVE_ROTOR_COUNT>
2

> <PUBCHEM_PHARMACOPHORE_FEATURES>
2
1 2 acceptor
6 3 5 6 8 9 10 rings

> <PUBCHEM_HEAVY_ATOM_COUNT>
10

> <PUBCHEM_ATOM_DEF_STEREO_COUNT>
0

> <PUBCHEM_ATOM_UDEF_STEREO_COUNT>
0

> <PUBCHEM_BOND_DEF_STEREO_COUNT>
0

> <PUBCHEM_BOND_UDEF_STEREO_COUNT>
0

> <PUBCHEM_ISOTOPIC_ATOM_COUNT>
0

> <PUBCHEM_COMPONENT_COUNT>
1

> <PUBCHEM_CACTVS_TAUTO_COUNT>
1

> <PUBCHEM_CONFORMER_ID>
000109B200000001

> <PUBCHEM_MMFF94_ENERGY>
25.6572

> <PUBCHEM_FEATURE_SELFOVERLAP>
10.148

> <PUBCHEM_SHAPE_FINGERPRINT>
10219947 1 18335140886232118373
11062470 55 14045743724781126745
12032990 46 18336832978951186718
12932764 1 17346586453183185485
14325111 11 18411419518504976829
161256 15 18196095443377456078
16945 1 18409156719095378388
17844478 74 17967534545468739909
20201158 50 18187086144015550147
20645477 70 18266451019586648543
20871998 22 17982454789293044950
21040471 1 18266456692852850198
23235685 24 18410287030002238096
23402655 69 18268411457572425389
2748010 2 18049711932764415116
29004967 10 18114183007944451944
528886 8 18411975875435731018

> <PUBCHEM_SHAPE_MULTIPOLES>
192.65
5.34
1.28
0.65
3.75
0.09
0
-0.4
1.02
-0.47
-0.04
0.09
0
-0.02

> <PUBCHEM_SHAPE_SELFOVERLAP>
393.046

> <PUBCHEM_SHAPE_VOLUME>
113.1

> <PUBCHEM_COORDINATE_TYPE>
2
5
10

$$$$
