197058
  -OEChem-11012400503D

 35 36  0     0  0  0  0  0  0999 V2000
   -0.0038    0.8100    1.3835 O   0  5  0  0  0  0  0  0  0  0  0  0
    0.3696    0.0711    0.4082 N   0  3  0  0  0  0  0  0  0  0  0  0
   -0.4114   -0.5520   -0.3936 N   0  0  0  0  0  0  0  0  0  0  0  0
    4.8912    1.8511    0.5874 N   0  0  0  0  0  0  0  0  0  0  0  0
   -4.5787    1.7465   -1.2793 N   0  0  0  0  0  0  0  0  0  0  0  0
    4.4936   -0.3756   -0.3287 C   0  0  0  0  0  0  0  0  0  0  0  0
    1.7951   -0.0832    0.1544 C   0  0  0  0  0  0  0  0  0  0  0  0
    4.0114    0.8004    0.2458 C   0  0  0  0  0  0  0  0  0  0  0  0
   -4.5433   -0.1992    0.1932 C   0  0  0  0  0  0  0  0  0  0  0  0
    2.6461    0.9483    0.4903 C   0  0  0  0  0  0  0  0  0  0  0  0
   -3.8765    0.7057   -0.6328 C   0  0  0  0  0  0  0  0  0  0  0  0
   -1.7911   -0.4339   -0.1978 C   0  0  0  0  0  0  0  0  0  0  0  0
    3.6106   -1.4037   -0.6590 C   0  0  0  0  0  0  0  0  0  0  0  0
    2.2453   -1.2557   -0.4145 C   0  0  0  0  0  0  0  0  0  0  0  0
   -2.5005    0.5883   -0.8282 C   0  0  0  0  0  0  0  0  0  0  0  0
   -3.8339   -1.2214    0.8239 C   0  0  0  0  0  0  0  0  0  0  0  0
   -2.4580   -1.3387    0.6283 C   0  0  0  0  0  0  0  0  0  0  0  0
    5.9510   -0.5606   -0.6016 C   0  0  0  0  0  0  0  0  0  0  0  0
   -6.0165   -0.0972    0.4204 C   0  0  0  0  0  0  0  0  0  0  0  0
    2.2735    1.8692    0.9308 H   0  0  0  0  0  0  0  0  0  0  0  0
    3.9696   -2.3276   -1.1047 H   0  0  0  0  0  0  0  0  0  0  0  0
    1.5798   -2.0749   -0.6689 H   0  0  0  0  0  0  0  0  0  0  0  0
   -1.9767    1.2917   -1.4719 H   0  0  0  0  0  0  0  0  0  0  0  0
   -4.3374   -1.9350    1.4707 H   0  0  0  0  0  0  0  0  0  0  0  0
   -1.9135   -2.1386    1.1235 H   0  0  0  0  0  0  0  0  0  0  0  0
    6.5263   -0.5053    0.3286 H   0  0  0  0  0  0  0  0  0  0  0  0
    6.1594   -1.5368   -1.0533 H   0  0  0  0  0  0  0  0  0  0  0  0
    6.3112    0.2022   -1.2998 H   0  0  0  0  0  0  0  0  0  0  0  0
   -6.2688    0.8643    0.8798 H   0  0  0  0  0  0  0  0  0  0  0  0
   -6.5595   -0.2042   -0.5245 H   0  0  0  0  0  0  0  0  0  0  0  0
   -6.3797   -0.8822    1.0930 H   0  0  0  0  0  0  0  0  0  0  0  0
    4.5228    2.6972    1.0018 H   0  0  0  0  0  0  0  0  0  0  0  0
    5.8847    1.7735    0.4204 H   0  0  0  0  0  0  0  0  0  0  0  0
   -5.5757    1.8563   -1.1576 H   0  0  0  0  0  0  0  0  0  0  0  0
   -4.0781    2.3928   -1.8752 H   0  0  0  0  0  0  0  0  0  0  0  0
  1  2  1  0  0  0  0
  2  3  2  0  0  0  0
  2  7  1  0  0  0  0
  3 12  1  0  0  0  0
  4  8  1  0  0  0  0
  4 32  1  0  0  0  0
  4 33  1  0  0  0  0
  5 11  1  0  0  0  0
  5 34  1  0  0  0  0
  5 35  1  0  0  0  0
  6  8  2  0  0  0  0
  6 13  1  0  0  0  0
  6 18  1  0  0  0  0
  7 10  2  0  0  0  0
  7 14  1  0  0  0  0
  8 10  1  0  0  0  0
  9 11  2  0  0  0  0
  9 16  1  0  0  0  0
  9 19  1  0  0  0  0
 10 20  1  0  0  0  0
 11 15  1  0  0  0  0
 12 15  2  0  0  0  0
 12 17  1  0  0  0  0
 13 14  2  0  0  0  0
 13 21  1  0  0  0  0
 14 22  1  0  0  0  0
 15 23  1  0  0  0  0
 16 17  2  0  0  0  0
 16 24  1  0  0  0  0
 17 25  1  0  0  0  0
 18 26  1  0  0  0  0
 18 27  1  0  0  0  0
 18 28  1  0  0  0  0
 19 29  1  0  0  0  0
 19 30  1  0  0  0  0
 19 31  1  0  0  0  0
M  CHG  2   1  -1   2   1
M  END
> <PUBCHEM_COMPOUND_CID>
197058

> <PUBCHEM_CONFORMER_RMSD>
0.6

> <PUBCHEM_CONFORMER_DIVERSEORDER>
4
5
9
11
6
8
12
7
10
1
2
3
13

> <PUBCHEM_MMFF94_PARTIAL_CHARGES>
29
1 -0.63
10 -0.15
11 0.1
12 0.18
13 -0.15
14 -0.15
15 -0.15
16 -0.15
17 -0.15
18 0.14
19 0.14
2 0.87
20 0.15
21 0.15
22 0.15
23 0.15
24 0.15
25 0.15
3 -0.39
32 0.4
33 0.4
34 0.4
35 0.4
4 -0.9
5 -0.9
6 -0.14
7 -0.03
8 0.1
9 -0.14

> <PUBCHEM_EFFECTIVE_ROTOR_COUNT>
2

> <PUBCHEM_PHARMACOPHORE_FEATURES>
7
1 1 anion
1 4 cation
1 4 donor
1 5 cation
1 5 donor
6 6 7 8 10 13 14 rings
6 9 11 12 15 16 17 rings

> <PUBCHEM_HEAVY_ATOM_COUNT>
19

> <PUBCHEM_ATOM_DEF_STEREO_COUNT>
0

> <PUBCHEM_ATOM_UDEF_STEREO_COUNT>
0

> <PUBCHEM_BOND_DEF_STEREO_COUNT>
0

> <PUBCHEM_BOND_UDEF_STEREO_COUNT>
0

> <PUBCHEM_ISOTOPIC_ATOM_COUNT>
0

> <PUBCHEM_COMPONENT_COUNT>
1

> <PUBCHEM_CACTVS_TAUTO_COUNT>
1

> <PUBCHEM_CONFORMER_ID>
000301C200000004

> <PUBCHEM_MMFF94_ENERGY>
79.0475

> <PUBCHEM_FEATURE_SELFOVERLAP>
35.52

> <PUBCHEM_SHAPE_FINGERPRINT>
10680689 15 18186805798657520651
11287383 113 18335140916365402824
11471102 20 18059856181940647738
12236239 1 15985106314555007827
12390115 104 18116435848090230517
12403259 415 18408601461349483740
12616971 3 16989124262025717540
12730499 353 18409454682805433890
12916748 109 17749111093122768937
13533116 47 11815631734888407268
13668630 136 17203612587967634199
13675066 3 18409450327254518770
13760787 5 17418094325640337256
14341114 176 18408891753920459241
14386348 63 18410296912606117035
14573314 32 18334858290305912487
15042514 8 17824273803094154347
15242439 84 18410012126346667366
15375358 24 18410009944397993770
15788980 27 18201717362162470894
15961568 22 17531812488697274948
17834072 33 17632293518668324079
17844677 252 18335426763439953476
18186145 218 18408887325803772618
19433438 28 18260829297573186605
19489759 90 17749107790382595443
200 152 17418094291275317850
20645477 56 18187364320546970143
20645477 70 18060142007492889470
21033648 29 18341036472149949713
21033650 10 16662065612355494318
21065201 7 17894347774136900882
21267235 1 18060430092729911670
221357 26 18272364257371237697
2297311 6 18114189622579164421
23175994 123 18202288009045628249
23402539 116 17095241419367872686
23402655 69 18060137652522144902
23536379 177 17603867776294851218
23557571 272 18113623360805096428
23559900 14 18410009919076394618
26918003 58 18343868822634870010
2916195 48 18260541251296759936
29717793 49 16630533916731278484
300161 21 16056876927214879122
34797466 226 18263099810896855054
3545911 37 18408044004601068799
4214541 1 18334013882740207341
5104073 3 17968656008758599953
5281201 14 18408608050061385692
5283173 99 18335699386494517193
542803 24 16415483757105490267
77779 3 18334576845262142799
90127 26 18187088372871611064

> <PUBCHEM_SHAPE_MULTIPOLES>
365.22
13.91
1.47
0.98
0.29
0.19
0
1.13
-0.97
0.33
-0.03
-0.37
0.16
1.7

> <PUBCHEM_SHAPE_SELFOVERLAP>
783.345

> <PUBCHEM_SHAPE_VOLUME>
202.7

> <PUBCHEM_COORDINATE_TYPE>
2
5
10

$$$$
