141557
  -OEChem-11012401103D

 31 32  0     1  0  0  0  0  0999 V2000
   -2.4666   -0.0783    0.3472 C   0  0  1  0  0  0  0  0  0  0  0  0
   -2.1050   -1.3777   -0.3781 C   0  0  0  0  0  0  0  0  0  0  0  0
   -1.4849    1.0318   -0.0572 C   0  0  0  0  0  0  0  0  0  0  0  0
   -0.7111   -1.8505    0.0321 C   0  0  0  0  0  0  0  0  0  0  0  0
   -0.0392    0.6020   -0.0056 C   0  0  0  0  0  0  0  0  0  0  0  0
    0.3253   -0.7564   -0.0043 C   0  0  0  0  0  0  0  0  0  0  0  0
   -3.9041    0.3367    0.0413 C   0  0  0  0  0  0  0  0  0  0  0  0
    0.9633    1.5839   -0.0179 C   0  0  0  0  0  0  0  0  0  0  0  0
    1.6845   -1.1049    0.0219 C   0  0  0  0  0  0  0  0  0  0  0  0
    2.3105    1.2245   -0.0024 C   0  0  0  0  0  0  0  0  0  0  0  0
    2.6709   -0.1194    0.0200 C   0  0  0  0  0  0  0  0  0  0  0  0
    0.6307    3.0421   -0.0580 C   0  0  0  0  0  0  0  0  0  0  0  0
    2.1257   -2.5339    0.0610 C   0  0  0  0  0  0  0  0  0  0  0  0
   -2.3848   -0.2481    1.4297 H   0  0  0  0  0  0  0  0  0  0  0  0
   -2.1370   -1.2184   -1.4642 H   0  0  0  0  0  0  0  0  0  0  0  0
   -2.8343   -2.1638   -0.1497 H   0  0  0  0  0  0  0  0  0  0  0  0
   -1.6542    1.8826    0.6133 H   0  0  0  0  0  0  0  0  0  0  0  0
   -1.7020    1.3633   -1.0811 H   0  0  0  0  0  0  0  0  0  0  0  0
   -0.4331   -2.6716   -0.6382 H   0  0  0  0  0  0  0  0  0  0  0  0
   -0.7546   -2.2490    1.0535 H   0  0  0  0  0  0  0  0  0  0  0  0
   -4.0517    0.5048   -1.0310 H   0  0  0  0  0  0  0  0  0  0  0  0
   -4.6077   -0.4388    0.3615 H   0  0  0  0  0  0  0  0  0  0  0  0
   -4.1615    1.2614    0.5683 H   0  0  0  0  0  0  0  0  0  0  0  0
    3.0924    1.9794   -0.0079 H   0  0  0  0  0  0  0  0  0  0  0  0
    3.7255   -0.3816    0.0359 H   0  0  0  0  0  0  0  0  0  0  0  0
    0.1679    3.3541    0.8837 H   0  0  0  0  0  0  0  0  0  0  0  0
    1.5238    3.6600   -0.2035 H   0  0  0  0  0  0  0  0  0  0  0  0
   -0.0451    3.2654   -0.8901 H   0  0  0  0  0  0  0  0  0  0  0  0
    3.2067   -2.6227    0.2173 H   0  0  0  0  0  0  0  0  0  0  0  0
    1.6437   -3.0684    0.8861 H   0  0  0  0  0  0  0  0  0  0  0  0
    1.8906   -3.0319   -0.8850 H   0  0  0  0  0  0  0  0  0  0  0  0
  1  2  1  0  0  0  0
  1  3  1  0  0  0  0
  1  7  1  0  0  0  0
  1 14  1  0  0  0  0
  2  4  1  0  0  0  0
  2 15  1  0  0  0  0
  2 16  1  0  0  0  0
  3  5  1  0  0  0  0
  3 17  1  0  0  0  0
  3 18  1  0  0  0  0
  4  6  1  0  0  0  0
  4 19  1  0  0  0  0
  4 20  1  0  0  0  0
  5  6  1  0  0  0  0
  5  8  2  0  0  0  0
  6  9  2  0  0  0  0
  7 21  1  0  0  0  0
  7 22  1  0  0  0  0
  7 23  1  0  0  0  0
  8 10  1  0  0  0  0
  8 12  1  0  0  0  0
  9 11  1  0  0  0  0
  9 13  1  0  0  0  0
 10 11  2  0  0  0  0
 10 24  1  0  0  0  0
 11 25  1  0  0  0  0
 12 26  1  0  0  0  0
 12 27  1  0  0  0  0
 12 28  1  0  0  0  0
 13 29  1  0  0  0  0
 13 30  1  0  0  0  0
 13 31  1  0  0  0  0
M  END
> <PUBCHEM_COMPOUND_CID>
141557

> <PUBCHEM_CONFORMER_RMSD>
0.4

> <PUBCHEM_CONFORMER_DIVERSEORDER>
1
2
3

> <PUBCHEM_MMFF94_PARTIAL_CHARGES>
12
10 -0.15
11 -0.15
12 0.14
13 0.14
24 0.15
25 0.15
3 0.14
4 0.14
5 -0.14
6 -0.14
8 -0.14
9 -0.14

> <PUBCHEM_EFFECTIVE_ROTOR_COUNT>
0.8

> <PUBCHEM_PHARMACOPHORE_FEATURES>
2
6 1 2 3 4 5 6 rings
6 5 6 8 9 10 11 rings

> <PUBCHEM_HEAVY_ATOM_COUNT>
13

> <PUBCHEM_ATOM_DEF_STEREO_COUNT>
0

> <PUBCHEM_ATOM_UDEF_STEREO_COUNT>
1

> <PUBCHEM_BOND_DEF_STEREO_COUNT>
0

> <PUBCHEM_BOND_UDEF_STEREO_COUNT>
0

> <PUBCHEM_ISOTOPIC_ATOM_COUNT>
0

> <PUBCHEM_COMPONENT_COUNT>
1

> <PUBCHEM_CACTVS_TAUTO_COUNT>
1

> <PUBCHEM_CONFORMER_ID>
000228F500000001

> <PUBCHEM_MMFF94_ENERGY>
31.0335

> <PUBCHEM_FEATURE_SELFOVERLAP>
10.17

> <PUBCHEM_SHAPE_FINGERPRINT>
10967382 1 18410856555355378275
10980938 120 18409731767924186689
11471102 20 18410007745680394637
12382932 28 18412257354828637546
12524768 44 18270967847053758110
13140716 1 18122906692166037417
13380535 21 18336277845822367851
13380535 76 18337104691203489531
13897977 150 18337950220356675093
14251717 144 18411131433837406839
14648413 74 18263927807397783113
15442244 35 18268712718988240243
15775835 57 18337679723058040157
161256 15 18338798901525583364
16945 1 18410291457918308973
17990270 104 18410292557456583426
193761 8 17978229687949908778
20201158 50 18408603660388505059
20588541 1 18335142007271291172
20645477 70 18410288091455616679
20871998 184 17767393587707109630
20871998 22 18125724483070857926
21130352 189 18337669698567382943
21501502 16 18338789130205959559
2334 1 17762056948854460641
23402655 69 18341603816276602829
23463225 33 18338517426253603451
23552423 10 18266739271525503055
23559900 14 18126300851341200868
241688 4 18194403281981213024
25 1 18334576883916712141
2748010 2 18194396693380204372
2897 32 18266459982518301996
528886 8 18411415154538590426
53812653 166 18342172314763384896
54173680 148 17401205569281975722
63268167 104 18410858758895140929
7364860 26 18342458170611791090
7832392 63 18413670223102001623
81228 2 17904768769361955544

> <PUBCHEM_SHAPE_MULTIPOLES>
267.53
4.44
2.8
0.64
3.12
0.64
0
-0.49
-0.11
-1.47
0.06
0.05
-0.02
-0.11

> <PUBCHEM_SHAPE_SELFOVERLAP>
562.109

> <PUBCHEM_SHAPE_VOLUME>
147.5

> <PUBCHEM_COORDINATE_TYPE>
2
5
10

$$$$
