5354173
  -OEChem-11012400573D

 25 24  0     0  0  0  0  0  0999 V2000
   -2.4605   -0.0643    0.5902 O   0  0  0  0  0  0  0  0  0  0  0  0
    1.9892    0.8682   -0.2729 O   0  0  0  0  0  0  0  0  0  0  0  0
    1.6310   -1.3942    0.0132 O   0  0  0  0  0  0  0  0  0  0  0  0
   -1.2045   -0.5092    0.2297 C   0  0  0  0  0  0  0  0  0  0  0  0
   -3.0696    0.6361   -0.4766 C   0  0  0  0  0  0  0  0  0  0  0  0
   -0.1010    0.2300    0.4213 C   0  0  0  0  0  0  0  0  0  0  0  0
    3.3414    0.6144   -0.6686 C   0  0  0  0  0  0  0  0  0  0  0  0
   -1.1595   -1.8724   -0.3902 C   0  0  0  0  0  0  0  0  0  0  0  0
   -4.4469    1.0920   -0.0445 C   0  0  0  0  0  0  0  0  0  0  0  0
    1.2539   -0.2340    0.0387 C   0  0  0  0  0  0  0  0  0  0  0  0
    4.2263    0.6333    0.5596 C   0  0  0  0  0  0  0  0  0  0  0  0
   -2.4721    1.5150   -0.7494 H   0  0  0  0  0  0  0  0  0  0  0  0
   -3.1668   -0.0100   -1.3578 H   0  0  0  0  0  0  0  0  0  0  0  0
   -0.1815    1.2261    0.8468 H   0  0  0  0  0  0  0  0  0  0  0  0
    3.4355   -0.3280   -1.2199 H   0  0  0  0  0  0  0  0  0  0  0  0
    3.6355    1.4188   -1.3506 H   0  0  0  0  0  0  0  0  0  0  0  0
   -0.7480   -2.6043    0.3121 H   0  0  0  0  0  0  0  0  0  0  0  0
   -0.5750   -1.8800   -1.3157 H   0  0  0  0  0  0  0  0  0  0  0  0
   -2.1674   -2.2119   -0.6540 H   0  0  0  0  0  0  0  0  0  0  0  0
   -4.9475    1.6401   -0.8477 H   0  0  0  0  0  0  0  0  0  0  0  0
   -5.0665    0.2341    0.2369 H   0  0  0  0  0  0  0  0  0  0  0  0
   -4.3805    1.7393    0.8363 H   0  0  0  0  0  0  0  0  0  0  0  0
    5.2761    0.4988    0.2838 H   0  0  0  0  0  0  0  0  0  0  0  0
    4.1220    1.5818    1.0967 H   0  0  0  0  0  0  0  0  0  0  0  0
    3.9450   -0.1608    1.2587 H   0  0  0  0  0  0  0  0  0  0  0  0
  1  4  1  0  0  0  0
  1  5  1  0  0  0  0
  2  7  1  0  0  0  0
  2 10  1  0  0  0  0
  3 10  2  0  0  0  0
  4  6  2  0  0  0  0
  4  8  1  0  0  0  0
  5  9  1  0  0  0  0
  5 12  1  0  0  0  0
  5 13  1  0  0  0  0
  6 10  1  0  0  0  0
  6 14  1  0  0  0  0
  7 11  1  0  0  0  0
  7 15  1  0  0  0  0
  7 16  1  0  0  0  0
  8 17  1  0  0  0  0
  8 18  1  0  0  0  0
  8 19  1  0  0  0  0
  9 20  1  0  0  0  0
  9 21  1  0  0  0  0
  9 22  1  0  0  0  0
 11 23  1  0  0  0  0
 11 24  1  0  0  0  0
 11 25  1  0  0  0  0
M  END
> <PUBCHEM_COMPOUND_CID>
5354173

> <PUBCHEM_CONFORMER_RMSD>
0.6

> <PUBCHEM_CONFORMER_DIVERSEORDER>
5
44
67
73
27
29
13
41
30
12
61
57
66
33
68
55
63
34
53
9
59
20
48
65
14
26
56
52
19
4
21
64
71
62
11
6
50
74
7
38
28
25
45
36
69
32
23
15
47
39
46
3
40
58
42
54
22
24
37
49
31
8
51
60
70
72
10
16
43
1
2
17
35
18

> <PUBCHEM_MMFF94_PARTIAL_CHARGES>
10
1 -0.36
10 0.71
14 0.15
2 -0.43
3 -0.57
4 -0.06
5 0.28
6 -0.14
7 0.28
8 0.14

> <PUBCHEM_EFFECTIVE_ROTOR_COUNT>
5

> <PUBCHEM_PHARMACOPHORE_FEATURES>
2
1 1 acceptor
1 3 acceptor

> <PUBCHEM_HEAVY_ATOM_COUNT>
11

> <PUBCHEM_ATOM_DEF_STEREO_COUNT>
0

> <PUBCHEM_ATOM_UDEF_STEREO_COUNT>
0

> <PUBCHEM_BOND_DEF_STEREO_COUNT>
1

> <PUBCHEM_BOND_UDEF_STEREO_COUNT>
0

> <PUBCHEM_ISOTOPIC_ATOM_COUNT>
0

> <PUBCHEM_COMPONENT_COUNT>
1

> <PUBCHEM_CACTVS_TAUTO_COUNT>
1

> <PUBCHEM_CONFORMER_ID>
0051B2BD00000005

> <PUBCHEM_MMFF94_ENERGY>
20.7879

> <PUBCHEM_FEATURE_SELFOVERLAP>
10.149

> <PUBCHEM_SHAPE_FINGERPRINT>
11062470 55 17846779606847687864
11543360 7 15267054874010406600
13380535 76 18411418414440302190
14252887 29 11458421315246528032
14325111 11 18410012109514905739
14897335 6 18412542111070918590
14993402 34 15123508129298940512
15775835 57 18411136926894739685
20279233 1 17418382419467541422
20645477 56 18411701014640240205
20645477 70 18271810051486025647
20671657 53 12679461988735730051
20871999 31 16558454379768784701
21293036 1 17346597482458741565
22485316 2 12319741340686749276
23402539 116 18201147806502096493
23402655 69 18272080544985461477
3248919 1 16916521340569877368
366044 4 18411980261008855243
42 15 14996280297190330648
6430166 295 18334290963823209188

> <PUBCHEM_SHAPE_MULTIPOLES>
208.77
7.65
1.4
0.75
0.04
0.63
-0.02
-3.99
-0.1
0.45
-0.15
-0.13
-0.04
0

> <PUBCHEM_SHAPE_SELFOVERLAP>
391.615

> <PUBCHEM_SHAPE_VOLUME>
131.3

> <PUBCHEM_COORDINATE_TYPE>
2
5
10

$$$$
