65432
  -OEChem-11012401133D

 12 12  0     0  0  0  0  0  0999 V2000
    0.7118    1.1792   -0.0622 O   0  0  0  0  0  0  0  0  0  0  0  0
   -0.7114   -1.1792   -0.0629 O   0  0  0  0  0  0  0  0  0  0  0  0
    2.5896   -0.0553   -0.3526 O   0  0  0  0  0  0  0  0  0  0  0  0
   -2.5897    0.0550   -0.3520 O   0  0  0  0  0  0  0  0  0  0  0  0
   -0.6168    1.1663    0.4505 C   0  0  0  0  0  0  0  0  0  0  0  0
    0.6166   -1.1660    0.4514 C   0  0  0  0  0  0  0  0  0  0  0  0
    1.4076    0.0162   -0.0359 C   0  0  0  0  0  0  0  0  0  0  0  0
   -1.4076   -0.0163   -0.0362 C   0  0  0  0  0  0  0  0  0  0  0  0
   -1.1065    2.0780    0.0945 H   0  0  0  0  0  0  0  0  0  0  0  0
   -0.5983    1.1861    1.5448 H   0  0  0  0  0  0  0  0  0  0  0  0
    1.1067   -2.0780    0.0968 H   0  0  0  0  0  0  0  0  0  0  0  0
    0.5969   -1.1847    1.5457 H   0  0  0  0  0  0  0  0  0  0  0  0
  1  5  1  0  0  0  0
  1  7  1  0  0  0  0
  2  6  1  0  0  0  0
  2  8  1  0  0  0  0
  3  7  2  0  0  0  0
  4  8  2  0  0  0  0
  5  8  1  0  0  0  0
  5  9  1  0  0  0  0
  5 10  1  0  0  0  0
  6  7  1  0  0  0  0
  6 11  1  0  0  0  0
  6 12  1  0  0  0  0
M  END
> <PUBCHEM_COMPOUND_CID>
65432

> <PUBCHEM_CONFORMER_RMSD>
0.4

> <PUBCHEM_CONFORMER_DIVERSEORDER>
1
2

> <PUBCHEM_MMFF94_PARTIAL_CHARGES>
8
1 -0.43
2 -0.43
3 -0.57
4 -0.57
5 0.34
6 0.34
7 0.66
8 0.66

> <PUBCHEM_EFFECTIVE_ROTOR_COUNT>
0.8

> <PUBCHEM_PHARMACOPHORE_FEATURES>
3
1 3 acceptor
1 4 acceptor
6 1 2 5 6 7 8 rings

> <PUBCHEM_HEAVY_ATOM_COUNT>
8

> <PUBCHEM_ATOM_DEF_STEREO_COUNT>
0

> <PUBCHEM_ATOM_UDEF_STEREO_COUNT>
0

> <PUBCHEM_BOND_DEF_STEREO_COUNT>
0

> <PUBCHEM_BOND_UDEF_STEREO_COUNT>
0

> <PUBCHEM_ISOTOPIC_ATOM_COUNT>
0

> <PUBCHEM_COMPONENT_COUNT>
1

> <PUBCHEM_CACTVS_TAUTO_COUNT>
1

> <PUBCHEM_CONFORMER_ID>
0000FF9800000001

> <PUBCHEM_MMFF94_ENERGY>
13.671

> <PUBCHEM_FEATURE_SELFOVERLAP>
15.223

> <PUBCHEM_SHAPE_FINGERPRINT>
16714656 1 18413393120164601990
18185500 45 18410288082084628827
20096714 4 18336263526200793539
21040471 1 18408599275163475395
23552423 10 18118973477244111438
29004967 10 17168152208289794792

> <PUBCHEM_SHAPE_MULTIPOLES>
141.16
2.76
1.25
0.65
0
0
-0.05
0
0.52
0
-0.14
0
0
-0.12

> <PUBCHEM_SHAPE_SELFOVERLAP>
286.054

> <PUBCHEM_SHAPE_VOLUME>
81.2

> <PUBCHEM_COORDINATE_TYPE>
2
5
10

$$$$
