143147
  -OEChem-11012400533D

 25 24  0     0  0  0  0  0  0999 V2000
    0.0183    0.0120   -0.1599 N   0  0  0  0  0  0  0  0  0  0  0  0
   -0.0184   -1.1558    0.5428 N   0  0  0  0  0  0  0  0  0  0  0  0
    1.2122    0.8255    0.0370 C   0  0  0  0  0  0  0  0  0  0  0  0
   -1.1742    0.8446    0.0472 C   0  0  0  0  0  0  0  0  0  0  0  0
    2.4679   -0.0168   -0.1727 C   0  0  0  0  0  0  0  0  0  0  0  0
   -2.4403    0.0157   -0.1534 C   0  0  0  0  0  0  0  0  0  0  0  0
    3.7289    0.8043    0.0482 C   0  0  0  0  0  0  0  0  0  0  0  0
   -3.6909    0.8606    0.0345 C   0  0  0  0  0  0  0  0  0  0  0  0
   -0.1035   -2.1902   -0.2237 C   0  0  0  0  0  0  0  0  0  0  0  0
    1.2201    1.6612   -0.6737 H   0  0  0  0  0  0  0  0  0  0  0  0
    1.2284    1.2493    1.0496 H   0  0  0  0  0  0  0  0  0  0  0  0
   -1.1767    1.2693    1.0596 H   0  0  0  0  0  0  0  0  0  0  0  0
   -1.1737    1.6781   -0.6660 H   0  0  0  0  0  0  0  0  0  0  0  0
    2.4992   -0.8634    0.5230 H   0  0  0  0  0  0  0  0  0  0  0  0
    2.4821   -0.4279   -1.1896 H   0  0  0  0  0  0  0  0  0  0  0  0
   -2.4542   -0.4189   -1.1603 H   0  0  0  0  0  0  0  0  0  0  0  0
   -2.4957   -0.8110    0.5644 H   0  0  0  0  0  0  0  0  0  0  0  0
    3.7748    1.6477   -0.6482 H   0  0  0  0  0  0  0  0  0  0  0  0
    3.7673    1.1984    1.0688 H   0  0  0  0  0  0  0  0  0  0  0  0
    4.6175    0.1850   -0.1102 H   0  0  0  0  0  0  0  0  0  0  0  0
   -3.7319    1.2825    1.0439 H   0  0  0  0  0  0  0  0  0  0  0  0
   -3.7188    1.6857   -0.6844 H   0  0  0  0  0  0  0  0  0  0  0  0
   -4.5872    0.2503   -0.1151 H   0  0  0  0  0  0  0  0  0  0  0  0
   -0.1418   -3.1957    0.2235 H   0  0  0  0  0  0  0  0  0  0  0  0
   -0.1402   -2.1356   -1.3262 H   0  0  0  0  0  0  0  0  0  0  0  0
  1  2  1  0  0  0  0
  1  3  1  0  0  0  0
  1  4  1  0  0  0  0
  2  9  2  0  0  0  0
  3  5  1  0  0  0  0
  3 10  1  0  0  0  0
  3 11  1  0  0  0  0
  4  6  1  0  0  0  0
  4 12  1  0  0  0  0
  4 13  1  0  0  0  0
  5  7  1  0  0  0  0
  5 14  1  0  0  0  0
  5 15  1  0  0  0  0
  6  8  1  0  0  0  0
  6 16  1  0  0  0  0
  6 17  1  0  0  0  0
  7 18  1  0  0  0  0
  7 19  1  0  0  0  0
  7 20  1  0  0  0  0
  8 21  1  0  0  0  0
  8 22  1  0  0  0  0
  8 23  1  0  0  0  0
  9 24  1  0  0  0  0
  9 25  1  0  0  0  0
M  END
> <PUBCHEM_COMPOUND_CID>
143147

> <PUBCHEM_CONFORMER_RMSD>
0.6

> <PUBCHEM_CONFORMER_DIVERSEORDER>
1
8
27
15
21
22
20
17
16
24
2
11
13
4
25
23
18
19
3
26
12
6
10
5
7
9
14

> <PUBCHEM_MMFF94_PARTIAL_CHARGES>
7
1 -0.49
2 -0.5
24 0.06
25 0.06
3 0.27
4 0.27
9 0.33

> <PUBCHEM_EFFECTIVE_ROTOR_COUNT>
5

> <PUBCHEM_PHARMACOPHORE_FEATURES>
3
1 2 acceptor
1 7 hydrophobe
1 8 hydrophobe

> <PUBCHEM_HEAVY_ATOM_COUNT>
9

> <PUBCHEM_ATOM_DEF_STEREO_COUNT>
0

> <PUBCHEM_ATOM_UDEF_STEREO_COUNT>
0

> <PUBCHEM_BOND_DEF_STEREO_COUNT>
0

> <PUBCHEM_BOND_UDEF_STEREO_COUNT>
0

> <PUBCHEM_ISOTOPIC_ATOM_COUNT>
0

> <PUBCHEM_COMPONENT_COUNT>
1

> <PUBCHEM_CACTVS_TAUTO_COUNT>
1

> <PUBCHEM_CONFORMER_ID>
00022F2B00000001

> <PUBCHEM_MMFF94_ENERGY>
5.9292

> <PUBCHEM_FEATURE_SELFOVERLAP>
15.223

> <PUBCHEM_SHAPE_FINGERPRINT>
10219947 1 18113621161950814461
11062470 55 16343704339530715928
12346645 44 18341333293013004425
14325111 11 18410292510174870428
15775835 57 18408321085842066308
18342897 55 18338785754688712933
19021347 11 18337670810916621731
21040471 1 18410572928642321810
23235685 24 18409162212263760181
23402539 116 18272641355628411980
23402655 69 18268414764834373717
366044 4 18410573993936701018
528862 383 18041550330918768962
6333449 129 18269271429608571166

> <PUBCHEM_SHAPE_MULTIPOLES>
175.25
5.58
1.61
0.64
0.26
1.16
0
-2.81
0.09
-0.1
0.02
0
0.03
0

> <PUBCHEM_SHAPE_SELFOVERLAP>
311.871

> <PUBCHEM_SHAPE_VOLUME>
114.9

> <PUBCHEM_COORDINATE_TYPE>
2
5
10

$$$$
