497266
  -OEChem-11012401053D

 36 35  0     1  0  0  0  0  0999 V2000
    4.0307    1.3672    1.5971 O   0  0  0  0  0  0  0  0  0  0  0  0
   -4.0338    1.3717   -1.5915 O   0  0  0  0  0  0  0  0  0  0  0  0
    2.9359    2.2862   -0.1643 O   0  0  0  0  0  0  0  0  0  0  0  0
   -2.9339    2.2851    0.1695 O   0  0  0  0  0  0  0  0  0  0  0  0
    6.2821   -1.6001   -1.1156 O   0  0  0  0  0  0  0  0  0  0  0  0
   -6.2788   -1.6028    1.1186 O   0  0  0  0  0  0  0  0  0  0  0  0
    5.5706   -1.0949    0.9858 O   0  0  0  0  0  0  0  0  0  0  0  0
   -5.5730   -1.0916   -0.9832 O   0  0  0  0  0  0  0  0  0  0  0  0
    1.7497   -0.1489   -0.6378 N   0  0  0  0  0  0  0  0  0  0  0  0
   -1.7535   -0.1518    0.6295 N   0  0  0  0  0  0  0  0  0  0  0  0
    0.6773   -0.1397    0.3445 C   0  0  0  0  0  0  0  0  0  0  0  0
   -0.6780   -0.1431   -0.3561 C   0  0  0  0  0  0  0  0  0  0  0  0
    3.0556   -0.1444    0.0215 C   0  0  1  0  0  0  0  0  0  0  0  0
   -3.0549   -0.1449   -0.0231 C   0  0  1  0  0  0  0  0  0  0  0  0
    4.1238   -0.6821   -0.9390 C   0  0  0  0  0  0  0  0  0  0  0  0
   -4.1206   -0.6852    0.9387 C   0  0  0  0  0  0  0  0  0  0  0  0
    3.3215    1.2933    0.4386 C   0  0  0  0  0  0  0  0  0  0  0  0
   -3.3216    1.2941   -0.4353 C   0  0  0  0  0  0  0  0  0  0  0  0
    5.3743   -1.1338   -0.2195 C   0  0  0  0  0  0  0  0  0  0  0  0
   -5.3733   -1.1343    0.2214 C   0  0  0  0  0  0  0  0  0  0  0  0
    0.7429    0.7483    0.9852 H   0  0  0  0  0  0  0  0  0  0  0  0
    0.7506   -1.0234    0.9919 H   0  0  0  0  0  0  0  0  0  0  0  0
   -0.7509   -1.0296   -0.9994 H   0  0  0  0  0  0  0  0  0  0  0  0
   -0.7477    0.7427   -0.9995 H   0  0  0  0  0  0  0  0  0  0  0  0
    3.0186   -0.7775    0.9175 H   0  0  0  0  0  0  0  0  0  0  0  0
   -3.0228   -0.7748   -0.9216 H   0  0  0  0  0  0  0  0  0  0  0  0
    1.6545   -0.9839   -1.2158 H   0  0  0  0  0  0  0  0  0  0  0  0
   -1.6550   -0.9858    1.2081 H   0  0  0  0  0  0  0  0  0  0  0  0
    4.4055    0.0851   -1.6698 H   0  0  0  0  0  0  0  0  0  0  0  0
    3.7444   -1.5613   -1.4750 H   0  0  0  0  0  0  0  0  0  0  0  0
   -4.4002    0.0800    1.6727 H   0  0  0  0  0  0  0  0  0  0  0  0
   -3.7405   -1.5662    1.4712 H   0  0  0  0  0  0  0  0  0  0  0  0
    4.1904    2.2963    1.8683 H   0  0  0  0  0  0  0  0  0  0  0  0
   -4.1940    2.3016   -1.8596 H   0  0  0  0  0  0  0  0  0  0  0  0
    7.1072   -1.8998   -0.6778 H   0  0  0  0  0  0  0  0  0  0  0  0
   -7.1053   -1.9009    0.6821 H   0  0  0  0  0  0  0  0  0  0  0  0
  1 17  1  0  0  0  0
  1 33  1  0  0  0  0
  2 18  1  0  0  0  0
  2 34  1  0  0  0  0
  3 17  2  0  0  0  0
  4 18  2  0  0  0  0
  5 19  1  0  0  0  0
  5 35  1  0  0  0  0
  6 20  1  0  0  0  0
  6 36  1  0  0  0  0
  7 19  2  0  0  0  0
  8 20  2  0  0  0  0
  9 11  1  0  0  0  0
  9 13  1  0  0  0  0
  9 27  1  0  0  0  0
 10 12  1  0  0  0  0
 10 14  1  0  0  0  0
 10 28  1  0  0  0  0
 11 12  1  0  0  0  0
 11 21  1  0  0  0  0
 11 22  1  0  0  0  0
 12 23  1  0  0  0  0
 12 24  1  0  0  0  0
 13 15  1  0  0  0  0
 13 17  1  0  0  0  0
 13 25  1  0  0  0  0
 14 16  1  0  0  0  0
 14 18  1  0  0  0  0
 14 26  1  0  0  0  0
 15 19  1  0  0  0  0
 15 29  1  0  0  0  0
 15 30  1  0  0  0  0
 16 20  1  0  0  0  0
 16 31  1  0  0  0  0
 16 32  1  0  0  0  0
M  END
> <PUBCHEM_COMPOUND_CID>
497266

> <PUBCHEM_CONFORMER_RMSD>
1

> <PUBCHEM_CONFORMER_DIVERSEORDER>
1
4
5
3
7
8
2
9
6

> <PUBCHEM_MMFF94_PARTIAL_CHARGES>
26
1 -0.65
10 -0.9
11 0.27
12 0.27
13 0.33
14 0.33
15 0.06
16 0.06
17 0.66
18 0.66
19 0.66
2 -0.65
20 0.66
27 0.36
28 0.36
3 -0.57
33 0.5
34 0.5
35 0.5
36 0.5
4 -0.57
5 -0.65
6 -0.65
7 -0.57
8 -0.57
9 -0.9

> <PUBCHEM_EFFECTIVE_ROTOR_COUNT>
11

> <PUBCHEM_PHARMACOPHORE_FEATURES>
16
1 1 acceptor
1 10 cation
1 10 donor
1 2 acceptor
1 3 acceptor
1 4 acceptor
1 5 acceptor
1 6 acceptor
1 7 acceptor
1 8 acceptor
1 9 cation
1 9 donor
3 1 3 17 anion
3 2 4 18 anion
3 5 7 19 anion
3 6 8 20 anion

> <PUBCHEM_HEAVY_ATOM_COUNT>
20

> <PUBCHEM_ATOM_DEF_STEREO_COUNT>
2

> <PUBCHEM_ATOM_UDEF_STEREO_COUNT>
0

> <PUBCHEM_BOND_DEF_STEREO_COUNT>
0

> <PUBCHEM_BOND_UDEF_STEREO_COUNT>
0

> <PUBCHEM_ISOTOPIC_ATOM_COUNT>
0

> <PUBCHEM_COMPONENT_COUNT>
1

> <PUBCHEM_CACTVS_TAUTO_COUNT>
1

> <PUBCHEM_CONFORMER_ID>
0007967200000001

> <PUBCHEM_MMFF94_ENERGY>
16.7246

> <PUBCHEM_FEATURE_SELFOVERLAP>
81.438

> <PUBCHEM_SHAPE_FINGERPRINT>
10366900 7 16877944936112175424
11545043 162 18408603634650408288
12166972 35 17894636967180639173
12403259 415 18410853265400126884
12616971 3 16630805516982141460
1420 363 18334579061861081955
14341114 176 18410578417594792816
15183329 4 15936692576038656058
15788980 27 17418089893228910540
17844677 252 18411705382627378456
18222031 100 16950563315365823191
18927931 339 18260834795943897199
19433438 28 18411418410134499665
19489759 90 17967248685404084419
20645477 70 18130794456035717542
21150785 3 16877951563547419438
2297311 6 18260274049092115535
23402539 116 18334295362418060791
23557571 272 18333738992180509365
23559900 14 17968661639175991633
29717793 49 14490464271500686442
3545911 37 18187927227640558221
4214541 1 18408605833837077125
465052 167 18273219664912541062
5104073 3 18343300349132071056
5281201 14 18412266142384914204
59755656 215 18259984851469463699
7495541 125 17417528128559927667
90127 26 17749113296262169800

> <PUBCHEM_SHAPE_MULTIPOLES>
354.67
16.49
1.87
1.14
0.01
0.88
0
-7.87
0.01
0
0
0
0.02
1.7

> <PUBCHEM_SHAPE_SELFOVERLAP>
695.344

> <PUBCHEM_SHAPE_VOLUME>
210.2

> <PUBCHEM_COORDINATE_TYPE>
2
5
10

$$$$
