8631
  -OEChem-11012401073D

 16 16  0     0  0  0  0  0  0999 V2000
    2.1427    3.0421    0.1116 I   0  0  0  0  0  0  0  0  0  0  0  0
    2.6743   -2.9272   -0.1153 I   0  0  0  0  0  0  0  0  0  0  0  0
   -0.9752    2.1225    0.0683 O   0  0  0  0  0  0  0  0  0  0  0  0
   -2.5730   -1.5782    0.5507 O   0  0  0  0  0  0  0  0  0  0  0  0
   -2.9926    0.3895   -0.5070 O   0  0  0  0  0  0  0  0  0  0  0  0
   -0.7369   -0.2429   -0.0217 C   0  0  0  0  0  0  0  0  0  0  0  0
   -0.1615    1.0268    0.0285 C   0  0  0  0  0  0  0  0  0  0  0  0
    0.0759   -1.3758   -0.0629 C   0  0  0  0  0  0  0  0  0  0  0  0
    1.2266    1.1636    0.0374 C   0  0  0  0  0  0  0  0  0  0  0  0
    1.4640   -1.2389   -0.0539 C   0  0  0  0  0  0  0  0  0  0  0  0
    2.0394    0.0308   -0.0038 C   0  0  0  0  0  0  0  0  0  0  0  0
   -2.1838   -0.4122   -0.0319 C   0  0  0  0  0  0  0  0  0  0  0  0
   -0.3623   -2.3700   -0.1162 H   0  0  0  0  0  0  0  0  0  0  0  0
    3.1224    0.1347    0.0031 H   0  0  0  0  0  0  0  0  0  0  0  0
   -1.9073    1.8665    0.1469 H   0  0  0  0  0  0  0  0  0  0  0  0
   -3.5482   -1.6846    0.5388 H   0  0  0  0  0  0  0  0  0  0  0  0
  1  9  1  0  0  0  0
  2 10  1  0  0  0  0
  3  7  1  0  0  0  0
  3 15  1  0  0  0  0
  4 12  1  0  0  0  0
  4 16  1  0  0  0  0
  5 12  2  0  0  0  0
  6  7  2  0  0  0  0
  6  8  1  0  0  0  0
  6 12  1  0  0  0  0
  7  9  1  0  0  0  0
  8 10  2  0  0  0  0
  8 13  1  0  0  0  0
  9 11  2  0  0  0  0
 10 11  1  0  0  0  0
 11 14  1  0  0  0  0
M  END
> <PUBCHEM_COMPOUND_CID>
8631

> <PUBCHEM_CONFORMER_RMSD>
0.4

> <PUBCHEM_CONFORMER_DIVERSEORDER>
2
3
1

> <PUBCHEM_MMFF94_PARTIAL_CHARGES>
16
1 -0.08
10 0.08
11 -0.15
12 0.63
13 0.15
14 0.15
15 0.45
16 0.5
2 -0.08
3 -0.53
4 -0.65
5 -0.57
6 0.09
7 0.08
8 -0.15
9 0.08

> <PUBCHEM_EFFECTIVE_ROTOR_COUNT>
1

> <PUBCHEM_PHARMACOPHORE_FEATURES>
7
1 1 hydrophobe
1 2 hydrophobe
1 3 donor
1 4 acceptor
1 5 acceptor
3 4 5 12 anion
6 6 7 8 9 10 11 rings

> <PUBCHEM_HEAVY_ATOM_COUNT>
12

> <PUBCHEM_ATOM_DEF_STEREO_COUNT>
0

> <PUBCHEM_ATOM_UDEF_STEREO_COUNT>
0

> <PUBCHEM_BOND_DEF_STEREO_COUNT>
0

> <PUBCHEM_BOND_UDEF_STEREO_COUNT>
0

> <PUBCHEM_ISOTOPIC_ATOM_COUNT>
0

> <PUBCHEM_COMPONENT_COUNT>
1

> <PUBCHEM_CACTVS_TAUTO_COUNT>
4

> <PUBCHEM_CONFORMER_ID>
000021B700000002

> <PUBCHEM_MMFF94_ENERGY>
33.7756

> <PUBCHEM_FEATURE_SELFOVERLAP>
35.578

> <PUBCHEM_SHAPE_FINGERPRINT>
1 1 18267304420612819942
12138202 78 18410851049297099156
13380535 76 17764026165890429860
14648413 74 18408601465670610481
14817 1 12573523244830962548
15042514 8 17040072611922051330
16945 1 18411421721680709904
17990270 104 18409726261686773746
193761 8 18339081488788378624
19591789 44 17978237389401393918
20510252 161 16973917724619828386
20645476 183 17465106337994524404
20645477 70 18337100276599867903
20711985 344 17617373979250927554
20871998 184 17184195479035441922
21040471 1 17834675272511326116
21501502 16 18268434529429512772
21524375 3 17830729116784249104
2334 1 17835238226933573686
23402539 116 17477750295863196596
23552423 10 18410015454729946518
23559900 14 17548973361525955158
241688 4 18050567339936485464
2748010 2 17977390752335997886
3071541 12 18411985775557095652
7364860 26 18412262852650520172
81228 2 17692819185856933322

> <PUBCHEM_SHAPE_MULTIPOLES>
253.22
4.07
3.82
0.69
0.53
3.68
0
-3.59
-0.23
1.57
0.24
0.07
-0.01
0.18

> <PUBCHEM_SHAPE_SELFOVERLAP>
491.511

> <PUBCHEM_SHAPE_VOLUME>
159.4

> <PUBCHEM_COORDINATE_TYPE>
2
5
10

$$$$
