23356
  -OEChem-11012401043D

 22 21  0     0  0  0  0  0  0999 V2000
    2.0273   -0.2534   -0.3186 N   0  0  0  0  0  0  0  0  0  0  0  0
    3.2241   -0.5139   -0.0992 N   0  3  0  0  0  0  0  0  0  0  0  0
    4.3205   -0.7591    0.0983 N   0  5  0  0  0  0  0  0  0  0  0  0
   -0.9061    0.1677    0.3269 C   0  0  0  0  0  0  0  0  0  0  0  0
   -2.3383    0.3969   -0.1603 C   0  0  0  0  0  0  0  0  0  0  0  0
    0.0838    1.2291   -0.1667 C   0  0  0  0  0  0  0  0  0  0  0  0
   -3.2633   -0.7348    0.2900 C   0  0  0  0  0  0  0  0  0  0  0  0
    1.5328    1.0007    0.2513 C   0  0  0  0  0  0  0  0  0  0  0  0
   -4.6807   -0.5331   -0.2217 C   0  0  0  0  0  0  0  0  0  0  0  0
   -0.8932    0.1477    1.4236 H   0  0  0  0  0  0  0  0  0  0  0  0
   -0.5728   -0.8212   -0.0105 H   0  0  0  0  0  0  0  0  0  0  0  0
   -2.7079    1.3555    0.2229 H   0  0  0  0  0  0  0  0  0  0  0  0
   -2.3453    0.4615   -1.2552 H   0  0  0  0  0  0  0  0  0  0  0  0
   -0.2365    2.2105    0.2039 H   0  0  0  0  0  0  0  0  0  0  0  0
    0.0348    1.2749   -1.2621 H   0  0  0  0  0  0  0  0  0  0  0  0
   -2.8842   -1.6956   -0.0774 H   0  0  0  0  0  0  0  0  0  0  0  0
   -3.2787   -0.7892    1.3847 H   0  0  0  0  0  0  0  0  0  0  0  0
    1.6029    0.9705    1.3453 H   0  0  0  0  0  0  0  0  0  0  0  0
    2.1443    1.8398   -0.1022 H   0  0  0  0  0  0  0  0  0  0  0  0
   -4.7033   -0.5090   -1.3158 H   0  0  0  0  0  0  0  0  0  0  0  0
   -5.3249   -1.3522    0.1133 H   0  0  0  0  0  0  0  0  0  0  0  0
   -5.1025    0.4054    0.1518 H   0  0  0  0  0  0  0  0  0  0  0  0
  1  2  2  0  0  0  0
  1  8  1  0  0  0  0
  2  3  2  0  0  0  0
  4  5  1  0  0  0  0
  4  6  1  0  0  0  0
  4 10  1  0  0  0  0
  4 11  1  0  0  0  0
  5  7  1  0  0  0  0
  5 12  1  0  0  0  0
  5 13  1  0  0  0  0
  6  8  1  0  0  0  0
  6 14  1  0  0  0  0
  6 15  1  0  0  0  0
  7  9  1  0  0  0  0
  7 16  1  0  0  0  0
  7 17  1  0  0  0  0
  8 18  1  0  0  0  0
  8 19  1  0  0  0  0
  9 20  1  0  0  0  0
  9 21  1  0  0  0  0
  9 22  1  0  0  0  0
M  CHG  2   2   1   3  -1
M  END
> <PUBCHEM_COMPOUND_CID>
23356

> <PUBCHEM_CONFORMER_RMSD>
0.6

> <PUBCHEM_CONFORMER_DIVERSEORDER>
1
123
108
84
95
11
120
121
3
117
92
97
44
124
109
7
54
91
98
126
107
119
90
118
4
53
9
64
96
86
63
99
12
102
61
125
114
5
106
32
70
115
37
20
55
122
58
6
74
71
88
47
60
16
112
42
30
36
82
93
116
31
50
73
59
41
19
69
76
89
2
80
34
46
111
77
14
57
21
62
49
113
48
51
35
81
104
23
68
26
65
29
83
22
79
110
45
28
10
87
100
15
85
8
67
94
103
38
66
105
13
72
24
39
25
56
101
78
75
52
33
43
40
18
17
27

> <PUBCHEM_MMFF94_PARTIAL_CHARGES>
4
1 -0.56
2 0.69
3 -0.37
8 0.25

> <PUBCHEM_EFFECTIVE_ROTOR_COUNT>
5

> <PUBCHEM_PHARMACOPHORE_FEATURES>
2
1 9 hydrophobe
4 4 5 6 7 hydrophobe

> <PUBCHEM_HEAVY_ATOM_COUNT>
9

> <PUBCHEM_ATOM_DEF_STEREO_COUNT>
0

> <PUBCHEM_ATOM_UDEF_STEREO_COUNT>
0

> <PUBCHEM_BOND_DEF_STEREO_COUNT>
0

> <PUBCHEM_BOND_UDEF_STEREO_COUNT>
0

> <PUBCHEM_ISOTOPIC_ATOM_COUNT>
0

> <PUBCHEM_COMPONENT_COUNT>
1

> <PUBCHEM_CACTVS_TAUTO_COUNT>
1

> <PUBCHEM_CONFORMER_ID>
00005B3C00000001

> <PUBCHEM_MMFF94_ENERGY>
-1.769

> <PUBCHEM_FEATURE_SELFOVERLAP>
10.149

> <PUBCHEM_SHAPE_FINGERPRINT>
11062470 55 11240002252367468743
12932764 1 15719940454207125721
14252887 29 17632304453855526326
14390081 3 9295299330612747113
177051 138 18130791165494448831
20201158 50 18408327678685749403
20211469 26 18343584044917680513
20605781 2 9007056863970055943
20645477 70 18410292540498279919
20871998 22 17988092084202800404
21119208 17 15574715793867796399
21293036 1 15213301936787954893
22485316 2 18408318895398189387
23402655 69 11602807026427758987

> <PUBCHEM_SHAPE_MULTIPOLES>
170.27
8.53
1.09
0.64
0.45
0.2
-0.01
-3.9
0.34
-0.31
-0.01
0.12
0.02
0.09

> <PUBCHEM_SHAPE_SELFOVERLAP>
301.807

> <PUBCHEM_SHAPE_VOLUME>
109.5

> <PUBCHEM_COORDINATE_TYPE>
2
5
10

$$$$
