136124
  -OEChem-11012401213D

 25 26  0     1  0  0  0  0  0999 V2000
   -1.2521   -0.6977   -0.4886 C   0  0  2  0  0  0  0  0  0  0  0  0
   -1.2238    0.8071   -0.3630 C   0  0  1  0  0  0  0  0  0  0  0  0
   -2.4353    0.0372    0.0889 C   0  0  0  0  0  0  0  0  0  0  0  0
   -0.4650   -1.6127    0.3991 C   0  0  0  0  0  0  0  0  0  0  0  0
   -0.3422    1.4895    0.6324 C   0  0  0  0  0  0  0  0  0  0  0  0
    0.9856   -1.7905   -0.0463 C   0  0  0  0  0  0  0  0  0  0  0  0
    1.0432    1.7886    0.0640 C   0  0  0  0  0  0  0  0  0  0  0  0
    1.9234   -0.6276    0.3026 C   0  0  0  0  0  0  0  0  0  0  0  0
    1.7663    0.6062   -0.5892 C   0  0  0  0  0  0  0  0  0  0  0  0
   -1.3622   -1.1048   -1.4881 H   0  0  0  0  0  0  0  0  0  0  0  0
   -1.3310    1.3879   -1.2731 H   0  0  0  0  0  0  0  0  0  0  0  0
   -3.3298    0.1038   -0.5190 H   0  0  0  0  0  0  0  0  0  0  0  0
   -2.6280   -0.0406    1.1521 H   0  0  0  0  0  0  0  0  0  0  0  0
   -0.9538   -2.5948    0.3628 H   0  0  0  0  0  0  0  0  0  0  0  0
   -0.5008   -1.3018    1.4492 H   0  0  0  0  0  0  0  0  0  0  0  0
   -0.2492    0.9123    1.5582 H   0  0  0  0  0  0  0  0  0  0  0  0
   -0.8122    2.4378    0.9207 H   0  0  0  0  0  0  0  0  0  0  0  0
    1.0333   -2.0022   -1.1215 H   0  0  0  0  0  0  0  0  0  0  0  0
    1.3755   -2.6824    0.4613 H   0  0  0  0  0  0  0  0  0  0  0  0
    1.6692    2.1955    0.8678 H   0  0  0  0  0  0  0  0  0  0  0  0
    0.9548    2.5839   -0.6873 H   0  0  0  0  0  0  0  0  0  0  0  0
    2.9470   -1.0006    0.1630 H   0  0  0  0  0  0  0  0  0  0  0  0
    1.8417   -0.3689    1.3645 H   0  0  0  0  0  0  0  0  0  0  0  0
    2.7702    0.9606   -0.8587 H   0  0  0  0  0  0  0  0  0  0  0  0
    1.2853    0.3438   -1.5387 H   0  0  0  0  0  0  0  0  0  0  0  0
  1  2  1  0  0  0  0
  1  3  1  0  0  0  0
  1  4  1  0  0  0  0
  1 10  1  0  0  0  0
  2  3  1  0  0  0  0
  2  5  1  0  0  0  0
  2 11  1  0  0  0  0
  3 12  1  0  0  0  0
  3 13  1  0  0  0  0
  4  6  1  0  0  0  0
  4 14  1  0  0  0  0
  4 15  1  0  0  0  0
  5  7  1  0  0  0  0
  5 16  1  0  0  0  0
  5 17  1  0  0  0  0
  6  8  1  0  0  0  0
  6 18  1  0  0  0  0
  6 19  1  0  0  0  0
  7  9  1  0  0  0  0
  7 20  1  0  0  0  0
  7 21  1  0  0  0  0
  8  9  1  0  0  0  0
  8 22  1  0  0  0  0
  8 23  1  0  0  0  0
  9 24  1  0  0  0  0
  9 25  1  0  0  0  0
M  END
> <PUBCHEM_COMPOUND_CID>
136124

> <PUBCHEM_CONFORMER_RMSD>
0.4

> <PUBCHEM_CONFORMER_DIVERSEORDER>
1
6
3
5
4
2

> <PUBCHEM_MMFF94_PARTIAL_CHARGES>
9
1 -0.19
10 0.1
11 0.1
12 0.1
13 0.1
2 -0.19
3 -0.2
4 0.09
5 0.09

> <PUBCHEM_EFFECTIVE_ROTOR_COUNT>
1.4

> <PUBCHEM_PHARMACOPHORE_FEATURES>
0

> <PUBCHEM_HEAVY_ATOM_COUNT>
9

> <PUBCHEM_ATOM_DEF_STEREO_COUNT>
0

> <PUBCHEM_ATOM_UDEF_STEREO_COUNT>
2

> <PUBCHEM_BOND_DEF_STEREO_COUNT>
0

> <PUBCHEM_BOND_UDEF_STEREO_COUNT>
0

> <PUBCHEM_ISOTOPIC_ATOM_COUNT>
0

> <PUBCHEM_COMPONENT_COUNT>
1

> <PUBCHEM_CACTVS_TAUTO_COUNT>
1

> <PUBCHEM_CONFORMER_ID>
000213BC00000001

> <PUBCHEM_MMFF94_ENERGY>
15.5527

> <PUBCHEM_FEATURE_SELFOVERLAP>
0

> <PUBCHEM_SHAPE_FINGERPRINT>
16945 1 18410011035314093999
18185500 45 18267018345483548406
21040471 1 18121497118248535748
21922407 69 12995933016040866942
23235685 24 18409727391442345188
23552423 10 18191028902165020047
241688 4 17761776165472882538
2748010 2 18050005794178861374
5084963 1 18270399360866237251
528862 383 18260828223905066353
54338 74 16601513127227675139
66348 1 18050003599450637982

> <PUBCHEM_SHAPE_MULTIPOLES>
185.22
2.64
2.07
0.77
0.41
0.08
0
0.01
-0.15
-0.5
0.21
-0.01
-0.05
-0.1

> <PUBCHEM_SHAPE_SELFOVERLAP>
363.371

> <PUBCHEM_SHAPE_VOLUME>
110.1

> <PUBCHEM_COORDINATE_TYPE>
2
5
10

$$$$
