136888
  -OEChem-11012401013D

 20 20  0     1  0  0  0  0  0999 V2000
   -0.5361    1.4064   -0.1034 O   0  0  0  0  0  0  0  0  0  0  0  0
   -1.8336   -0.5694   -0.2941 O   0  0  0  0  0  0  0  0  0  0  0  0
    0.5905   -0.7369   -0.2838 C   0  0  2  0  0  0  0  0  0  0  0  0
    0.6370    0.6885    0.3029 C   0  0  1  0  0  0  0  0  0  0  0  0
   -0.7404   -1.3987    0.0972 C   0  0  0  0  0  0  0  0  0  0  0  0
    1.7636   -1.6057    0.1600 C   0  0  0  0  0  0  0  0  0  0  0  0
    1.8401    1.4928   -0.1746 C   0  0  0  0  0  0  0  0  0  0  0  0
   -1.7211    0.7228    0.2958 C   0  0  0  0  0  0  0  0  0  0  0  0
    0.6041   -0.6504   -1.3791 H   0  0  0  0  0  0  0  0  0  0  0  0
    0.6547    0.6517    1.4001 H   0  0  0  0  0  0  0  0  0  0  0  0
   -0.8520   -2.3595   -0.4163 H   0  0  0  0  0  0  0  0  0  0  0  0
   -0.8024   -1.5902    1.1755 H   0  0  0  0  0  0  0  0  0  0  0  0
    1.6600   -2.6245   -0.2286 H   0  0  0  0  0  0  0  0  0  0  0  0
    2.7142   -1.2114   -0.2111 H   0  0  0  0  0  0  0  0  0  0  0  0
    1.8216   -1.6653    1.2520 H   0  0  0  0  0  0  0  0  0  0  0  0
    2.7825    1.0663    0.1792 H   0  0  0  0  0  0  0  0  0  0  0  0
    1.8659    1.5468   -1.2685 H   0  0  0  0  0  0  0  0  0  0  0  0
    1.7754    2.5248    0.1881 H   0  0  0  0  0  0  0  0  0  0  0  0
   -2.5753    1.3164   -0.0422 H   0  0  0  0  0  0  0  0  0  0  0  0
   -1.7764    0.6538    1.3893 H   0  0  0  0  0  0  0  0  0  0  0  0
  1  4  1  0  0  0  0
  1  8  1  0  0  0  0
  2  5  1  0  0  0  0
  2  8  1  0  0  0  0
  3  4  1  0  0  0  0
  3  5  1  0  0  0  0
  3  6  1  0  0  0  0
  3  9  1  0  0  0  0
  4  7  1  0  0  0  0
  4 10  1  0  0  0  0
  5 11  1  0  0  0  0
  5 12  1  0  0  0  0
  6 13  1  0  0  0  0
  6 14  1  0  0  0  0
  6 15  1  0  0  0  0
  7 16  1  0  0  0  0
  7 17  1  0  0  0  0
  7 18  1  0  0  0  0
  8 19  1  0  0  0  0
  8 20  1  0  0  0  0
M  END
> <PUBCHEM_COMPOUND_CID>
136888

> <PUBCHEM_CONFORMER_RMSD>
0.4

> <PUBCHEM_CONFORMER_DIVERSEORDER>
1
2
3
5
8
6
7
4

> <PUBCHEM_MMFF94_PARTIAL_CHARGES>
5
1 -0.56
2 -0.56
4 0.28
5 0.28
8 0.56

> <PUBCHEM_EFFECTIVE_ROTOR_COUNT>
1.2

> <PUBCHEM_PHARMACOPHORE_FEATURES>
3
1 1 acceptor
1 2 acceptor
6 1 2 3 4 5 8 rings

> <PUBCHEM_HEAVY_ATOM_COUNT>
8

> <PUBCHEM_ATOM_DEF_STEREO_COUNT>
0

> <PUBCHEM_ATOM_UDEF_STEREO_COUNT>
2

> <PUBCHEM_BOND_DEF_STEREO_COUNT>
0

> <PUBCHEM_BOND_UDEF_STEREO_COUNT>
0

> <PUBCHEM_ISOTOPIC_ATOM_COUNT>
0

> <PUBCHEM_COMPONENT_COUNT>
1

> <PUBCHEM_CACTVS_TAUTO_COUNT>
1

> <PUBCHEM_CONFORMER_ID>
000216B800000001

> <PUBCHEM_MMFF94_ENERGY>
15.382

> <PUBCHEM_FEATURE_SELFOVERLAP>
15.259

> <PUBCHEM_SHAPE_FINGERPRINT>
16714656 1 17834118928159525380
18185500 45 17977104556837060850
21040471 1 18339642376935711424
23552423 10 18335140912107534182
29004967 10 18116440412875081505

> <PUBCHEM_SHAPE_MULTIPOLES>
152.9
2.38
1.93
0.65
0.11
0.05
0.02
-0.08
0
-0.69
0.01
-0.02
0.01
-0.15

> <PUBCHEM_SHAPE_SELFOVERLAP>
292.498

> <PUBCHEM_SHAPE_VOLUME>
92.7

> <PUBCHEM_COORDINATE_TYPE>
2
5
10

$$$$
