5463555
  -OEChem-11012400433D

 30 29  0     0  0  0  0  0  0999 V2000
   -1.5792   -0.0015   -0.6871 O   0  0  0  0  0  0  0  0  0  0  0  0
    1.5859    0.0009    0.6841 O   0  0  0  0  0  0  0  0  0  0  0  0
   -0.5614    0.0014    0.2698 N   0  0  0  0  0  0  0  0  0  0  0  0
    0.5601    0.0005   -0.2680 N   0  0  0  0  0  0  0  0  0  0  0  0
   -2.8286   -0.0002    0.0045 C   0  0  0  0  0  0  0  0  0  0  0  0
    2.8273   -0.0002   -0.0040 C   0  0  0  0  0  0  0  0  0  0  0  0
   -2.9038    1.2566    0.8704 C   0  0  0  0  0  0  0  0  0  0  0  0
   -3.9363    0.0044   -1.0467 C   0  0  0  0  0  0  0  0  0  0  0  0
   -2.9097   -1.2603    0.8650 C   0  0  0  0  0  0  0  0  0  0  0  0
    2.9020    1.2535   -0.8743 C   0  0  0  0  0  0  0  0  0  0  0  0
    3.9357    0.0081    1.0465 C   0  0  0  0  0  0  0  0  0  0  0  0
    2.9079   -1.2633   -0.8602 C   0  0  0  0  0  0  0  0  0  0  0  0
   -2.7026    2.1539    0.2738 H   0  0  0  0  0  0  0  0  0  0  0  0
   -3.8952    1.3624    1.3248 H   0  0  0  0  0  0  0  0  0  0  0  0
   -2.1728    1.2506    1.6866 H   0  0  0  0  0  0  0  0  0  0  0  0
   -3.8565   -0.8719   -1.7003 H   0  0  0  0  0  0  0  0  0  0  0  0
   -3.8528    0.8833   -1.6964 H   0  0  0  0  0  0  0  0  0  0  0  0
   -4.9307    0.0056   -0.5884 H   0  0  0  0  0  0  0  0  0  0  0  0
   -2.1759   -1.2627    1.6786 H   0  0  0  0  0  0  0  0  0  0  0  0
   -3.9004   -1.3620    1.3217 H   0  0  0  0  0  0  0  0  0  0  0  0
   -2.7156   -2.1561    0.2637 H   0  0  0  0  0  0  0  0  0  0  0  0
    2.7015    2.1532   -0.2809 H   0  0  0  0  0  0  0  0  0  0  0  0
    3.8930    1.3576   -1.3297 H   0  0  0  0  0  0  0  0  0  0  0  0
    2.1705    1.2450   -1.6900 H   0  0  0  0  0  0  0  0  0  0  0  0
    3.8566   -0.8660    1.7032 H   0  0  0  0  0  0  0  0  0  0  0  0
    3.8529    0.8891    1.6932 H   0  0  0  0  0  0  0  0  0  0  0  0
    4.9297    0.0075    0.5874 H   0  0  0  0  0  0  0  0  0  0  0  0
    2.1736   -1.2686   -1.6734 H   0  0  0  0  0  0  0  0  0  0  0  0
    3.8983   -1.3664   -1.3173 H   0  0  0  0  0  0  0  0  0  0  0  0
    2.7145   -2.1572   -0.2559 H   0  0  0  0  0  0  0  0  0  0  0  0
  1  3  1  0  0  0  0
  1  5  1  0  0  0  0
  2  4  1  0  0  0  0
  2  6  1  0  0  0  0
  3  4  2  0  0  0  0
  5  7  1  0  0  0  0
  5  8  1  0  0  0  0
  5  9  1  0  0  0  0
  6 10  1  0  0  0  0
  6 11  1  0  0  0  0
  6 12  1  0  0  0  0
  7 13  1  0  0  0  0
  7 14  1  0  0  0  0
  7 15  1  0  0  0  0
  8 16  1  0  0  0  0
  8 17  1  0  0  0  0
  8 18  1  0  0  0  0
  9 19  1  0  0  0  0
  9 20  1  0  0  0  0
  9 21  1  0  0  0  0
 10 22  1  0  0  0  0
 10 23  1  0  0  0  0
 10 24  1  0  0  0  0
 11 25  1  0  0  0  0
 11 26  1  0  0  0  0
 11 27  1  0  0  0  0
 12 28  1  0  0  0  0
 12 29  1  0  0  0  0
 12 30  1  0  0  0  0
M  END
> <PUBCHEM_COMPOUND_CID>
5463555

> <PUBCHEM_CONFORMER_RMSD>
0.6

> <PUBCHEM_CONFORMER_DIVERSEORDER>
1
6
3
8
7
2
9
5
4

> <PUBCHEM_MMFF94_PARTIAL_CHARGES>
6
1 -0.22
2 -0.22
3 -0.06
4 -0.06
5 0.28
6 0.28

> <PUBCHEM_EFFECTIVE_ROTOR_COUNT>
4

> <PUBCHEM_PHARMACOPHORE_FEATURES>
2
4 5 7 8 9 hydrophobe
4 6 10 11 12 hydrophobe

> <PUBCHEM_HEAVY_ATOM_COUNT>
12

> <PUBCHEM_ATOM_DEF_STEREO_COUNT>
0

> <PUBCHEM_ATOM_UDEF_STEREO_COUNT>
0

> <PUBCHEM_BOND_DEF_STEREO_COUNT>
1

> <PUBCHEM_BOND_UDEF_STEREO_COUNT>
0

> <PUBCHEM_ISOTOPIC_ATOM_COUNT>
0

> <PUBCHEM_COMPONENT_COUNT>
1

> <PUBCHEM_CACTVS_TAUTO_COUNT>
1

> <PUBCHEM_CONFORMER_ID>
00535E0300000001

> <PUBCHEM_MMFF94_ENERGY>
26.2383

> <PUBCHEM_FEATURE_SELFOVERLAP>
10.149

> <PUBCHEM_SHAPE_FINGERPRINT>
12162725 195 18410577283686620293
12932764 1 17131838663518354574
13296908 3 18410583885051334754
14144814 61 15841555162668928495
14325111 11 17561363958945872790
18186145 218 17968104113718694856
190213 19 18410575088958052711
20279233 1 18410854364911832611
20645477 70 17560800966290971854
23402539 116 17603856828317588798
3248919 1 18410577283686366947
581208 293 18272929423400956014

> <PUBCHEM_SHAPE_MULTIPOLES>
225.25
8.33
1.16
1.13
0.01
0.01
0
0
0
0
0
0
0
0

> <PUBCHEM_SHAPE_SELFOVERLAP>
420.014

> <PUBCHEM_SHAPE_VOLUME>
145.1

> <PUBCHEM_COORDINATE_TYPE>
2
5
10

$$$$
