6427259
  -OEChem-11012400493D

 34 35  0     1  0  0  0  0  0999 V2000
   -1.3533    0.7626   -0.5317 O   0  0  0  0  0  0  0  0  0  0  0  0
   -0.5474   -1.8618   -0.2576 O   0  0  0  0  0  0  0  0  0  0  0  0
   -3.0958    2.0284    0.3038 O   0  0  0  0  0  0  0  0  0  0  0  0
   -2.2883   -2.3856    1.1677 O   0  0  0  0  0  0  0  0  0  0  0  0
   -0.9753    0.2830    0.7587 C   0  0  1  0  0  0  0  0  0  0  0  0
    0.0006   -0.8940    0.6341 C   0  0  2  0  0  0  0  0  0  0  0  0
   -0.3323    1.4201    1.5433 C   0  0  0  0  0  0  0  0  0  0  0  0
    0.9176    1.9427    0.8326 C   0  0  0  0  0  0  0  0  0  0  0  0
    1.3911   -0.4824    0.1968 C   0  0  0  0  0  0  0  0  0  0  0  0
    1.8300    0.8498    0.3319 C   0  0  0  0  0  0  0  0  0  0  0  0
    2.2916   -1.4507   -0.2785 C   0  0  0  0  0  0  0  0  0  0  0  0
    3.1358    1.1909   -0.0560 C   0  0  0  0  0  0  0  0  0  0  0  0
    3.5895   -1.1000   -0.6506 C   0  0  0  0  0  0  0  0  0  0  0  0
    4.0101    0.2212   -0.5434 C   0  0  0  0  0  0  0  0  0  0  0  0
   -2.2372    1.8026   -0.5382 C   0  0  0  0  0  0  0  0  0  0  0  0
   -1.8038   -2.3021    0.0472 C   0  0  0  0  0  0  0  0  0  0  0  0
   -2.0056    2.6536   -1.7500 C   0  0  0  0  0  0  0  0  0  0  0  0
   -2.5273   -2.6783   -1.2102 C   0  0  0  0  0  0  0  0  0  0  0  0
   -1.8848   -0.0275    1.2844 H   0  0  0  0  0  0  0  0  0  0  0  0
    0.1241   -1.3623    1.6211 H   0  0  0  0  0  0  0  0  0  0  0  0
   -0.0518    1.0484    2.5380 H   0  0  0  0  0  0  0  0  0  0  0  0
   -1.0158    2.2580    1.7144 H   0  0  0  0  0  0  0  0  0  0  0  0
    1.4669    2.5863    1.5310 H   0  0  0  0  0  0  0  0  0  0  0  0
    0.6298    2.5657   -0.0217 H   0  0  0  0  0  0  0  0  0  0  0  0
    1.9886   -2.4919   -0.3599 H   0  0  0  0  0  0  0  0  0  0  0  0
    3.4785    2.2199    0.0233 H   0  0  0  0  0  0  0  0  0  0  0  0
    4.2714   -1.8595   -1.0218 H   0  0  0  0  0  0  0  0  0  0  0  0
    5.0191    0.4967   -0.8356 H   0  0  0  0  0  0  0  0  0  0  0  0
   -2.1402    2.0542   -2.6540 H   0  0  0  0  0  0  0  0  0  0  0  0
   -1.0025    3.0844   -1.7210 H   0  0  0  0  0  0  0  0  0  0  0  0
   -2.7345    3.4691   -1.7637 H   0  0  0  0  0  0  0  0  0  0  0  0
   -1.9907   -3.4822   -1.7201 H   0  0  0  0  0  0  0  0  0  0  0  0
   -2.6201   -1.8042   -1.8596 H   0  0  0  0  0  0  0  0  0  0  0  0
   -3.5307   -3.0336   -0.9587 H   0  0  0  0  0  0  0  0  0  0  0  0
  1  5  1  0  0  0  0
  1 15  1  0  0  0  0
  2  6  1  0  0  0  0
  2 16  1  0  0  0  0
  3 15  2  0  0  0  0
  4 16  2  0  0  0  0
  5  6  1  0  0  0  0
  5  7  1  0  0  0  0
  5 19  1  0  0  0  0
  6  9  1  0  0  0  0
  6 20  1  0  0  0  0
  7  8  1  0  0  0  0
  7 21  1  0  0  0  0
  7 22  1  0  0  0  0
  8 10  1  0  0  0  0
  8 23  1  0  0  0  0
  8 24  1  0  0  0  0
  9 10  1  0  0  0  0
  9 11  2  0  0  0  0
 10 12  2  0  0  0  0
 11 13  1  0  0  0  0
 11 25  1  0  0  0  0
 12 14  1  0  0  0  0
 12 26  1  0  0  0  0
 13 14  2  0  0  0  0
 13 27  1  0  0  0  0
 14 28  1  0  0  0  0
 15 17  1  0  0  0  0
 16 18  1  0  0  0  0
 17 29  1  0  0  0  0
 17 30  1  0  0  0  0
 17 31  1  0  0  0  0
 18 32  1  0  0  0  0
 18 33  1  0  0  0  0
 18 34  1  0  0  0  0
M  END
> <PUBCHEM_COMPOUND_CID>
6427259

> <PUBCHEM_CONFORMER_RMSD>
0.6

> <PUBCHEM_CONFORMER_DIVERSEORDER>
1
12
7
5
14
11
9
15
6
3
2
13
4
8
10

> <PUBCHEM_MMFF94_PARTIAL_CHARGES>
21
1 -0.43
10 -0.14
11 -0.15
12 -0.15
13 -0.15
14 -0.15
15 0.66
16 0.66
17 0.06
18 0.06
2 -0.43
25 0.15
26 0.15
27 0.15
28 0.15
3 -0.57
4 -0.57
5 0.28
6 0.42
8 0.14
9 -0.14

> <PUBCHEM_EFFECTIVE_ROTOR_COUNT>
4.8

> <PUBCHEM_PHARMACOPHORE_FEATURES>
4
1 3 acceptor
1 4 acceptor
6 5 6 7 8 9 10 rings
6 9 10 11 12 13 14 rings

> <PUBCHEM_HEAVY_ATOM_COUNT>
18

> <PUBCHEM_ATOM_DEF_STEREO_COUNT>
2

> <PUBCHEM_ATOM_UDEF_STEREO_COUNT>
0

> <PUBCHEM_BOND_DEF_STEREO_COUNT>
0

> <PUBCHEM_BOND_UDEF_STEREO_COUNT>
0

> <PUBCHEM_ISOTOPIC_ATOM_COUNT>
0

> <PUBCHEM_COMPONENT_COUNT>
1

> <PUBCHEM_CACTVS_TAUTO_COUNT>
1

> <PUBCHEM_CONFORMER_ID>
0062127B00000001

> <PUBCHEM_MMFF94_ENERGY>
44.7034

> <PUBCHEM_FEATURE_SELFOVERLAP>
20.318

> <PUBCHEM_SHAPE_FINGERPRINT>
11206711 2 18339366386969828550
11322862 65 18410862027407483639
11578080 2 17059200617772885843
116883 192 18268701895654895111
12138202 97 18337955588886479614
12403814 3 18114756983316520009
12715332 25 18198623241852518707
12730499 353 17756707438982728669
13140716 1 18341334409957670346
14251745 187 18266727150964269881
14614273 12 18410300228384173138
15210252 30 17679835345244689381
16945 1 17768252671170355050
17357779 13 18125144177164909519
18186145 218 18195806263140018252
20645476 183 18190738626821451398
20711985 344 18262787579532970491
21501502 16 18409163337946033894
21524375 3 18045218250126827465
22182313 1 18059007406377664504
22802520 49 18267574887419688557
2334 1 18341899636164623906
23382010 3 18267564854334069253
23419403 2 17273396465057947066
23559900 14 18200872865236162282
238 59 17540782059500370669
25 1 18122624942248180828
2748010 2 18272932756442984842
298252 57 17971185924436397873
3060560 45 17903341620459625133
46194498 28 16967413550780972607
68419 9 17387942400965464345
69090 78 18335703788972671337
81228 2 18263072387599338737
8272917 22 17621607107998462849

> <PUBCHEM_SHAPE_MULTIPOLES>
346.95
5.45
3.27
1.25
3.56
0.6
0.09
0.29
1.64
-3.31
0.64
-0.66
-0.4
0.68

> <PUBCHEM_SHAPE_SELFOVERLAP>
731.474

> <PUBCHEM_SHAPE_VOLUME>
192.4

> <PUBCHEM_COORDINATE_TYPE>
2
5
10

$$$$
