13180982
  -OEChem-11012401143D

 12 11  0     0  0  0  0  0  0999 V2000
    1.1867   -1.2731    0.4266 O   0  0  0  0  0  0  0  0  0  0  0  0
    1.5832    0.9429   -0.1858 O   0  0  0  0  0  0  0  0  0  0  0  0
   -1.0580    1.2818    0.3519 O   0  0  0  0  0  0  0  0  0  0  0  0
    0.7349   -0.1766   -0.3399 C   0  0  0  0  0  0  0  0  0  0  0  0
   -0.7171    0.1616   -0.0269 C   0  0  0  0  0  0  0  0  0  0  0  0
   -1.7298   -0.9364   -0.2259 C   0  0  0  0  0  0  0  0  0  0  0  0
    0.7823   -0.4660   -1.3942 H   0  0  0  0  0  0  0  0  0  0  0  0
   -1.5316   -1.7533    0.4719 H   0  0  0  0  0  0  0  0  0  0  0  0
   -2.7347   -0.5480   -0.0382 H   0  0  0  0  0  0  0  0  0  0  0  0
   -1.6805   -1.2984   -1.2558 H   0  0  0  0  0  0  0  0  0  0  0  0
    0.9391   -1.1077    1.3520 H   0  0  0  0  0  0  0  0  0  0  0  0
    1.3719    1.3562    0.6685 H   0  0  0  0  0  0  0  0  0  0  0  0
  1  4  1  0  0  0  0
  1 11  1  0  0  0  0
  2  4  1  0  0  0  0
  2 12  1  0  0  0  0
  3  5  2  0  0  0  0
  4  5  1  0  0  0  0
  4  7  1  0  0  0  0
  5  6  1  0  0  0  0
  6  8  1  0  0  0  0
  6  9  1  0  0  0  0
  6 10  1  0  0  0  0
M  END
> <PUBCHEM_COMPOUND_CID>
13180982

> <PUBCHEM_CONFORMER_RMSD>
0.4

> <PUBCHEM_CONFORMER_DIVERSEORDER>
1
4
2
3

> <PUBCHEM_MMFF94_PARTIAL_CHARGES>
8
1 -0.68
11 0.4
12 0.4
2 -0.68
3 -0.57
4 0.62
5 0.45
6 0.06

> <PUBCHEM_EFFECTIVE_ROTOR_COUNT>
1

> <PUBCHEM_PHARMACOPHORE_FEATURES>
5
1 1 acceptor
1 1 donor
1 2 acceptor
1 2 donor
1 3 acceptor

> <PUBCHEM_HEAVY_ATOM_COUNT>
6

> <PUBCHEM_ATOM_DEF_STEREO_COUNT>
0

> <PUBCHEM_ATOM_UDEF_STEREO_COUNT>
0

> <PUBCHEM_BOND_DEF_STEREO_COUNT>
0

> <PUBCHEM_BOND_UDEF_STEREO_COUNT>
0

> <PUBCHEM_ISOTOPIC_ATOM_COUNT>
0

> <PUBCHEM_COMPONENT_COUNT>
1

> <PUBCHEM_CACTVS_TAUTO_COUNT>
3

> <PUBCHEM_CONFORMER_ID>
00C9203600000001

> <PUBCHEM_MMFF94_ENERGY>
-5.5658

> <PUBCHEM_FEATURE_SELFOVERLAP>
25.466

> <PUBCHEM_SHAPE_FINGERPRINT>
139733 1 8357994263699441351
16714656 1 17843975955233701046
20096714 4 18267595610547298924
21015797 1 9151179739810310509
21040471 1 17838623262168229201
24536 1 17703228395211744693
29004967 10 18115593801970204035
5943 1 10990475844996432325

> <PUBCHEM_SHAPE_MULTIPOLES>
105.87
2.05
1.31
0.64
0.12
0.04
0.02
-0.19
0.1
-0.01
-0.17
0
-0.04
-0.23

> <PUBCHEM_SHAPE_SELFOVERLAP>
190.704

> <PUBCHEM_SHAPE_VOLUME>
67.7

> <PUBCHEM_COORDINATE_TYPE>
2
5
10

$$$$
