69298
  -OEChem-11012400553D

 33 34  0     0  0  0  0  0  0999 V2000
    1.1711    0.9399   -0.7814 O   0  0  0  0  0  0  0  0  0  0  0  0
   -1.1972    0.9319    0.8786 O   0  0  0  0  0  0  0  0  0  0  0  0
    2.3982   -0.8111    0.1889 N   0  0  0  0  0  0  0  0  0  0  0  0
   -2.3881   -0.8088   -0.1537 N   0  0  0  0  0  0  0  0  0  0  0  0
    0.0008   -0.9747    0.0563 C   0  0  0  0  0  0  0  0  0  0  0  0
    3.7348   -0.3554    0.0891 C   0  0  0  0  0  0  0  0  0  0  0  0
   -3.7280   -0.3562   -0.0945 C   0  0  0  0  0  0  0  0  0  0  0  0
    1.2465   -0.1525   -0.2264 C   0  0  0  0  0  0  0  0  0  0  0  0
   -1.2519   -0.1533    0.3076 C   0  0  0  0  0  0  0  0  0  0  0  0
    4.7612   -1.1618    0.5520 C   0  0  0  0  0  0  0  0  0  0  0  0
   -4.7366   -1.1585   -0.6014 C   0  0  0  0  0  0  0  0  0  0  0  0
    3.9873    0.8862   -0.4698 C   0  0  0  0  0  0  0  0  0  0  0  0
   -4.0016    0.8788    0.4693 C   0  0  0  0  0  0  0  0  0  0  0  0
    6.0783   -0.7133    0.4535 C   0  0  0  0  0  0  0  0  0  0  0  0
   -6.0571   -0.7129   -0.5429 C   0  0  0  0  0  0  0  0  0  0  0  0
    5.3045    1.3345   -0.5684 C   0  0  0  0  0  0  0  0  0  0  0  0
   -5.3222    1.3242    0.5280 C   0  0  0  0  0  0  0  0  0  0  0  0
    6.3499    0.5347   -0.1067 C   0  0  0  0  0  0  0  0  0  0  0  0
   -6.3499    0.5283    0.0218 C   0  0  0  0  0  0  0  0  0  0  0  0
    0.1514   -1.6009    0.9434 H   0  0  0  0  0  0  0  0  0  0  0  0
   -0.1404   -1.6396   -0.8037 H   0  0  0  0  0  0  0  0  0  0  0  0
    2.2883   -1.7303    0.6115 H   0  0  0  0  0  0  0  0  0  0  0  0
   -2.2637   -1.7232   -0.5827 H   0  0  0  0  0  0  0  0  0  0  0  0
    4.5606   -2.1356    0.9899 H   0  0  0  0  0  0  0  0  0  0  0  0
   -4.5196   -2.1270   -1.0432 H   0  0  0  0  0  0  0  0  0  0  0  0
    3.2354    1.5641   -0.8454 H   0  0  0  0  0  0  0  0  0  0  0  0
   -3.2640    1.5533    0.8778 H   0  0  0  0  0  0  0  0  0  0  0  0
    6.8924   -1.3359    0.8129 H   0  0  0  0  0  0  0  0  0  0  0  0
   -6.8574   -1.3325   -0.9369 H   0  0  0  0  0  0  0  0  0  0  0  0
    5.5176    2.3067   -1.0036 H   0  0  0  0  0  0  0  0  0  0  0  0
   -5.5516    2.2911    0.9665 H   0  0  0  0  0  0  0  0  0  0  0  0
    7.3754    0.8839   -0.1833 H   0  0  0  0  0  0  0  0  0  0  0  0
   -7.3780    0.8753    0.0673 H   0  0  0  0  0  0  0  0  0  0  0  0
  1  8  2  0  0  0  0
  2  9  2  0  0  0  0
  3  6  1  0  0  0  0
  3  8  1  0  0  0  0
  3 22  1  0  0  0  0
  4  7  1  0  0  0  0
  4  9  1  0  0  0  0
  4 23  1  0  0  0  0
  5  8  1  0  0  0  0
  5  9  1  0  0  0  0
  5 20  1  0  0  0  0
  5 21  1  0  0  0  0
  6 10  2  0  0  0  0
  6 12  1  0  0  0  0
  7 11  2  0  0  0  0
  7 13  1  0  0  0  0
 10 14  1  0  0  0  0
 10 24  1  0  0  0  0
 11 15  1  0  0  0  0
 11 25  1  0  0  0  0
 12 16  2  0  0  0  0
 12 26  1  0  0  0  0
 13 17  2  0  0  0  0
 13 27  1  0  0  0  0
 14 18  2  0  0  0  0
 14 28  1  0  0  0  0
 15 19  2  0  0  0  0
 15 29  1  0  0  0  0
 16 18  1  0  0  0  0
 16 30  1  0  0  0  0
 17 19  1  0  0  0  0
 17 31  1  0  0  0  0
 18 32  1  0  0  0  0
 19 33  1  0  0  0  0
M  END
> <PUBCHEM_COMPOUND_CID>
69298

> <PUBCHEM_CONFORMER_RMSD>
0.8

> <PUBCHEM_CONFORMER_DIVERSEORDER>
1
12
14
8
9
4
3
10
5
13
11
15
2
16
7
6

> <PUBCHEM_MMFF94_PARTIAL_CHARGES>
31
1 -0.57
10 -0.15
11 -0.15
12 -0.15
13 -0.15
14 -0.15
15 -0.15
16 -0.15
17 -0.15
18 -0.15
19 -0.15
2 -0.57
22 0.37
23 0.37
24 0.15
25 0.15
26 0.15
27 0.15
28 0.15
29 0.15
3 -0.55
30 0.15
31 0.15
32 0.15
33 0.15
4 -0.55
5 0.12
6 0.12
7 0.12
8 0.57
9 0.57

> <PUBCHEM_EFFECTIVE_ROTOR_COUNT>
6

> <PUBCHEM_PHARMACOPHORE_FEATURES>
7
1 1 acceptor
1 2 acceptor
1 3 donor
1 4 donor
1 5 anion
6 6 10 12 14 16 18 rings
6 7 11 13 15 17 19 rings

> <PUBCHEM_HEAVY_ATOM_COUNT>
19

> <PUBCHEM_ATOM_DEF_STEREO_COUNT>
0

> <PUBCHEM_ATOM_UDEF_STEREO_COUNT>
0

> <PUBCHEM_BOND_DEF_STEREO_COUNT>
0

> <PUBCHEM_BOND_UDEF_STEREO_COUNT>
0

> <PUBCHEM_ISOTOPIC_ATOM_COUNT>
0

> <PUBCHEM_COMPONENT_COUNT>
1

> <PUBCHEM_CACTVS_TAUTO_COUNT>
3

> <PUBCHEM_CONFORMER_ID>
00010EB200000001

> <PUBCHEM_MMFF94_ENERGY>
56.4672

> <PUBCHEM_FEATURE_SELFOVERLAP>
35.523

> <PUBCHEM_SHAPE_FINGERPRINT>
10595046 47 18411981355850904459
10968037 39 18273495680842886583
11089746 13 18409729577760040552
11315181 36 18343865533312108129
117890 112 18413109454933976904
12091667 2 18273215309588621771
12107183 9 17618222806358696466
12166972 35 18410294739311038993
12236239 1 18410855460128350190
12516196 113 18131911563659267136
13167372 99 18335984173196721248
13533116 47 17458336391546554362
1420 363 15647054854350373294
14251764 18 18335137605473229124
14251764 46 18410572885639868843
14528608 73 18342458170622418580
14933364 13 18410013238521566413
15183329 4 18334574633380313628
15348495 7 15502669246459574908
17834072 33 18341612637537892254
17834076 25 18342738515764222026
19489759 90 17988925565793606323
20281389 69 18260828193856548229
20621476 66 18270688559038418545
21236236 1 17968090872625198445
21315763 28 18410572885639842863
220451 1 17632579348858164343
23081809 10 18412260640399718215
23402539 116 18272929427600730909
23536379 177 18408885126754065283
23559900 14 18130780218045064833
29717793 49 18272657835913552126
300161 21 18409445890521737962
3004659 81 18410857642752380410
34797466 226 16988569047672600948
397830 11 15575860462787380585
4073 2 17822579416572393138
42788 4 18410573985151555075
4325135 7 18342738516080798389
4340502 62 15213017146412977578
4463277 17 18410292510174889908
5104073 3 17968657237177190946
542803 24 18411136939399943691
59755656 215 17418101984010339878
59755656 520 17967810570143040699
67856867 119 18339924938819197189

> <PUBCHEM_SHAPE_MULTIPOLES>
369.31
18.95
1.31
0.79
0.1
0.11
0
1.57
-0.42
0.02
0
-0.04
0.05
-1.35

> <PUBCHEM_SHAPE_SELFOVERLAP>
784.661

> <PUBCHEM_SHAPE_VOLUME>
203.7

> <PUBCHEM_COORDINATE_TYPE>
2
5
10

$$$$
