5377860
  -OEChem-11012400323D

 30 31  0     0  0  0  0  0  0999 V2000
   -6.5456    1.2608    0.4030 O   0  5  0  0  0  0  0  0  0  0  0  0
    6.5618   -1.2252    0.4017 O   0  5  0  0  0  0  0  0  0  0  0  0
   -6.8038   -0.7800   -0.3632 O   0  0  0  0  0  0  0  0  0  0  0  0
    6.7922    0.8189   -0.3645 O   0  0  0  0  0  0  0  0  0  0  0  0
   -6.0712    0.1656    0.0157 N   0  3  0  0  0  0  0  0  0  0  0  0
    6.0726   -0.1366    0.0145 N   0  3  0  0  0  0  0  0  0  0  0  0
   -1.8731   -0.3559   -0.0141 C   0  0  0  0  0  0  0  0  0  0  0  0
    1.8884    0.3256   -0.0142 C   0  0  0  0  0  0  0  0  0  0  0  0
   -0.4506   -0.5330   -0.0268 C   0  0  0  0  0  0  0  0  0  0  0  0
    0.4428    0.4857   -0.0267 C   0  0  0  0  0  0  0  0  0  0  0  0
   -2.4430    0.8559    0.4121 C   0  0  0  0  0  0  0  0  0  0  0  0
    2.4541   -0.8761    0.4116 C   0  0  0  0  0  0  0  0  0  0  0  0
   -2.7286   -1.3904   -0.4301 C   0  0  0  0  0  0  0  0  0  0  0  0
    2.7090    1.3739   -0.4306 C   0  0  0  0  0  0  0  0  0  0  0  0
   -4.6621   -0.0089    0.0055 C   0  0  0  0  0  0  0  0  0  0  0  0
    4.6612    0.0187    0.0047 C   0  0  0  0  0  0  0  0  0  0  0  0
   -3.8273    1.0282    0.4219 C   0  0  0  0  0  0  0  0  0  0  0  0
    3.8405   -1.0295    0.4211 C   0  0  0  0  0  0  0  0  0  0  0  0
   -4.1128   -1.2180   -0.4205 C   0  0  0  0  0  0  0  0  0  0  0  0
    4.0954    1.2204   -0.4212 C   0  0  0  0  0  0  0  0  0  0  0  0
   -0.1155   -1.5658   -0.0531 H   0  0  0  0  0  0  0  0  0  0  0  0
    0.1095    1.5194   -0.0559 H   0  0  0  0  0  0  0  0  0  0  0  0
   -1.8404    1.6863    0.7699 H   0  0  0  0  0  0  0  0  0  0  0  0
    1.8581   -1.7118    0.7662 H   0  0  0  0  0  0  0  0  0  0  0  0
   -2.3219   -2.3414   -0.7679 H   0  0  0  0  0  0  0  0  0  0  0  0
    2.2864    2.3175   -0.7676 H   0  0  0  0  0  0  0  0  0  0  0  0
   -4.2208    1.9815    0.7653 H   0  0  0  0  0  0  0  0  0  0  0  0
    4.2470   -1.9777    0.7640 H   0  0  0  0  0  0  0  0  0  0  0  0
   -4.7322   -2.0476   -0.7519 H   0  0  0  0  0  0  0  0  0  0  0  0
    4.7034    2.0583   -0.7529 H   0  0  0  0  0  0  0  0  0  0  0  0
  1  5  1  0  0  0  0
  2  6  1  0  0  0  0
  3  5  2  0  0  0  0
  4  6  2  0  0  0  0
  5 15  1  0  0  0  0
  6 16  1  0  0  0  0
  7  9  1  0  0  0  0
  7 11  2  0  0  0  0
  7 13  1  0  0  0  0
  8 10  1  0  0  0  0
  8 12  2  0  0  0  0
  8 14  1  0  0  0  0
  9 10  2  0  0  0  0
  9 21  1  0  0  0  0
 10 22  1  0  0  0  0
 11 17  1  0  0  0  0
 11 23  1  0  0  0  0
 12 18  1  0  0  0  0
 12 24  1  0  0  0  0
 13 19  2  0  0  0  0
 13 25  1  0  0  0  0
 14 20  2  0  0  0  0
 14 26  1  0  0  0  0
 15 17  2  0  0  0  0
 15 19  1  0  0  0  0
 16 18  2  0  0  0  0
 16 20  1  0  0  0  0
 17 27  1  0  0  0  0
 18 28  1  0  0  0  0
 19 29  1  0  0  0  0
 20 30  1  0  0  0  0
M  CHG  4   1  -1   2  -1   5   1   6   1
M  END
> <PUBCHEM_COMPOUND_CID>
5377860

> <PUBCHEM_CONFORMER_RMSD>
0.6

> <PUBCHEM_CONFORMER_DIVERSEORDER>
2
1

> <PUBCHEM_MMFF94_PARTIAL_CHARGES>
30
1 -0.52
10 -0.18
11 -0.15
12 -0.15
13 -0.15
14 -0.15
15 0.13
16 0.13
17 -0.15
18 -0.15
19 -0.15
2 -0.52
20 -0.15
21 0.15
22 0.15
23 0.15
24 0.15
25 0.15
26 0.15
27 0.15
28 0.15
29 0.15
3 -0.52
30 0.15
4 -0.52
5 0.91
6 0.91
7 0.03
8 0.03
9 -0.18

> <PUBCHEM_EFFECTIVE_ROTOR_COUNT>
4

> <PUBCHEM_PHARMACOPHORE_FEATURES>
8
1 1 acceptor
1 1 anion
1 2 acceptor
1 2 anion
1 3 acceptor
1 4 acceptor
6 7 11 13 15 17 19 rings
6 8 12 14 16 18 20 rings

> <PUBCHEM_HEAVY_ATOM_COUNT>
20

> <PUBCHEM_ATOM_DEF_STEREO_COUNT>
0

> <PUBCHEM_ATOM_UDEF_STEREO_COUNT>
0

> <PUBCHEM_BOND_DEF_STEREO_COUNT>
1

> <PUBCHEM_BOND_UDEF_STEREO_COUNT>
0

> <PUBCHEM_ISOTOPIC_ATOM_COUNT>
0

> <PUBCHEM_COMPONENT_COUNT>
1

> <PUBCHEM_CACTVS_TAUTO_COUNT>
1

> <PUBCHEM_CONFORMER_ID>
00520F4400000002

> <PUBCHEM_MMFF94_ENERGY>
67.8905

> <PUBCHEM_FEATURE_SELFOVERLAP>
40.761

> <PUBCHEM_SHAPE_FINGERPRINT>
10354089 29 18260547823176549288
10968037 39 18410011044357670151
11089746 13 18060133258422746705
11315181 36 17775570866061982689
11524674 6 16272207509529435335
12091667 2 18201720661451617555
12107183 9 17689997838613755312
12166972 35 18410575106207357808
12236239 1 18410575097547980810
12516196 113 17203609293748693408
13167372 99 18410294679181262977
13288520 33 18273494594305850975
13533116 47 16878213178463127976
1420 363 15574714690345882026
14251764 18 18410575093253013567
14251764 46 18410854364916815059
17834072 33 18411699911234272988
17834076 25 18410573989446424935
18681886 176 18201432627563980538
19489759 90 16773800290457225771
200 152 18413107273243467480
20281389 69 18407758135973469768
20612939 158 17967820483138205748
21267235 1 18410299111539480938
21641784 216 16878517730826784092
22224240 67 15791731936176418216
23035841 295 18412261726936740987
23402539 116 18131627902981799413
23536379 177 18410573985151457826
23559900 14 18271517714584242897
29717793 49 18273219698986975060
300161 21 18412258449860694371
3004659 81 18409446994639628024
34797466 226 17132121273263678376
3545911 37 18411700988875444839
4073 2 17968382363649993306
4214541 1 18411699889590787317
42788 4 18410855468723377641
4340502 62 15357693098757477816
4463277 17 18409166614900650700
5104073 3 18337953505589886952
542803 24 17894912944630430149
54446538 1 18410012134778651633
559249 180 18342735235016317839
59755656 215 18131357384155795030
59755656 520 17458061582143062427
67856867 119 18340205322810878572
8209 1 18410573989446424956

> <PUBCHEM_SHAPE_MULTIPOLES>
378.15
18.23
1.37
0.69
0.01
0
0
0.15
-0.07
-0.01
-0.03
0
0
-1.09

> <PUBCHEM_SHAPE_SELFOVERLAP>
816.7

> <PUBCHEM_SHAPE_VOLUME>
209.1

> <PUBCHEM_COORDINATE_TYPE>
2
5
10

$$$$
