137122
  -OEChem-11012400473D

 48 54  0     0  0  0  0  0  0999 V2000
    0.0000   -0.7993   -1.4035 C   0  0  0  0  0  0  0  0  0  0  0  0
    0.0002    0.7995   -1.4035 C   0  0  0  0  0  0  0  0  0  0  0  0
    0.0002   -0.7993    1.4035 C   0  0  0  0  0  0  0  0  0  0  0  0
   -0.0001    0.7993    1.4035 C   0  0  0  0  0  0  0  0  0  0  0  0
    1.2258   -1.4040   -0.7106 C   0  0  0  0  0  0  0  0  0  0  0  0
    1.2260   -1.4038    0.7103 C   0  0  0  0  0  0  0  0  0  0  0  0
   -1.2259   -1.4038   -0.7104 C   0  0  0  0  0  0  0  0  0  0  0  0
    1.2262    1.4040   -0.7103 C   0  0  0  0  0  0  0  0  0  0  0  0
   -1.2258   -1.4038    0.7105 C   0  0  0  0  0  0  0  0  0  0  0  0
    1.2260    1.4039    0.7105 C   0  0  0  0  0  0  0  0  0  0  0  0
   -1.2257    1.4043   -0.7105 C   0  0  0  0  0  0  0  0  0  0  0  0
   -1.2261    1.4038    0.7102 C   0  0  0  0  0  0  0  0  0  0  0  0
    2.3181   -1.9154   -1.4097 C   0  0  0  0  0  0  0  0  0  0  0  0
    2.3188   -1.9143    1.4093 C   0  0  0  0  0  0  0  0  0  0  0  0
   -2.3187   -1.9146   -1.4093 C   0  0  0  0  0  0  0  0  0  0  0  0
    2.3184    1.9146    1.4097 C   0  0  0  0  0  0  0  0  0  0  0  0
    2.3188    1.9148   -1.4092 C   0  0  0  0  0  0  0  0  0  0  0  0
   -2.3185   -1.9145    1.4097 C   0  0  0  0  0  0  0  0  0  0  0  0
   -2.3179    1.9155   -1.4096 C   0  0  0  0  0  0  0  0  0  0  0  0
   -2.3191    1.9138    1.4093 C   0  0  0  0  0  0  0  0  0  0  0  0
    3.4057   -2.4257   -0.7000 C   0  0  0  0  0  0  0  0  0  0  0  0
    3.4060   -2.4251    0.6993 C   0  0  0  0  0  0  0  0  0  0  0  0
    3.4063    2.4251   -0.6991 C   0  0  0  0  0  0  0  0  0  0  0  0
   -3.4062   -2.4248   -0.6993 C   0  0  0  0  0  0  0  0  0  0  0  0
    3.4061    2.4251    0.7001 C   0  0  0  0  0  0  0  0  0  0  0  0
   -3.4061   -2.4249    0.6999 C   0  0  0  0  0  0  0  0  0  0  0  0
   -3.4065    2.4243    0.6993 C   0  0  0  0  0  0  0  0  0  0  0  0
   -3.4059    2.4252   -0.6998 C   0  0  0  0  0  0  0  0  0  0  0  0
   -0.0002   -1.1377   -2.4488 H   0  0  0  0  0  0  0  0  0  0  0  0
    0.0004    1.1379   -2.4487 H   0  0  0  0  0  0  0  0  0  0  0  0
    0.0003   -1.1379    2.4486 H   0  0  0  0  0  0  0  0  0  0  0  0
   -0.0003    1.1379    2.4486 H   0  0  0  0  0  0  0  0  0  0  0  0
    2.3334   -1.9151   -2.4954 H   0  0  0  0  0  0  0  0  0  0  0  0
    2.3347   -1.9132    2.4949 H   0  0  0  0  0  0  0  0  0  0  0  0
   -2.3345   -1.9139   -2.4949 H   0  0  0  0  0  0  0  0  0  0  0  0
    2.3346    1.9142   -2.4948 H   0  0  0  0  0  0  0  0  0  0  0  0
    2.3340    1.9139    2.4954 H   0  0  0  0  0  0  0  0  0  0  0  0
   -2.3340   -1.9138    2.4953 H   0  0  0  0  0  0  0  0  0  0  0  0
   -2.3332    1.9154   -2.4953 H   0  0  0  0  0  0  0  0  0  0  0  0
   -2.3351    1.9125    2.4949 H   0  0  0  0  0  0  0  0  0  0  0  0
    4.2614   -2.8245   -1.2378 H   0  0  0  0  0  0  0  0  0  0  0  0
    4.2621   -2.8234    1.2370 H   0  0  0  0  0  0  0  0  0  0  0  0
    4.2622    2.8236   -1.2368 H   0  0  0  0  0  0  0  0  0  0  0  0
   -4.2622   -2.8232   -1.2370 H   0  0  0  0  0  0  0  0  0  0  0  0
    4.2619    2.8236    1.2380 H   0  0  0  0  0  0  0  0  0  0  0  0
   -4.2620   -2.8232    1.2378 H   0  0  0  0  0  0  0  0  0  0  0  0
   -4.2628    2.8222    1.2370 H   0  0  0  0  0  0  0  0  0  0  0  0
   -4.2616    2.8239   -1.2378 H   0  0  0  0  0  0  0  0  0  0  0  0
  1  2  1  0  0  0  0
  1  5  1  0  0  0  0
  1  7  1  0  0  0  0
  1 29  1  0  0  0  0
  2  8  1  0  0  0  0
  2 11  1  0  0  0  0
  2 30  1  0  0  0  0
  3  4  1  0  0  0  0
  3  6  1  0  0  0  0
  3  9  1  0  0  0  0
  3 31  1  0  0  0  0
  4 10  1  0  0  0  0
  4 12  1  0  0  0  0
  4 32  1  0  0  0  0
  5  6  1  0  0  0  0
  5 13  2  0  0  0  0
  6 14  2  0  0  0  0
  7  9  1  0  0  0  0
  7 15  2  0  0  0  0
  8 10  1  0  0  0  0
  8 17  2  0  0  0  0
  9 18  2  0  0  0  0
 10 16  2  0  0  0  0
 11 12  1  0  0  0  0
 11 19  2  0  0  0  0
 12 20  2  0  0  0  0
 13 21  1  0  0  0  0
 13 33  1  0  0  0  0
 14 22  1  0  0  0  0
 14 34  1  0  0  0  0
 15 24  1  0  0  0  0
 15 35  1  0  0  0  0
 16 25  1  0  0  0  0
 16 37  1  0  0  0  0
 17 23  1  0  0  0  0
 17 36  1  0  0  0  0
 18 26  1  0  0  0  0
 18 38  1  0  0  0  0
 19 28  1  0  0  0  0
 19 39  1  0  0  0  0
 20 27  1  0  0  0  0
 20 40  1  0  0  0  0
 21 22  2  0  0  0  0
 21 41  1  0  0  0  0
 22 42  1  0  0  0  0
 23 25  2  0  0  0  0
 23 43  1  0  0  0  0
 24 26  2  0  0  0  0
 24 44  1  0  0  0  0
 25 45  1  0  0  0  0
 26 46  1  0  0  0  0
 27 28  2  0  0  0  0
 27 47  1  0  0  0  0
 28 48  1  0  0  0  0
M  END
> <PUBCHEM_COMPOUND_CID>
137122

> <PUBCHEM_CONFORMER_RMSD>
0.6

> <PUBCHEM_CONFORMER_DIVERSEORDER>
1

> <PUBCHEM_MMFF94_PARTIAL_CHARGES>
44
1 0.29
10 -0.14
11 -0.14
12 -0.14
13 -0.15
14 -0.15
15 -0.15
16 -0.15
17 -0.15
18 -0.15
19 -0.15
2 0.29
20 -0.15
21 -0.15
22 -0.15
23 -0.15
24 -0.15
25 -0.15
26 -0.15
27 -0.15
28 -0.15
3 0.29
33 0.15
34 0.15
35 0.15
36 0.15
37 0.15
38 0.15
39 0.15
4 0.29
40 0.15
41 0.15
42 0.15
43 0.15
44 0.15
45 0.15
46 0.15
47 0.15
48 0.15
5 -0.14
6 -0.14
7 -0.14
8 -0.14
9 -0.14

> <PUBCHEM_EFFECTIVE_ROTOR_COUNT>
0

> <PUBCHEM_PHARMACOPHORE_FEATURES>
6
6 1 3 5 6 7 9 rings
6 11 12 19 20 27 28 rings
6 2 4 8 10 11 12 rings
6 5 6 13 14 21 22 rings
6 7 9 15 18 24 26 rings
6 8 10 16 17 23 25 rings

> <PUBCHEM_HEAVY_ATOM_COUNT>
28

> <PUBCHEM_ATOM_DEF_STEREO_COUNT>
0

> <PUBCHEM_ATOM_UDEF_STEREO_COUNT>
0

> <PUBCHEM_BOND_DEF_STEREO_COUNT>
0

> <PUBCHEM_BOND_UDEF_STEREO_COUNT>
0

> <PUBCHEM_ISOTOPIC_ATOM_COUNT>
0

> <PUBCHEM_COMPONENT_COUNT>
1

> <PUBCHEM_CACTVS_TAUTO_COUNT>
1

> <PUBCHEM_CONFORMER_ID>
000217A200000001

> <PUBCHEM_MMFF94_ENERGY>
129.374

> <PUBCHEM_FEATURE_SELFOVERLAP>
30.595

> <PUBCHEM_SHAPE_FINGERPRINT>
104564 63 18266457801133994425
10863032 1 18412544309988672645
10930396 42 17686302436759354322
10948715 1 18410575084663624581
1100329 8 18266741272779686073
11578080 2 18338535082811754049
12035758 1 18194683661561889490
12788726 201 17977394063535127084
13140716 1 18410575041713406137
13149001 5 18267022747798601230
133893 2 17967529095355441278
13583140 156 17823994341628261371
13965767 371 17625588701532049499
14223421 5 18410575131907777658
14955137 171 17910127806299994505
16752209 62 18120369019577283780
16945 1 17910970349770576492
17492 54 17974013842530834764
18981168 100 17775569749201790768
20600515 1 17982738467903943758
20691752 17 17458062655377950891
20905425 154 18341337806696513518
21330990 113 17913218834080720173
21421861 104 18337962284587864355
23227448 37 18334860459406840982
23419403 2 18270976664716218001
23558518 356 18335974316346613983
23559900 14 18054790581780620414
23566358 2 18411416219701009981
283562 15 18122345954131452544
3027735 51 18265621068078813512
3178227 256 17975986367188098169
350125 39 18410864264821700576
394222 165 16159054778965678285
4340502 62 18411986837015820361
460360 51 17821998792295285082
469060 322 18045792444700730361
70251023 43 18412828005670002751
9981440 41 17196802277327735273

> <PUBCHEM_SHAPE_MULTIPOLES>
576.23
5.9
4
1.75
0
0
0
0
0
0
0
0
0
0

> <PUBCHEM_SHAPE_SELFOVERLAP>
1343.117

> <PUBCHEM_SHAPE_VOLUME>
264.8

> <PUBCHEM_COORDINATE_TYPE>
2
5
10

$$$$
