73797
  -OEChem-11012400443D

 42 43  0     0  0  0  0  0  0999 V2000
   -2.7881    1.0135   -0.4459 O   0  0  0  0  0  0  0  0  0  0  0  0
    2.7874    1.0148    0.4487 O   0  0  0  0  0  0  0  0  0  0  0  0
   -0.5760    1.0129   -0.4437 O   0  0  0  0  0  0  0  0  0  0  0  0
    0.5825    1.0129    0.4426 O   0  0  0  0  0  0  0  0  0  0  0  0
   -1.6880    1.0114    1.5794 O   0  0  0  0  0  0  0  0  0  0  0  0
    1.6946    1.0144   -1.5804 O   0  0  0  0  0  0  0  0  0  0  0  0
   -3.9426    0.3739    0.0873 C   0  0  0  0  0  0  0  0  0  0  0  0
    3.9414    0.3747   -0.0853 C   0  0  0  0  0  0  0  0  0  0  0  0
   -5.0979    0.4897   -0.9063 C   0  0  0  0  0  0  0  0  0  0  0  0
   -3.6194   -1.0848    0.4070 C   0  0  0  0  0  0  0  0  0  0  0  0
    5.0960    0.4859    0.9095 C   0  0  0  0  0  0  0  0  0  0  0  0
    3.6159   -1.0826   -0.4091 C   0  0  0  0  0  0  0  0  0  0  0  0
   -6.3317   -0.2654   -0.4229 C   0  0  0  0  0  0  0  0  0  0  0  0
   -4.8531   -1.8400    0.8906 C   0  0  0  0  0  0  0  0  0  0  0  0
    6.3290   -0.2700    0.4250 C   0  0  0  0  0  0  0  0  0  0  0  0
    4.8487   -1.8387   -0.8937 C   0  0  0  0  0  0  0  0  0  0  0  0
   -6.0083   -1.7225   -0.1011 C   0  0  0  0  0  0  0  0  0  0  0  0
    6.0034   -1.7258    0.0992 C   0  0  0  0  0  0  0  0  0  0  0  0
   -1.6820    1.0120    0.3557 C   0  0  0  0  0  0  0  0  0  0  0  0
    1.6885    1.0137   -0.3567 C   0  0  0  0  0  0  0  0  0  0  0  0
   -4.2345    0.8970    1.0082 H   0  0  0  0  0  0  0  0  0  0  0  0
    4.2354    0.8997   -1.0045 H   0  0  0  0  0  0  0  0  0  0  0  0
   -4.7827    0.1037   -1.8844 H   0  0  0  0  0  0  0  0  0  0  0  0
   -5.3421    1.5463   -1.0694 H   0  0  0  0  0  0  0  0  0  0  0  0
   -2.8406   -1.1710    1.1719 H   0  0  0  0  0  0  0  0  0  0  0  0
   -3.2112   -1.5750   -0.4869 H   0  0  0  0  0  0  0  0  0  0  0  0
    4.7794    0.0977    1.8863 H   0  0  0  0  0  0  0  0  0  0  0  0
    5.3418    1.5416    1.0756 H   0  0  0  0  0  0  0  0  0  0  0  0
    2.8377   -1.1665   -1.1747 H   0  0  0  0  0  0  0  0  0  0  0  0
    3.2064   -1.5744    0.4833 H   0  0  0  0  0  0  0  0  0  0  0  0
   -7.1146   -0.2217   -1.1883 H   0  0  0  0  0  0  0  0  0  0  0  0
   -6.7322    0.2254    0.4727 H   0  0  0  0  0  0  0  0  0  0  0  0
   -5.1661   -1.4428    1.8640 H   0  0  0  0  0  0  0  0  0  0  0  0
   -4.6041   -2.8965    1.0414 H   0  0  0  0  0  0  0  0  0  0  0  0
    7.1113   -0.2296    1.1911 H   0  0  0  0  0  0  0  0  0  0  0  0
    6.7310    0.2226   -0.4689 H   0  0  0  0  0  0  0  0  0  0  0  0
    5.1630   -1.4395   -1.8659 H   0  0  0  0  0  0  0  0  0  0  0  0
    4.5980   -2.8944   -1.0475 H   0  0  0  0  0  0  0  0  0  0  0  0
   -6.8971   -2.2156    0.3084 H   0  0  0  0  0  0  0  0  0  0  0  0
   -5.7479   -2.2503   -1.0270 H   0  0  0  0  0  0  0  0  0  0  0  0
    6.8917   -2.2192   -0.3110 H   0  0  0  0  0  0  0  0  0  0  0  0
    5.7415   -2.2556    1.0234 H   0  0  0  0  0  0  0  0  0  0  0  0
  1  7  1  0  0  0  0
  1 19  1  0  0  0  0
  2  8  1  0  0  0  0
  2 20  1  0  0  0  0
  3  4  1  0  0  0  0
  3 19  1  0  0  0  0
  4 20  1  0  0  0  0
  5 19  2  0  0  0  0
  6 20  2  0  0  0  0
  7  9  1  0  0  0  0
  7 10  1  0  0  0  0
  7 21  1  0  0  0  0
  8 11  1  0  0  0  0
  8 12  1  0  0  0  0
  8 22  1  0  0  0  0
  9 13  1  0  0  0  0
  9 23  1  0  0  0  0
  9 24  1  0  0  0  0
 10 14  1  0  0  0  0
 10 25  1  0  0  0  0
 10 26  1  0  0  0  0
 11 15  1  0  0  0  0
 11 27  1  0  0  0  0
 11 28  1  0  0  0  0
 12 16  1  0  0  0  0
 12 29  1  0  0  0  0
 12 30  1  0  0  0  0
 13 17  1  0  0  0  0
 13 31  1  0  0  0  0
 13 32  1  0  0  0  0
 14 17  1  0  0  0  0
 14 33  1  0  0  0  0
 14 34  1  0  0  0  0
 15 18  1  0  0  0  0
 15 35  1  0  0  0  0
 15 36  1  0  0  0  0
 16 18  1  0  0  0  0
 16 37  1  0  0  0  0
 16 38  1  0  0  0  0
 17 39  1  0  0  0  0
 17 40  1  0  0  0  0
 18 41  1  0  0  0  0
 18 42  1  0  0  0  0
M  END
> <PUBCHEM_COMPOUND_CID>
73797

> <PUBCHEM_CONFORMER_RMSD>
0.8

> <PUBCHEM_CONFORMER_DIVERSEORDER>
1
101
231
2
161
292
8
186
7
87
3
55
16
38
199
256
41
303
84
9
237
86
71
42
184
191
205
260
279
242
22
280
200
114
100
136
216
53
172
5
234
4
147
311
59
250
21
211
285
65
49
46
210
28
175
103
151
35
209
298
118
57
238
246
150
27
221
58
153
85
223
312
131
112
305
47
265
92
76
301
195
288
26
213
24
62
56
251
201
117
229
208
32
274
18
104
295
31
115
126
178
119
145
72
241
309
15
25
179
188
217
249
215
11
155
225
297
94
132
254
17
127
70
308
170
224
235
40
37
138
286
180
220
113
164
291
141
243
239
157
30
6
107
307
258
154
247
13
261
95
140
190
67
68
183
137
88
255
289
162
198
284
52
212
196
79
169
98
197
193
194
60
176
69
206
108
244
233
165
12
290
135
29
106
23
152
270
129
51
64
268
14
142
93
74
120
167
43
128
226
271
282
91
20
156
44
134
163
159
149
102
304
45
182
281
171
89
144
203
299
116
259
54
192
63
228
111
275
266
174
110
124
148
300
83
278
204
10
105
122
214
181
202
262
36
77
48
222
73
294
34
61
166
272
146
121
96
267
19
269
39
273
66
277
276
245
263
173
78
97
81
313
219
230
158
123
139
218
252
253
168
99
232
287
248
283
90
75
296
264
125
314
189
187
177
185
236
302
227
130
133
160
207
80
143
50
109
306
240
257
310
293
33
82

> <PUBCHEM_MMFF94_PARTIAL_CHARGES>
10
1 -0.43
19 0.87
2 -0.43
20 0.87
3 -0.15
4 -0.15
5 -0.57
6 -0.57
7 0.28
8 0.28

> <PUBCHEM_EFFECTIVE_ROTOR_COUNT>
9.4

> <PUBCHEM_PHARMACOPHORE_FEATURES>
2
6 7 9 10 13 14 17 rings
6 8 11 12 15 16 18 rings

> <PUBCHEM_HEAVY_ATOM_COUNT>
20

> <PUBCHEM_ATOM_DEF_STEREO_COUNT>
0

> <PUBCHEM_ATOM_UDEF_STEREO_COUNT>
0

> <PUBCHEM_BOND_DEF_STEREO_COUNT>
0

> <PUBCHEM_BOND_UDEF_STEREO_COUNT>
0

> <PUBCHEM_ISOTOPIC_ATOM_COUNT>
0

> <PUBCHEM_COMPONENT_COUNT>
1

> <PUBCHEM_CACTVS_TAUTO_COUNT>
1

> <PUBCHEM_CONFORMER_ID>
0001204500000001

> <PUBCHEM_MMFF94_ENERGY>
26.4058

> <PUBCHEM_FEATURE_SELFOVERLAP>
10.149

> <PUBCHEM_SHAPE_FINGERPRINT>
10354089 29 12607403299850354434
10613725 11 15719109154037608867
10670039 82 12685079372088548023
11315181 36 18341895212485556625
11796584 16 18334571352347176619
11858739 19 18410009935918549821
12516196 113 18413668015520817352
12596602 18 17203612558214203282
12633257 1 15769771381417625717
12760667 363 18272933817500386515
13288520 33 18334856134865416805
13402501 40 18410857659152105942
13533116 47 18201719574434709744
13668630 136 18260829297578649739
13685833 64 18410856555344835274
13885169 127 18341330012333314277
1420 363 18272090499959712238
1420 369 18341620312533842814
14251751 18 18409451418408612919
14251752 14 16660353762544537055
14341114 328 15195284239659200156
14848160 23 18412823590242135899
15183329 4 17095518496234638675
15188451 53 18413103948791158794
15716309 27 17703788128392877869
17857418 61 18410575076089221970
17870717 6 17822010917805756075
18222031 100 17894634734477905956
19377110 9 15769779043618208742
19784866 240 18408328782697864853
20281389 69 10375874077875976542
20374829 77 18040433291423728709
20645477 56 9295290543104716217
21150785 3 17822016423837700980
21623969 137 17988925561240572750
22079108 93 12175615183343631828
22224240 67 14620788310376757101
22289505 5 11169912784655222654
23198884 109 15140961755719691055
23402539 116 17530677719513555973
23402655 69 11891338651553801184
23559900 14 18335697308252520537
25122255 55 18410582785692889171
26918003 58 18272932730488817993
2838139 119 7925635470714496683
2916195 48 10087637100396389205
293599 30 9151173155615117036
29717793 49 17894914039968559596
3004659 81 17967812768822793916
465052 167 18131634470166065180
5104073 3 17775005622917779074
559249 180 18334010584722301631
59682541 35 18201707463333700306
59682541 52 15864062182953891898
59755656 215 18041274392186557587
960060 61 16515407356969146698

> <PUBCHEM_SHAPE_MULTIPOLES>
376.37
18.63
1.8
1.04
0.07
0.76
0
9.37
0
0
0
0
-0.11
0.95

> <PUBCHEM_SHAPE_SELFOVERLAP>
757.125

> <PUBCHEM_SHAPE_VOLUME>
216.5

> <PUBCHEM_COORDINATE_TYPE>
2
5
10

$$$$
