13748
  -OEChem-11012401053D

 28 29  0     0  0  0  0  0  0999 V2000
    1.8243    3.2215    0.4336 O   0  5  0  0  0  0  0  0  0  0  0  0
   -0.3170    2.8918    0.0800 O   0  0  0  0  0  0  0  0  0  0  0  0
    4.2252   -2.4626   -0.1330 O   0  5  0  0  0  0  0  0  0  0  0  0
    4.9299   -0.4264    0.2870 O   0  0  0  0  0  0  0  0  0  0  0  0
   -1.2712    0.6475   -0.4096 N   0  0  0  0  0  0  0  0  0  0  0  0
    0.8578    2.4660    0.1774 N   0  3  0  0  0  0  0  0  0  0  0  0
    4.0079   -1.2377    0.0302 N   0  3  0  0  0  0  0  0  0  0  0  0
    0.0574    0.1944   -0.2958 C   0  0  0  0  0  0  0  0  0  0  0  0
    1.1026    1.0769   -0.0101 C   0  0  0  0  0  0  0  0  0  0  0  0
   -2.5149    0.0355   -0.1487 C   0  0  0  0  0  0  0  0  0  0  0  0
    0.3288   -1.1648   -0.4726 C   0  0  0  0  0  0  0  0  0  0  0  0
    2.4102    0.6031    0.0978 C   0  0  0  0  0  0  0  0  0  0  0  0
    2.6770   -0.7545   -0.0795 C   0  0  0  0  0  0  0  0  0  0  0  0
    1.6363   -1.6384   -0.3647 C   0  0  0  0  0  0  0  0  0  0  0  0
   -3.6426    0.4071   -0.8808 C   0  0  0  0  0  0  0  0  0  0  0  0
   -2.6172   -0.9412    0.8420 C   0  0  0  0  0  0  0  0  0  0  0  0
   -4.8726   -0.1978   -0.6221 C   0  0  0  0  0  0  0  0  0  0  0  0
   -3.8472   -1.5462    1.1004 C   0  0  0  0  0  0  0  0  0  0  0  0
   -4.9748   -1.1744    0.3683 C   0  0  0  0  0  0  0  0  0  0  0  0
   -1.3578    1.5634   -0.8398 H   0  0  0  0  0  0  0  0  0  0  0  0
   -0.4558   -1.8746   -0.7200 H   0  0  0  0  0  0  0  0  0  0  0  0
    3.2247    1.2886    0.3204 H   0  0  0  0  0  0  0  0  0  0  0  0
    1.8076   -2.7014   -0.5143 H   0  0  0  0  0  0  0  0  0  0  0  0
   -3.5760    1.1663   -1.6559 H   0  0  0  0  0  0  0  0  0  0  0  0
   -1.7614   -1.2340    1.4440 H   0  0  0  0  0  0  0  0  0  0  0  0
   -5.7507    0.0916   -1.1920 H   0  0  0  0  0  0  0  0  0  0  0  0
   -3.9284   -2.3028    1.8753 H   0  0  0  0  0  0  0  0  0  0  0  0
   -5.9327   -1.6445    0.5705 H   0  0  0  0  0  0  0  0  0  0  0  0
  1  6  1  0  0  0  0
  2  6  2  0  0  0  0
  3  7  1  0  0  0  0
  4  7  2  0  0  0  0
  5  8  1  0  0  0  0
  5 10  1  0  0  0  0
  5 20  1  0  0  0  0
  6  9  1  0  0  0  0
  7 13  1  0  0  0  0
  8  9  2  0  0  0  0
  8 11  1  0  0  0  0
  9 12  1  0  0  0  0
 10 15  2  0  0  0  0
 10 16  1  0  0  0  0
 11 14  2  0  0  0  0
 11 21  1  0  0  0  0
 12 13  2  0  0  0  0
 12 22  1  0  0  0  0
 13 14  1  0  0  0  0
 14 23  1  0  0  0  0
 15 17  1  0  0  0  0
 15 24  1  0  0  0  0
 16 18  2  0  0  0  0
 16 25  1  0  0  0  0
 17 19  2  0  0  0  0
 17 26  1  0  0  0  0
 18 19  1  0  0  0  0
 18 27  1  0  0  0  0
 19 28  1  0  0  0  0
M  CHG  4   1  -1   3  -1   6   1   7   1
M  END
> <PUBCHEM_COMPOUND_CID>
13748

> <PUBCHEM_CONFORMER_RMSD>
0.6

> <PUBCHEM_CONFORMER_DIVERSEORDER>
1
3
4
2

> <PUBCHEM_MMFF94_PARTIAL_CHARGES>
28
1 -0.52
10 0.1
11 -0.15
12 -0.15
13 0.13
14 -0.15
15 -0.15
16 -0.15
17 -0.15
18 -0.15
19 -0.15
2 -0.52
20 0.4
21 0.15
22 0.15
23 0.15
24 0.15
25 0.15
26 0.15
27 0.15
28 0.15
3 -0.52
4 -0.52
5 -0.6
6 0.91
7 0.91
8 0.1
9 0.13

> <PUBCHEM_EFFECTIVE_ROTOR_COUNT>
4

> <PUBCHEM_PHARMACOPHORE_FEATURES>
10
1 1 acceptor
1 1 anion
1 2 acceptor
1 3 acceptor
1 3 anion
1 4 acceptor
1 5 cation
1 5 donor
6 10 15 16 17 18 19 rings
6 8 9 11 12 13 14 rings

> <PUBCHEM_HEAVY_ATOM_COUNT>
19

> <PUBCHEM_ATOM_DEF_STEREO_COUNT>
0

> <PUBCHEM_ATOM_UDEF_STEREO_COUNT>
0

> <PUBCHEM_BOND_DEF_STEREO_COUNT>
0

> <PUBCHEM_BOND_UDEF_STEREO_COUNT>
0

> <PUBCHEM_ISOTOPIC_ATOM_COUNT>
0

> <PUBCHEM_COMPONENT_COUNT>
1

> <PUBCHEM_CACTVS_TAUTO_COUNT>
1

> <PUBCHEM_CONFORMER_ID>
000035B400000001

> <PUBCHEM_MMFF94_ENERGY>
80.0382

> <PUBCHEM_FEATURE_SELFOVERLAP>
50.909

> <PUBCHEM_SHAPE_FINGERPRINT>
10465860 250 18334572412845395810
11543360 7 16371020610642898934
11796584 16 17385720279355111227
12032990 46 18410858720346222534
12236239 1 17203607099431894095
12363563 72 18338808826915663439
12403259 226 18335416915765271789
12507557 5 18341894112778542083
12633257 1 18339940289417201387
13134695 92 18341609343250977925
13544653 18 18336551529675617174
13862211 1 18412819166764022478
14252887 29 18060424582044466366
14787075 74 18187369869766328146
14790565 3 17616537697684842572
14866123 147 17618505380910591419
15219456 202 18262797505640098217
15352361 1 18409730634058413563
17804303 29 18259706705329271119
1813 80 17988657258959882716
18222031 100 18202846539245547966
18785283 64 18118399781541218772
200 152 18131064931643426511
20028762 73 18059291084404573711
20645477 70 18337381760076283663
20671657 53 18411707577682415529
21029758 11 18410571764764135451
21029758 27 18411421700353768148
21041028 32 18272092690689017169
21065198 57 18336548317551587755
21065201 7 17240756333359623843
21267235 1 18411707564560474678
221490 88 18263649635367305307
22182313 1 18267279016114119540
22943178 12 18115022039065521171
23175994 123 18410858728935929863
23402539 116 18271519806533931151
23559900 14 17967810587422402557
2748010 2 18197761246749489404
3004659 81 17822292328210777514
3286 77 18335986453940010431
3421961 26 18411699923792374312
5104073 3 18198898107565638594
7364860 26 18340487897114308273
7471813 234 17775273981085992249
81228 2 17908720435453146745
8809292 202 18187086152647708563
9709674 26 18116715321395773547

> <PUBCHEM_SHAPE_MULTIPOLES>
352.59
9.48
2.61
0.82
3.12
1.96
-0.03
-5.3
-0.4
-2.32
-0.36
0.64
-0.11
0.93

> <PUBCHEM_SHAPE_SELFOVERLAP>
762.871

> <PUBCHEM_SHAPE_VOLUME>
192.4

> <PUBCHEM_COORDINATE_TYPE>
2
5
10

$$$$
