138548
  -OEChem-11012400383D

 51 51  0     0  0  0  0  0  0999 V2000
    5.4920   -0.1684    0.3324 C   0  0  0  0  0  0  0  0  0  0  0  0
    6.7452   -0.9418   -0.0659 C   0  0  0  0  0  0  0  0  0  0  0  0
    5.7072    1.1761   -0.3551 C   0  0  0  0  0  0  0  0  0  0  0  0
    7.8627    0.0932    0.0188 C   0  0  0  0  0  0  0  0  0  0  0  0
    7.1929    1.4574   -0.1555 C   0  0  0  0  0  0  0  0  0  0  0  0
    4.2049   -0.8565   -0.0875 C   0  0  0  0  0  0  0  0  0  0  0  0
    2.9774   -0.0307    0.2964 C   0  0  0  0  0  0  0  0  0  0  0  0
    1.6823   -0.7428   -0.0980 C   0  0  0  0  0  0  0  0  0  0  0  0
    0.4540    0.0989    0.2560 C   0  0  0  0  0  0  0  0  0  0  0  0
   -0.8409   -0.6325   -0.1052 C   0  0  0  0  0  0  0  0  0  0  0  0
   -2.1040    0.1711    0.2173 C   0  0  0  0  0  0  0  0  0  0  0  0
   -3.3988   -0.5501   -0.1667 C   0  0  0  0  0  0  0  0  0  0  0  0
   -4.6249    0.3045    0.1666 C   0  0  0  0  0  0  0  0  0  0  0  0
   -5.9515   -0.3593   -0.2170 C   0  0  0  0  0  0  0  0  0  0  0  0
   -7.1768    0.4860    0.1410 C   0  0  0  0  0  0  0  0  0  0  0  0
   -8.5017   -0.1843   -0.2322 C   0  0  0  0  0  0  0  0  0  0  0  0
   -9.7201    0.6794    0.0546 C   0  0  0  0  0  0  0  0  0  0  0  0
    5.4939   -0.0223    1.4214 H   0  0  0  0  0  0  0  0  0  0  0  0
    6.9311   -1.8000    0.5875 H   0  0  0  0  0  0  0  0  0  0  0  0
    6.6647   -1.3143   -1.0946 H   0  0  0  0  0  0  0  0  0  0  0  0
    5.4838    1.1101   -1.4271 H   0  0  0  0  0  0  0  0  0  0  0  0
    5.0931    1.9754    0.0706 H   0  0  0  0  0  0  0  0  0  0  0  0
    8.3559    0.0443    0.9965 H   0  0  0  0  0  0  0  0  0  0  0  0
    8.6279   -0.0850   -0.7434 H   0  0  0  0  0  0  0  0  0  0  0  0
    7.6113    2.0121   -1.0014 H   0  0  0  0  0  0  0  0  0  0  0  0
    7.3489    2.0638    0.7442 H   0  0  0  0  0  0  0  0  0  0  0  0
    4.1487   -1.8415    0.3922 H   0  0  0  0  0  0  0  0  0  0  0  0
    4.2029   -1.0327   -1.1706 H   0  0  0  0  0  0  0  0  0  0  0  0
    3.0057    0.9452   -0.2013 H   0  0  0  0  0  0  0  0  0  0  0  0
    2.9793    0.1552    1.3773 H   0  0  0  0  0  0  0  0  0  0  0  0
    1.6263   -1.7106    0.4151 H   0  0  0  0  0  0  0  0  0  0  0  0
    1.6873   -0.9476   -1.1756 H   0  0  0  0  0  0  0  0  0  0  0  0
    0.4962    1.0561   -0.2775 H   0  0  0  0  0  0  0  0  0  0  0  0
    0.4574    0.3254    1.3290 H   0  0  0  0  0  0  0  0  0  0  0  0
   -0.8336   -0.8707   -1.1761 H   0  0  0  0  0  0  0  0  0  0  0  0
   -0.8793   -1.5887    0.4313 H   0  0  0  0  0  0  0  0  0  0  0  0
   -2.0576    1.1333   -0.3079 H   0  0  0  0  0  0  0  0  0  0  0  0
   -2.1195    0.3970    1.2908 H   0  0  0  0  0  0  0  0  0  0  0  0
   -3.3893   -0.7760   -1.2396 H   0  0  0  0  0  0  0  0  0  0  0  0
   -3.4602   -1.5064    0.3661 H   0  0  0  0  0  0  0  0  0  0  0  0
   -4.6312    0.5218    1.2420 H   0  0  0  0  0  0  0  0  0  0  0  0
   -4.5467    1.2687   -0.3508 H   0  0  0  0  0  0  0  0  0  0  0  0
   -6.0257   -1.3306    0.2874 H   0  0  0  0  0  0  0  0  0  0  0  0
   -5.9540   -0.5611   -1.2952 H   0  0  0  0  0  0  0  0  0  0  0  0
   -7.1711    0.6964    1.2175 H   0  0  0  0  0  0  0  0  0  0  0  0
   -7.1056    1.4534   -0.3713 H   0  0  0  0  0  0  0  0  0  0  0  0
   -8.4932   -0.4358   -1.2995 H   0  0  0  0  0  0  0  0  0  0  0  0
   -8.5974   -1.1291    0.3160 H   0  0  0  0  0  0  0  0  0  0  0  0
   -9.7825    0.9238    1.1197 H   0  0  0  0  0  0  0  0  0  0  0  0
  -10.6360    0.1517   -0.2290 H   0  0  0  0  0  0  0  0  0  0  0  0
   -9.6766    1.6156   -0.5108 H   0  0  0  0  0  0  0  0  0  0  0  0
  1  2  1  0  0  0  0
  1  3  1  0  0  0  0
  1  6  1  0  0  0  0
  1 18  1  0  0  0  0
  2  4  1  0  0  0  0
  2 19  1  0  0  0  0
  2 20  1  0  0  0  0
  3  5  1  0  0  0  0
  3 21  1  0  0  0  0
  3 22  1  0  0  0  0
  4  5  1  0  0  0  0
  4 23  1  0  0  0  0
  4 24  1  0  0  0  0
  5 25  1  0  0  0  0
  5 26  1  0  0  0  0
  6  7  1  0  0  0  0
  6 27  1  0  0  0  0
  6 28  1  0  0  0  0
  7  8  1  0  0  0  0
  7 29  1  0  0  0  0
  7 30  1  0  0  0  0
  8  9  1  0  0  0  0
  8 31  1  0  0  0  0
  8 32  1  0  0  0  0
  9 10  1  0  0  0  0
  9 33  1  0  0  0  0
  9 34  1  0  0  0  0
 10 11  1  0  0  0  0
 10 35  1  0  0  0  0
 10 36  1  0  0  0  0
 11 12  1  0  0  0  0
 11 37  1  0  0  0  0
 11 38  1  0  0  0  0
 12 13  1  0  0  0  0
 12 39  1  0  0  0  0
 12 40  1  0  0  0  0
 13 14  1  0  0  0  0
 13 41  1  0  0  0  0
 13 42  1  0  0  0  0
 14 15  1  0  0  0  0
 14 43  1  0  0  0  0
 14 44  1  0  0  0  0
 15 16  1  0  0  0  0
 15 45  1  0  0  0  0
 15 46  1  0  0  0  0
 16 17  1  0  0  0  0
 16 47  1  0  0  0  0
 16 48  1  0  0  0  0
 17 49  1  0  0  0  0
 17 50  1  0  0  0  0
 17 51  1  0  0  0  0
M  END
> <PUBCHEM_COMPOUND_CID>
138548

> <PUBCHEM_CONFORMER_RMSD>
1

> <PUBCHEM_CONFORMER_DIVERSEORDER>
1
356
135
177
133
27
332
26
168
196
68
14
8
75
413
2
180
104
118
21
372
297
4
171
230
102
267
65
103
276
32
144
192
142
198
17
365
93
7
361
81
58
416
47
209
38
320
37
147
122
74
6
331
269
113
137
3
78
91
215
60
119
415
242
270
194
414
51
72
241
34
90
62
86
48
143
53
294
39
92
13
127
378
218
16
36
259
235
97
406
28
120
246
42
153
114
80
207
279
222
84
183
99
154
9
322
18
360
50
277
46
261
149
69
59
412
188
33
128
339
229
41
169
43
351
317
24
283
346
381
5
82
388
204
110
40
160
189
101
349
29
193
23
300
208
100
336
83
159
321
66
290
71
94
217
219
88
185
281
289
282
308
178
150
374
30
205
364
292
22
265
404
274
187
172
357
173
12
280
121
226
247
390
11
19
341
307
25
236
95
260
245
141
371
111
44
20
79
184
109
206
285
369
63
291
324
264
67
368
98
87
328
238
64
239
134
108
382
123
370
323
155
227
112
176
237
126
220
138
214
210
49
15
353
385
273
257
56
73
31
293
175
200
234
304
70
231
89
52
284
355
253
305
263
165
309
125
250
272
76
164
181
179
342
362
248
152
105
268
275
195
77
352
221
310
345
216
256
136
252
117
377
202
306
166
170
45
254
363
130
131
10
212
287
347
55
107
240
271
251
402
201
129
330
295
333
106
315
348
354
186
156
57
375
161
244
302
325
398
140
139
313
124
359
213
410
380
408
61
407
211
162
243
190
223
151
334
394
54
379
399
96
409
350
132
366
403
376
337
158
329
157
167
316
311
35
312
400
391
232
343
296
163
392
367
85
396
301
288
233
383
174
318
327
386
258
303
115
249
262
224
255
228
145
116
405
340
397
389
338
148
319
384
393
225
344
373
326
395
182
278
286
335
146
358
203
266
299
191
387
298
199
411
197
314
401

> <PUBCHEM_MMFF94_PARTIAL_CHARGES>
0

> <PUBCHEM_EFFECTIVE_ROTOR_COUNT>
12

> <PUBCHEM_PHARMACOPHORE_FEATURES>
2
1 17 hydrophobe
5 1 2 3 4 5 rings

> <PUBCHEM_HEAVY_ATOM_COUNT>
17

> <PUBCHEM_ATOM_DEF_STEREO_COUNT>
0

> <PUBCHEM_ATOM_UDEF_STEREO_COUNT>
0

> <PUBCHEM_BOND_DEF_STEREO_COUNT>
0

> <PUBCHEM_BOND_UDEF_STEREO_COUNT>
0

> <PUBCHEM_ISOTOPIC_ATOM_COUNT>
0

> <PUBCHEM_COMPONENT_COUNT>
1

> <PUBCHEM_CACTVS_TAUTO_COUNT>
1

> <PUBCHEM_CONFORMER_ID>
00021D3400000001

> <PUBCHEM_MMFF94_ENERGY>
4.5402

> <PUBCHEM_FEATURE_SELFOVERLAP>
10.148

> <PUBCHEM_SHAPE_FINGERPRINT>
10299344 5 18202562878193708967
11315181 36 18272654554969903771
11638347 137 15719386218621022864
13533116 47 17022892416721496650
14123256 10 17418375791937371121
14251764 18 17847064372323014633
14251764 46 18409166610273296066
14428016 248 18130795564316901105
15510794 2 18113624482324940827
155225 1 18336547214347009588
15690457 1 8430315727653871513
16120349 18 18335700576200328461
17834076 25 18060701693392114418
18006028 8 16702301252573793809
20281389 69 18186517700814891788
20735858 18 13912321282932344707
21095086 128 10735876167138346565
21150785 3 17917993880104736369
22224240 67 17167861971875427155
23035841 295 7853853884639517521
232437 2 18343020000349271279
23521765 1 18342175562027568835
246663 6 12607405498936900471
249057 3 15697993063892328553
28498 318 10519990357047508033
33684 2 18342738507638615082
4325135 7 18272933821067580996
5283156 175 17989207027917251838
5758199 1 17676487237901688355
59682541 35 17385446531741457809
67123 10 18409729569797801303
8209 1 18273495672005090595

> <PUBCHEM_SHAPE_MULTIPOLES>
349.85
32.57
1.05
0.66
37.6
0.17
0
6.92
1.18
-1.43
0.06
-0.04
0.01
-0.34

> <PUBCHEM_SHAPE_SELFOVERLAP>
650.717

> <PUBCHEM_SHAPE_VOLUME>
217.8

> <PUBCHEM_COORDINATE_TYPE>
2
5
10

$$$$
