123204
  -OEChem-11012401013D

 22 21  0     0  0  0  0  0  0999 V2000
   -0.4746    0.1737   -0.4026 N   0  0  0  0  0  0  0  0  0  0  0  0
    0.4778    0.1736    0.4005 N   0  0  0  0  0  0  0  0  0  0  0  0
   -1.7646    0.1740    0.2957 C   0  0  0  0  0  0  0  0  0  0  0  0
    1.7636    0.1741   -0.2951 C   0  0  0  0  0  0  0  0  0  0  0  0
   -2.7855    0.9170   -0.5532 C   0  0  0  0  0  0  0  0  0  0  0  0
   -2.1864   -1.2646    0.5547 C   0  0  0  0  0  0  0  0  0  0  0  0
    2.7844    0.9167    0.5543 C   0  0  0  0  0  0  0  0  0  0  0  0
    2.1854   -1.2645   -0.5543 C   0  0  0  0  0  0  0  0  0  0  0  0
   -1.6839    0.6984    1.2579 H   0  0  0  0  0  0  0  0  0  0  0  0
    1.6855    0.6984   -1.2576 H   0  0  0  0  0  0  0  0  0  0  0  0
   -3.7624    0.9420   -0.0596 H   0  0  0  0  0  0  0  0  0  0  0  0
   -2.4649    1.9498   -0.7272 H   0  0  0  0  0  0  0  0  0  0  0  0
   -2.9090    0.4416   -1.5326 H   0  0  0  0  0  0  0  0  0  0  0  0
   -3.1555   -1.3023    1.0630 H   0  0  0  0  0  0  0  0  0  0  0  0
   -1.4545   -1.7808    1.1852 H   0  0  0  0  0  0  0  0  0  0  0  0
   -2.2698   -1.8284   -0.3811 H   0  0  0  0  0  0  0  0  0  0  0  0
    3.7616    0.9412    0.0612 H   0  0  0  0  0  0  0  0  0  0  0  0
    2.4643    1.9497    0.7279 H   0  0  0  0  0  0  0  0  0  0  0  0
    2.9073    0.4415    1.5338 H   0  0  0  0  0  0  0  0  0  0  0  0
    3.1549   -1.3021   -1.0617 H   0  0  0  0  0  0  0  0  0  0  0  0
    1.4540   -1.7806   -1.1858 H   0  0  0  0  0  0  0  0  0  0  0  0
    2.2680   -1.8288    0.3812 H   0  0  0  0  0  0  0  0  0  0  0  0
  1  2  2  0  0  0  0
  1  3  1  0  0  0  0
  2  4  1  0  0  0  0
  3  5  1  0  0  0  0
  3  6  1  0  0  0  0
  3  9  1  0  0  0  0
  4  7  1  0  0  0  0
  4  8  1  0  0  0  0
  4 10  1  0  0  0  0
  5 11  1  0  0  0  0
  5 12  1  0  0  0  0
  5 13  1  0  0  0  0
  6 14  1  0  0  0  0
  6 15  1  0  0  0  0
  6 16  1  0  0  0  0
  7 17  1  0  0  0  0
  7 18  1  0  0  0  0
  7 19  1  0  0  0  0
  8 20  1  0  0  0  0
  8 21  1  0  0  0  0
  8 22  1  0  0  0  0
M  END
> <PUBCHEM_COMPOUND_CID>
123204

> <PUBCHEM_CONFORMER_RMSD>
0.4

> <PUBCHEM_CONFORMER_DIVERSEORDER>
2
11
18
14
12
1
13
17
3
8
10
5
4
6
15
16
7
9

> <PUBCHEM_MMFF94_PARTIAL_CHARGES>
4
1 -0.25
2 -0.25
3 0.25
4 0.25

> <PUBCHEM_EFFECTIVE_ROTOR_COUNT>
2

> <PUBCHEM_PHARMACOPHORE_FEATURES>
2
3 3 5 6 hydrophobe
3 4 7 8 hydrophobe

> <PUBCHEM_HEAVY_ATOM_COUNT>
8

> <PUBCHEM_ATOM_DEF_STEREO_COUNT>
0

> <PUBCHEM_ATOM_UDEF_STEREO_COUNT>
0

> <PUBCHEM_BOND_DEF_STEREO_COUNT>
0

> <PUBCHEM_BOND_UDEF_STEREO_COUNT>
0

> <PUBCHEM_ISOTOPIC_ATOM_COUNT>
0

> <PUBCHEM_COMPONENT_COUNT>
1

> <PUBCHEM_CACTVS_TAUTO_COUNT>
1

> <PUBCHEM_CONFORMER_ID>
0001E14400000002

> <PUBCHEM_MMFF94_ENERGY>
2.8452

> <PUBCHEM_FEATURE_SELFOVERLAP>
10.149

> <PUBCHEM_SHAPE_FINGERPRINT>
10857977 72 18263922305386466857
12716758 59 18260830350087957667
12932741 1 18412269419222999246
12932764 1 18410865360027934983
14325111 11 18410855464428403845
14390081 3 18410569578678860569
20645464 45 18334852814185602225
20651381 32 18130504141372635948
23552423 10 18040724661857506706
29004967 10 18343588459959425120
3248919 1 18410853261105081633
5460574 1 11458420241150990256

> <PUBCHEM_SHAPE_MULTIPOLES>
154.67
4.8
1.26
0.81
0.01
0.32
0
-0.47
0
0
0
0
0.02
0.77

> <PUBCHEM_SHAPE_SELFOVERLAP>
274.413

> <PUBCHEM_SHAPE_VOLUME>
102.9

> <PUBCHEM_COORDINATE_TYPE>
2
5
10

$$$$
