7455
  -OEChem-11012400403D

 21 21  0     0  0  0  0  0  0999 V2000
   -2.4102   -0.8431   -0.0002 O   0  0  0  0  0  0  0  0  0  0  0  0
   -2.3353    1.4577    0.0006 O   0  0  0  0  0  0  0  0  0  0  0  0
    2.4539   -0.1403    0.0001 C   0  0  0  0  0  0  0  0  0  0  0  0
   -0.3163    0.1893    0.0002 C   0  0  0  0  0  0  0  0  0  0  0  0
    1.9039    1.1416   -0.0004 C   0  0  0  0  0  0  0  0  0  0  0  0
    1.6186   -1.2576    0.0007 C   0  0  0  0  0  0  0  0  0  0  0  0
    0.5188    1.3064   -0.0003 C   0  0  0  0  0  0  0  0  0  0  0  0
    0.2335   -1.0927    0.0007 C   0  0  0  0  0  0  0  0  0  0  0  0
    3.9351   -0.3164   -0.0008 C   0  0  0  0  0  0  0  0  0  0  0  0
   -1.7605    0.3610    0.0006 C   0  0  0  0  0  0  0  0  0  0  0  0
   -3.8414   -0.8060   -0.0012 C   0  0  0  0  0  0  0  0  0  0  0  0
    2.5444    2.0197    0.0008 H   0  0  0  0  0  0  0  0  0  0  0  0
    2.0356   -2.2613    0.0028 H   0  0  0  0  0  0  0  0  0  0  0  0
    0.1110    2.3139   -0.0003 H   0  0  0  0  0  0  0  0  0  0  0  0
   -0.3774   -1.9910    0.0017 H   0  0  0  0  0  0  0  0  0  0  0  0
    4.2232   -1.2374   -0.5188 H   0  0  0  0  0  0  0  0  0  0  0  0
    4.4310    0.5111   -0.5195 H   0  0  0  0  0  0  0  0  0  0  0  0
    4.3087   -0.3604    1.0271 H   0  0  0  0  0  0  0  0  0  0  0  0
   -4.2087   -1.8356   -0.0018 H   0  0  0  0  0  0  0  0  0  0  0  0
   -4.2047   -0.3012   -0.9012 H   0  0  0  0  0  0  0  0  0  0  0  0
   -4.2060   -0.3018    0.8987 H   0  0  0  0  0  0  0  0  0  0  0  0
  1 10  1  0  0  0  0
  1 11  1  0  0  0  0
  2 10  2  0  0  0  0
  3  5  2  0  0  0  0
  3  6  1  0  0  0  0
  3  9  1  0  0  0  0
  4  7  2  0  0  0  0
  4  8  1  0  0  0  0
  4 10  1  0  0  0  0
  5  7  1  0  0  0  0
  5 12  1  0  0  0  0
  6  8  2  0  0  0  0
  6 13  1  0  0  0  0
  7 14  1  0  0  0  0
  8 15  1  0  0  0  0
  9 16  1  0  0  0  0
  9 17  1  0  0  0  0
  9 18  1  0  0  0  0
 11 19  1  0  0  0  0
 11 20  1  0  0  0  0
 11 21  1  0  0  0  0
M  END
> <PUBCHEM_COMPOUND_CID>
7455

> <PUBCHEM_CONFORMER_RMSD>
0.4

> <PUBCHEM_CONFORMER_DIVERSEORDER>
1
2

> <PUBCHEM_MMFF94_PARTIAL_CHARGES>
15
1 -0.43
10 0.63
11 0.28
12 0.15
13 0.15
14 0.15
15 0.15
2 -0.57
3 -0.14
4 0.09
5 -0.15
6 -0.15
7 -0.15
8 -0.15
9 0.14

> <PUBCHEM_EFFECTIVE_ROTOR_COUNT>
2

> <PUBCHEM_PHARMACOPHORE_FEATURES>
2
1 2 acceptor
6 3 4 5 6 7 8 rings

> <PUBCHEM_HEAVY_ATOM_COUNT>
11

> <PUBCHEM_ATOM_DEF_STEREO_COUNT>
0

> <PUBCHEM_ATOM_UDEF_STEREO_COUNT>
0

> <PUBCHEM_BOND_DEF_STEREO_COUNT>
0

> <PUBCHEM_BOND_UDEF_STEREO_COUNT>
0

> <PUBCHEM_ISOTOPIC_ATOM_COUNT>
0

> <PUBCHEM_COMPONENT_COUNT>
1

> <PUBCHEM_CACTVS_TAUTO_COUNT>
1

> <PUBCHEM_CONFORMER_ID>
00001D1F00000001

> <PUBCHEM_MMFF94_ENERGY>
30.3375

> <PUBCHEM_FEATURE_SELFOVERLAP>
10.148

> <PUBCHEM_SHAPE_FINGERPRINT>
10219947 1 18413110580152137366
10857977 72 18411971460304205448
11062470 55 12468352461878594510
12032990 46 18341055142446404358
12897270 3 18408882953732650519
12932764 1 17131821062795136110
14325111 11 18410575080653136608
14993402 34 17968103044641032206
16945 1 18410575123428690786
193761 8 17473826122131888582
200 152 18130777971950975735
20201158 50 18407761443135061715
20871998 22 18199757955338298982
21040471 1 18338517551176770720
21501925 9 18409156723585557042
23402539 116 18411971477479033807
23402655 69 18196357144784087901
23463225 33 18335419028694099898
23552423 10 18261396619771517317
2748010 2 18268148647768942358
5084963 1 18342459265612316832
528886 8 18339355271415046936
8809292 202 18115030826120846371

> <PUBCHEM_SHAPE_MULTIPOLES>
214.64
5.77
1.44
0.6
1.37
0.19
0
-1.18
0
0.12
0
-0.04
-0.01
0

> <PUBCHEM_SHAPE_SELFOVERLAP>
443.701

> <PUBCHEM_SHAPE_VOLUME>
124.2

> <PUBCHEM_COORDINATE_TYPE>
2
5
10

$$$$
