137168
  -OEChem-11012400363D

 11 11  0     0  0  0  0  0  0999 V2000
    1.5162   -0.0004    0.0001 S   0  0  0  0  0  0  0  0  0  0  0  0
    0.2865    1.3405   -0.0001 C   0  0  0  0  0  0  0  0  0  0  0  0
    0.2857   -1.3407   -0.0001 C   0  0  0  0  0  0  0  0  0  0  0  0
   -1.0440    0.6692    0.0000 C   0  0  0  0  0  0  0  0  0  0  0  0
   -1.0444   -0.6686    0.0001 C   0  0  0  0  0  0  0  0  0  0  0  0
    0.4137    1.9601   -0.8918 H   0  0  0  0  0  0  0  0  0  0  0  0
    0.4137    1.9602    0.8916 H   0  0  0  0  0  0  0  0  0  0  0  0
    0.4127   -1.9606    0.8914 H   0  0  0  0  0  0  0  0  0  0  0  0
    0.4126   -1.9603   -0.8920 H   0  0  0  0  0  0  0  0  0  0  0  0
   -1.9615    1.2443    0.0000 H   0  0  0  0  0  0  0  0  0  0  0  0
   -1.9622   -1.2432    0.0002 H   0  0  0  0  0  0  0  0  0  0  0  0
  1  2  1  0  0  0  0
  1  3  1  0  0  0  0
  2  4  1  0  0  0  0
  2  6  1  0  0  0  0
  2  7  1  0  0  0  0
  3  5  1  0  0  0  0
  3  8  1  0  0  0  0
  3  9  1  0  0  0  0
  4  5  2  0  0  0  0
  4 10  1  0  0  0  0
  5 11  1  0  0  0  0
M  END
> <PUBCHEM_COMPOUND_CID>
137168

> <PUBCHEM_CONFORMER_RMSD>
0.4

> <PUBCHEM_CONFORMER_DIVERSEORDER>
1

> <PUBCHEM_MMFF94_PARTIAL_CHARGES>
7
1 -0.46
10 0.15
11 0.15
2 0.37
3 0.37
4 -0.29
5 -0.29

> <PUBCHEM_EFFECTIVE_ROTOR_COUNT>
0.6

> <PUBCHEM_PHARMACOPHORE_FEATURES>
1
5 1 2 3 4 5 rings

> <PUBCHEM_HEAVY_ATOM_COUNT>
5

> <PUBCHEM_ATOM_DEF_STEREO_COUNT>
0

> <PUBCHEM_ATOM_UDEF_STEREO_COUNT>
0

> <PUBCHEM_BOND_DEF_STEREO_COUNT>
0

> <PUBCHEM_BOND_UDEF_STEREO_COUNT>
0

> <PUBCHEM_ISOTOPIC_ATOM_COUNT>
0

> <PUBCHEM_COMPONENT_COUNT>
1

> <PUBCHEM_CACTVS_TAUTO_COUNT>
1

> <PUBCHEM_CONFORMER_ID>
000217D000000001

> <PUBCHEM_MMFF94_ENERGY>
-1.6289

> <PUBCHEM_FEATURE_SELFOVERLAP>
5.074

> <PUBCHEM_SHAPE_FINGERPRINT>
139733 1 9294748479234012992
16714656 1 18410867559441366436
20096714 4 17114103266142456016
21015797 1 9222068565862245383
21040471 1 18194402186601210240
5943 1 10105183403210171703

> <PUBCHEM_SHAPE_MULTIPOLES>
106.75
1.61
1.5
0.63
0.28
0
0
0
0
0
0
0.02
0
0

> <PUBCHEM_SHAPE_SELFOVERLAP>
192.384

> <PUBCHEM_SHAPE_VOLUME>
69.2

> <PUBCHEM_COORDINATE_TYPE>
2
5
10

$$$$
