601
  -OEChem-11012400473D

 23 22  0     1  0  0  0  0  0999 V2000
   -1.3544    1.2495    1.0222 O   0  0  0  0  0  0  0  0  0  0  0  0
    3.3046   -0.2556    0.9831 O   0  0  0  0  0  0  0  0  0  0  0  0
    2.4185   -1.4231   -0.7530 O   0  0  0  0  0  0  0  0  0  0  0  0
    0.0376   -0.0318   -0.3209 N   0  0  0  0  0  0  0  0  0  0  0  0
   -3.5262    0.4033   -0.4517 N   0  0  0  0  0  0  0  0  0  0  0  0
    1.2836    0.5737    0.0886 C   0  0  2  0  0  0  0  0  0  0  0  0
   -2.3405   -0.4483   -0.4029 C   0  0  1  0  0  0  0  0  0  0  0  0
   -1.1931    0.3621    0.1869 C   0  0  0  0  0  0  0  0  0  0  0  0
    1.6179    1.7370   -0.8351 C   0  0  0  0  0  0  0  0  0  0  0  0
   -2.6110   -1.6803    0.4518 C   0  0  0  0  0  0  0  0  0  0  0  0
    2.3628   -0.4864    0.0309 C   0  0  0  0  0  0  0  0  0  0  0  0
    1.1754    0.9238    1.1215 H   0  0  0  0  0  0  0  0  0  0  0  0
   -2.0948   -0.7569   -1.4249 H   0  0  0  0  0  0  0  0  0  0  0  0
    0.0708   -0.7688   -1.0199 H   0  0  0  0  0  0  0  0  0  0  0  0
    0.8355    2.5027   -0.8042 H   0  0  0  0  0  0  0  0  0  0  0  0
    2.5652    2.2039   -0.5450 H   0  0  0  0  0  0  0  0  0  0  0  0
    1.7183    1.4040   -1.8747 H   0  0  0  0  0  0  0  0  0  0  0  0
   -3.4488   -2.2616    0.0520 H   0  0  0  0  0  0  0  0  0  0  0  0
   -2.8460   -1.4090    1.4876 H   0  0  0  0  0  0  0  0  0  0  0  0
   -1.7312   -2.3326    0.4789 H   0  0  0  0  0  0  0  0  0  0  0  0
   -3.3270    1.2448   -0.9910 H   0  0  0  0  0  0  0  0  0  0  0  0
   -3.7767    0.7107    0.4872 H   0  0  0  0  0  0  0  0  0  0  0  0
    4.0188   -0.9276    0.9611 H   0  0  0  0  0  0  0  0  0  0  0  0
  1  8  2  0  0  0  0
  2 11  1  0  0  0  0
  2 23  1  0  0  0  0
  3 11  2  0  0  0  0
  4  6  1  0  0  0  0
  4  8  1  0  0  0  0
  4 14  1  0  0  0  0
  5  7  1  0  0  0  0
  5 21  1  0  0  0  0
  5 22  1  0  0  0  0
  6  9  1  0  0  0  0
  6 11  1  0  0  0  0
  6 12  1  0  0  0  0
  7  8  1  0  0  0  0
  7 10  1  0  0  0  0
  7 13  1  0  0  0  0
  9 15  1  0  0  0  0
  9 16  1  0  0  0  0
  9 17  1  0  0  0  0
 10 18  1  0  0  0  0
 10 19  1  0  0  0  0
 10 20  1  0  0  0  0
M  END
> <PUBCHEM_COMPOUND_CID>
601

> <PUBCHEM_CONFORMER_RMSD>
0.6

> <PUBCHEM_CONFORMER_DIVERSEORDER>
8
44
41
48
27
55
35
45
50
54
1
12
13
21
49
53
58
52
3
17
37
47
51
40
36
42
34
22
24
14
11
9
18
26
43
25
39
7
31
5
33
30
56
6
28
19
46
10
29
15
32
38
2
20
57
23
4
16

> <PUBCHEM_MMFF94_PARTIAL_CHARGES>
13
1 -0.57
11 0.66
14 0.37
2 -0.65
21 0.36
22 0.36
23 0.5
3 -0.57
4 -0.73
5 -0.99
6 0.36
7 0.33
8 0.57

> <PUBCHEM_EFFECTIVE_ROTOR_COUNT>
4

> <PUBCHEM_PHARMACOPHORE_FEATURES>
7
1 1 acceptor
1 2 acceptor
1 3 acceptor
1 4 donor
1 5 cation
1 5 donor
3 2 3 11 anion

> <PUBCHEM_HEAVY_ATOM_COUNT>
11

> <PUBCHEM_ATOM_DEF_STEREO_COUNT>
0

> <PUBCHEM_ATOM_UDEF_STEREO_COUNT>
2

> <PUBCHEM_BOND_DEF_STEREO_COUNT>
0

> <PUBCHEM_BOND_UDEF_STEREO_COUNT>
0

> <PUBCHEM_ISOTOPIC_ATOM_COUNT>
0

> <PUBCHEM_COMPONENT_COUNT>
1

> <PUBCHEM_CACTVS_TAUTO_COUNT>
2

> <PUBCHEM_CONFORMER_ID>
0000025900000008

> <PUBCHEM_MMFF94_ENERGY>
12.3022

> <PUBCHEM_FEATURE_SELFOVERLAP>
35.578

> <PUBCHEM_SHAPE_FINGERPRINT>
10130415 120 18413388743962316113
11062470 55 17703782613807882985
12932741 1 16443638994091572785
12932764 1 17095235934646928853
14325111 11 18261110832937778885
15775835 57 17385722491204986090
20201158 50 18411415111668441351
20653085 51 17676489441220073309
20653091 64 18334018328163441928
23552423 10 18334016128876331695
3248919 1 18341898497628765341
369184 2 16773793671511708763
8030462 33 18060430113550685364
9939556 21 18186801409084789173

> <PUBCHEM_SHAPE_MULTIPOLES>
198.8
5.37
1.55
0.9
0.9
0
-0.08
-1.31
-0.04
-0.14
0.12
-0.19
0.07
-0.07

> <PUBCHEM_SHAPE_SELFOVERLAP>
377.833

> <PUBCHEM_SHAPE_VOLUME>
122.8

> <PUBCHEM_COORDINATE_TYPE>
2
5
10

$$$$
