15305
  -OEChem-11012400473D

 30 32  0     0  0  0  0  0  0999 V2000
   -0.7200    0.3634   -0.0003 C   0  0  0  0  0  0  0  0  0  0  0  0
    0.7200    0.3632   -0.0001 C   0  0  0  0  0  0  0  0  0  0  0  0
   -1.4122   -0.8758   -0.0002 C   0  0  0  0  0  0  0  0  0  0  0  0
    1.4124   -0.8759   -0.0001 C   0  0  0  0  0  0  0  0  0  0  0  0
   -0.6955   -2.0752   -0.0002 C   0  0  0  0  0  0  0  0  0  0  0  0
    0.6955   -2.0753   -0.0002 C   0  0  0  0  0  0  0  0  0  0  0  0
   -1.5155    1.5367   -0.0004 C   0  0  0  0  0  0  0  0  0  0  0  0
    1.5152    1.5365   -0.0002 C   0  0  0  0  0  0  0  0  0  0  0  0
   -2.8172   -0.9099   -0.0002 C   0  0  0  0  0  0  0  0  0  0  0  0
    2.8174   -0.9098    0.0002 C   0  0  0  0  0  0  0  0  0  0  0  0
   -3.5630    0.2648   -0.0002 C   0  0  0  0  0  0  0  0  0  0  0  0
    3.5631    0.2649    0.0004 C   0  0  0  0  0  0  0  0  0  0  0  0
   -2.9121    1.4886   -0.0005 C   0  0  0  0  0  0  0  0  0  0  0  0
    2.9119    1.4886    0.0001 C   0  0  0  0  0  0  0  0  0  0  0  0
   -5.0527    0.2075    0.0015 C   0  0  0  0  0  0  0  0  0  0  0  0
    5.0527    0.2077    0.0004 C   0  0  0  0  0  0  0  0  0  0  0  0
   -1.2136   -3.0324   -0.0002 H   0  0  0  0  0  0  0  0  0  0  0  0
    1.2137   -3.0325   -0.0003 H   0  0  0  0  0  0  0  0  0  0  0  0
   -1.0604    2.5238    0.0001 H   0  0  0  0  0  0  0  0  0  0  0  0
    1.0599    2.5235   -0.0008 H   0  0  0  0  0  0  0  0  0  0  0  0
   -3.3367   -1.8674    0.0021 H   0  0  0  0  0  0  0  0  0  0  0  0
    3.3369   -1.8673   -0.0016 H   0  0  0  0  0  0  0  0  0  0  0  0
   -3.4745    2.4186    0.0015 H   0  0  0  0  0  0  0  0  0  0  0  0
    3.4740    2.4188   -0.0018 H   0  0  0  0  0  0  0  0  0  0  0  0
   -5.4866    1.1090   -0.4443 H   0  0  0  0  0  0  0  0  0  0  0  0
   -5.4133   -0.6446   -0.5847 H   0  0  0  0  0  0  0  0  0  0  0  0
   -5.4241    0.1125    1.0267 H   0  0  0  0  0  0  0  0  0  0  0  0
    5.4126   -0.6414    0.5913 H   0  0  0  0  0  0  0  0  0  0  0  0
    5.4250    0.1074   -1.0240 H   0  0  0  0  0  0  0  0  0  0  0  0
    5.4865    1.1115    0.4419 H   0  0  0  0  0  0  0  0  0  0  0  0
  1  2  1  0  0  0  0
  1  3  2  0  0  0  0
  1  7  1  0  0  0  0
  2  4  2  0  0  0  0
  2  8  1  0  0  0  0
  3  5  1  0  0  0  0
  3  9  1  0  0  0  0
  4  6  1  0  0  0  0
  4 10  1  0  0  0  0
  5  6  2  0  0  0  0
  5 17  1  0  0  0  0
  6 18  1  0  0  0  0
  7 13  2  0  0  0  0
  7 19  1  0  0  0  0
  8 14  2  0  0  0  0
  8 20  1  0  0  0  0
  9 11  2  0  0  0  0
  9 21  1  0  0  0  0
 10 12  2  0  0  0  0
 10 22  1  0  0  0  0
 11 13  1  0  0  0  0
 11 15  1  0  0  0  0
 12 14  1  0  0  0  0
 12 16  1  0  0  0  0
 13 23  1  0  0  0  0
 14 24  1  0  0  0  0
 15 25  1  0  0  0  0
 15 26  1  0  0  0  0
 15 27  1  0  0  0  0
 16 28  1  0  0  0  0
 16 29  1  0  0  0  0
 16 30  1  0  0  0  0
M  END
> <PUBCHEM_COMPOUND_CID>
15305

> <PUBCHEM_CONFORMER_RMSD>
0.4

> <PUBCHEM_CONFORMER_DIVERSEORDER>
1

> <PUBCHEM_MMFF94_PARTIAL_CHARGES>
20
10 -0.15
11 -0.14
12 -0.14
13 -0.15
14 -0.15
15 0.14
16 0.14
17 0.15
18 0.15
19 0.15
20 0.15
21 0.15
22 0.15
23 0.15
24 0.15
5 -0.15
6 -0.15
7 -0.15
8 -0.15
9 -0.15

> <PUBCHEM_EFFECTIVE_ROTOR_COUNT>
0

> <PUBCHEM_PHARMACOPHORE_FEATURES>
3
6 1 2 3 4 5 6 rings
6 1 3 7 9 11 13 rings
6 2 4 8 10 12 14 rings

> <PUBCHEM_HEAVY_ATOM_COUNT>
16

> <PUBCHEM_ATOM_DEF_STEREO_COUNT>
0

> <PUBCHEM_ATOM_UDEF_STEREO_COUNT>
0

> <PUBCHEM_BOND_DEF_STEREO_COUNT>
0

> <PUBCHEM_BOND_UDEF_STEREO_COUNT>
0

> <PUBCHEM_ISOTOPIC_ATOM_COUNT>
0

> <PUBCHEM_COMPONENT_COUNT>
1

> <PUBCHEM_CACTVS_TAUTO_COUNT>
1

> <PUBCHEM_CONFORMER_ID>
00003BC900000001

> <PUBCHEM_MMFF94_ENERGY>
52.7212

> <PUBCHEM_FEATURE_SELFOVERLAP>
15.272

> <PUBCHEM_SHAPE_FINGERPRINT>
10411042 1 16104732441524126318
10608611 8 18410853261105308997
10967382 1 18410855447243266407
11132069 177 18413102883396565792
11471102 20 18411134714680718015
12011746 2 18408604751299538604
12251169 10 18334855030578637376
12403259 415 18410566288576046020
12592029 89 18334858285905690826
12644460 14 18188210892475616395
13140716 1 18265897045418049907
13221675 6 18410575084668509574
13380535 76 18410576184175063971
13583140 156 16805594889493164617
13862211 1 18410849966865334499
14144814 61 18410011013786620448
14911166 2 18412832386836253270
15042514 8 18265617765449962163
15196674 1 18410573985151516103
15309172 13 18411427210754552395
15442244 35 18123189000408393362
15536298 74 18271527494446263134
15775835 57 18410577287981321250
16945 1 18410573989446678279
17802600 8 18410852165888596549
17804303 29 18411422851536859012
1813 80 16951121739500251002
18186145 218 18343306928968927860
18522853 276 18413669110605479136
200 152 18060133241590868229
20510252 161 18272653398416185673
21267235 1 18410865360027896002
21501502 16 18194399996563339929
21524375 3 18410575088958358018
231179 274 17822283557391043903
2334 1 17978511167221638691
23402539 116 18343012324271756495
23402655 69 18270391699277636133
23463225 33 18334856095719944778
23559900 14 18201156650773454928
25 1 18410290285381850134
2748010 2 18051131694043668263
335352 9 18410575084747494862
350125 39 18409732858809612629
3545911 37 18411139134128134534
366044 4 18410011043793525107
474 4 16951978473426975524
4990 188 17918000468252272468
5104073 3 18337953505748246552
528886 8 18411132550001383138
53812653 166 18413386536206538704
54173680 148 18120657095665579282
58051976 378 18341612594551439205
69090 78 18343298188789614847
7364860 26 18269838605762780838
8809292 202 18261678176410863010
9709674 26 18341337772616635838

> <PUBCHEM_SHAPE_MULTIPOLES>
329.27
8.11
1.96
0.62
0
0.42
0
-1.88
0
0
0
0
0
0

> <PUBCHEM_SHAPE_SELFOVERLAP>
736.285

> <PUBCHEM_SHAPE_VOLUME>
164.1

> <PUBCHEM_COORDINATE_TYPE>
2
5
10

$$$$
