144981
  -OEChem-11012400443D

 50 50  0     0  0  0  0  0  0999 V2000
   -4.8876    0.0320   -0.7273 O   0  0  0  0  0  0  0  0  0  0  0  0
    4.8930   -0.0335    0.7199 O   0  0  0  0  0  0  0  0  0  0  0  0
   -3.5564    0.3200   -0.2118 O   0  0  0  0  0  0  0  0  0  0  0  0
    3.5583   -0.3186    0.2064 O   0  0  0  0  0  0  0  0  0  0  0  0
   -2.9824   -1.2826   -1.7668 O   0  0  0  0  0  0  0  0  0  0  0  0
    2.9844    1.2707    1.7751 O   0  0  0  0  0  0  0  0  0  0  0  0
   -0.1197   -3.5861    0.1806 O   0  0  0  0  0  0  0  0  0  0  0  0
    0.1207    3.5754   -0.1776 O   0  0  0  0  0  0  0  0  0  0  0  0
   -2.2732   -2.9071    0.4411 O   0  0  0  0  0  0  0  0  0  0  0  0
    2.2744    2.8952   -0.4333 O   0  0  0  0  0  0  0  0  0  0  0  0
   -5.7848    0.4985    0.2811 C   0  0  0  0  0  0  0  0  0  0  0  0
    5.7872   -0.4798   -0.2897 C   0  0  0  0  0  0  0  0  0  0  0  0
   -5.5583    1.9967    0.4780 C   0  0  0  0  0  0  0  0  0  0  0  0
   -7.2064    0.2297   -0.2079 C   0  0  0  0  0  0  0  0  0  0  0  0
   -5.5066   -0.2690    1.5727 C   0  0  0  0  0  0  0  0  0  0  0  0
    5.4941    0.2928   -1.5750 C   0  0  0  0  0  0  0  0  0  0  0  0
    7.2072   -0.1966    0.1957 C   0  0  0  0  0  0  0  0  0  0  0  0
    5.5790   -1.9794   -0.4958 C   0  0  0  0  0  0  0  0  0  0  0  0
   -1.3041   -0.2519   -0.4241 C   0  0  0  0  0  0  0  0  0  0  0  0
    1.3044    0.2413    0.4336 C   0  0  0  0  0  0  0  0  0  0  0  0
   -0.5439   -1.2841    0.1260 C   0  0  0  0  0  0  0  0  0  0  0  0
    0.5441    1.2734   -0.1168 C   0  0  0  0  0  0  0  0  0  0  0  0
   -0.7601    1.0269   -0.5458 C   0  0  0  0  0  0  0  0  0  0  0  0
    0.7603   -1.0375    0.5548 C   0  0  0  0  0  0  0  0  0  0  0  0
   -2.6945   -0.4824   -0.8903 C   0  0  0  0  0  0  0  0  0  0  0  0
    2.6699    0.4670    0.8898 C   0  0  0  0  0  0  0  0  0  0  0  0
   -1.0838   -2.6304    0.2658 C   0  0  0  0  0  0  0  0  0  0  0  0
    1.0848    2.6193   -0.2583 C   0  0  0  0  0  0  0  0  0  0  0  0
   -6.3043    2.4225    1.1580 H   0  0  0  0  0  0  0  0  0  0  0  0
   -5.6211    2.5287   -0.4783 H   0  0  0  0  0  0  0  0  0  0  0  0
   -4.5708    2.2203    0.8967 H   0  0  0  0  0  0  0  0  0  0  0  0
   -7.3576   -0.8394   -0.3961 H   0  0  0  0  0  0  0  0  0  0  0  0
   -7.3940    0.7406   -1.1593 H   0  0  0  0  0  0  0  0  0  0  0  0
   -7.9549    0.5631    0.5181 H   0  0  0  0  0  0  0  0  0  0  0  0
   -5.5327   -1.3504    1.3958 H   0  0  0  0  0  0  0  0  0  0  0  0
   -4.5186   -0.0440    1.9893 H   0  0  0  0  0  0  0  0  0  0  0  0
   -6.2477   -0.0281    2.3427 H   0  0  0  0  0  0  0  0  0  0  0  0
    6.2374    0.0689   -2.3481 H   0  0  0  0  0  0  0  0  0  0  0  0
    5.5040    1.3733   -1.3906 H   0  0  0  0  0  0  0  0  0  0  0  0
    4.5093    0.0553   -1.9922 H   0  0  0  0  0  0  0  0  0  0  0  0
    7.9570   -0.5162   -0.5353 H   0  0  0  0  0  0  0  0  0  0  0  0
    7.3462    0.8732    0.3900 H   0  0  0  0  0  0  0  0  0  0  0  0
    7.4051   -0.7111    1.1431 H   0  0  0  0  0  0  0  0  0  0  0  0
    6.3250   -2.3905   -1.1847 H   0  0  0  0  0  0  0  0  0  0  0  0
    4.5910   -2.2126   -0.9078 H   0  0  0  0  0  0  0  0  0  0  0  0
    5.6563   -2.5175    0.4560 H   0  0  0  0  0  0  0  0  0  0  0  0
   -1.3607    1.8153   -0.9941 H   0  0  0  0  0  0  0  0  0  0  0  0
    1.3607   -1.8267    1.0022 H   0  0  0  0  0  0  0  0  0  0  0  0
   -0.4912   -4.4891    0.2753 H   0  0  0  0  0  0  0  0  0  0  0  0
    0.4925    4.4780   -0.2747 H   0  0  0  0  0  0  0  0  0  0  0  0
  1  3  1  0  0  0  0
  1 11  1  0  0  0  0
  2  4  1  0  0  0  0
  2 12  1  0  0  0  0
  3 25  1  0  0  0  0
  4 26  1  0  0  0  0
  5 25  2  0  0  0  0
  6 26  2  0  0  0  0
  7 27  1  0  0  0  0
  7 49  1  0  0  0  0
  8 28  1  0  0  0  0
  8 50  1  0  0  0  0
  9 27  2  0  0  0  0
 10 28  2  0  0  0  0
 11 13  1  0  0  0  0
 11 14  1  0  0  0  0
 11 15  1  0  0  0  0
 12 16  1  0  0  0  0
 12 17  1  0  0  0  0
 12 18  1  0  0  0  0
 13 29  1  0  0  0  0
 13 30  1  0  0  0  0
 13 31  1  0  0  0  0
 14 32  1  0  0  0  0
 14 33  1  0  0  0  0
 14 34  1  0  0  0  0
 15 35  1  0  0  0  0
 15 36  1  0  0  0  0
 15 37  1  0  0  0  0
 16 38  1  0  0  0  0
 16 39  1  0  0  0  0
 16 40  1  0  0  0  0
 17 41  1  0  0  0  0
 17 42  1  0  0  0  0
 17 43  1  0  0  0  0
 18 44  1  0  0  0  0
 18 45  1  0  0  0  0
 18 46  1  0  0  0  0
 19 21  2  0  0  0  0
 19 23  1  0  0  0  0
 19 25  1  0  0  0  0
 20 22  1  0  0  0  0
 20 24  2  0  0  0  0
 20 26  1  0  0  0  0
 21 24  1  0  0  0  0
 21 27  1  0  0  0  0
 22 23  2  0  0  0  0
 22 28  1  0  0  0  0
 23 47  1  0  0  0  0
 24 48  1  0  0  0  0
M  END
> <PUBCHEM_COMPOUND_CID>
144981

> <PUBCHEM_CONFORMER_RMSD>
1

> <PUBCHEM_CONFORMER_DIVERSEORDER>
1
6
15
10
14
12
19
7
9
2
3
16
18
8
13
11
4
17
5

> <PUBCHEM_MMFF94_PARTIAL_CHARGES>
26
1 -0.28
10 -0.57
11 0.28
12 0.28
19 0.09
2 -0.28
20 0.09
21 0.09
22 0.09
23 -0.15
24 -0.15
25 0.63
26 0.63
27 0.63
28 0.63
3 -0.15
4 -0.15
47 0.15
48 0.15
49 0.5
5 -0.57
50 0.5
6 -0.57
7 -0.65
8 -0.65
9 -0.57

> <PUBCHEM_EFFECTIVE_ROTOR_COUNT>
10

> <PUBCHEM_PHARMACOPHORE_FEATURES>
11
1 10 acceptor
1 5 acceptor
1 6 acceptor
1 7 acceptor
1 8 acceptor
1 9 acceptor
3 7 9 27 anion
3 8 10 28 anion
4 11 13 14 15 hydrophobe
4 12 16 17 18 hydrophobe
6 19 20 21 22 23 24 rings

> <PUBCHEM_HEAVY_ATOM_COUNT>
28

> <PUBCHEM_ATOM_DEF_STEREO_COUNT>
0

> <PUBCHEM_ATOM_UDEF_STEREO_COUNT>
0

> <PUBCHEM_BOND_DEF_STEREO_COUNT>
0

> <PUBCHEM_BOND_UDEF_STEREO_COUNT>
0

> <PUBCHEM_ISOTOPIC_ATOM_COUNT>
0

> <PUBCHEM_COMPONENT_COUNT>
1

> <PUBCHEM_CACTVS_TAUTO_COUNT>
1

> <PUBCHEM_CONFORMER_ID>
0002365500000001

> <PUBCHEM_MMFF94_ENERGY>
90.2269

> <PUBCHEM_FEATURE_SELFOVERLAP>
55.945

> <PUBCHEM_SHAPE_FINGERPRINT>
10050765 1 18120657091312011449
10674148 151 18272369738144873850
10906281 52 18341910592557364612
1100329 8 18337109063722679657
11036077 3 18409730647386634987
11578080 2 17558537265296917960
11796584 16 16558746845413955070
12035758 1 18410016545778571842
12166972 35 18131067160657944945
12236239 1 17988920094237464093
12553582 1 18262783125746602544
12788726 201 18339636720933359408
13140716 1 18117267267099377809
13590594 115 18411141316252174369
13914758 101 14764358106267579066
14790565 3 18336270046030350908
14856354 85 18113909264594871223
14955137 171 18407764741859784049
15099037 51 18408884048838703702
15183329 4 17203610358758261571
15475509 8 18270974444392413868
15849732 13 18410013230100573477
1601671 61 18334293149908548993
18681886 176 18412819210045628393
19141452 34 17988636424094745638
19319366 153 17530958069351598346
20739085 24 18263360287804815761
20832881 197 17988639675495784490
21285901 2 18200883855482161678
21792961 116 17822843178945309742
23559900 14 18339354292964525592
23569943 247 18127688231970790526
23622692 88 18413108372850235773
3004659 81 18187364308263838174
3178227 256 18261688016676576697
335352 9 18409447007213118374
34797466 226 14996287985482496594
350125 39 18335420140969895197
404807 14 15333534439434086830
4325135 7 12901546840661558882
474 4 18411696604626387275
5104073 3 18191011511810888312
59755656 215 17988926621949379415
59755656 520 18341325652693764751
6328613 192 18410860996631780360
6913067 236 11240002247735015026
7226269 152 17989208131507751537

> <PUBCHEM_SHAPE_MULTIPOLES>
517.53
16
3.01
1.14
0.04
0.03
0
-0.11
0.06
-0.02
0
0
0
0

> <PUBCHEM_SHAPE_SELFOVERLAP>
1078.822

> <PUBCHEM_SHAPE_VOLUME>
295.6

> <PUBCHEM_COORDINATE_TYPE>
2
5
10

$$$$
