4478696
  -OEChem-10312420212D

 14 13  0     0  0  0  0  0  0999 V2000
    2.8660    2.5000    0.0000 Cu  0  3  0  0  0  0  0  0  0  0  0  0
    2.8660   -0.5000    0.0000 C   0  0  0  0  0  0  0  0  0  0  0  0
    3.7320   -1.0000    0.0000 C   0  0  0  0  0  0  0  0  0  0  0  0
    2.0000   -1.0000    0.0000 C   0  0  0  0  0  0  0  0  0  0  0  0
    3.7320   -2.0000    0.0000 C   0  0  0  0  0  0  0  0  0  0  0  0
    2.0000   -2.0000    0.0000 C   0  0  0  0  0  0  0  0  0  0  0  0
    2.8660   -2.5000    0.0000 C   0  0  0  0  0  0  0  0  0  0  0  0
    2.8660    0.5000    0.0000 C   0  0  0  0  0  0  0  0  0  0  0  0
    2.8660    1.5000    0.0000 C   0  5  0  0  0  0  0  0  0  0  0  0
    4.2690   -0.6900    0.0000 H   0  0  0  0  0  0  0  0  0  0  0  0
    1.4631   -0.6900    0.0000 H   0  0  0  0  0  0  0  0  0  0  0  0
    4.2690   -2.3100    0.0000 H   0  0  0  0  0  0  0  0  0  0  0  0
    1.4631   -2.3100    0.0000 H   0  0  0  0  0  0  0  0  0  0  0  0
    2.8660   -3.1200    0.0000 H   0  0  0  0  0  0  0  0  0  0  0  0
  2  3  2  0  0  0  0
  2  4  1  0  0  0  0
  2  8  1  0  0  0  0
  3  5  1  0  0  0  0
  3 10  1  0  0  0  0
  4  6  2  0  0  0  0
  4 11  1  0  0  0  0
  5  7  2  0  0  0  0
  5 12  1  0  0  0  0
  6  7  1  0  0  0  0
  6 13  1  0  0  0  0
  7 14  1  0  0  0  0
  8  9  3  0  0  0  0
M  CHG  2   1   1   9  -1
M  END
> <PUBCHEM_COMPOUND_CID>
4478696

> <PUBCHEM_COMPOUND_CANONICALIZED>
1

> <PUBCHEM_CACTVS_COMPLEXITY>
103

> <PUBCHEM_CACTVS_HBOND_ACCEPTOR>
1

> <PUBCHEM_CACTVS_HBOND_DONOR>
0

> <PUBCHEM_CACTVS_ROTATABLE_BOND>
1

> <PUBCHEM_CACTVS_SUBSKEYS>
AAADcYBwAAAAAAAEAAAAAAAAAAAAAAAAAAAwAAAAAAAAAAABAAAAGAAAAAAADACAGAAwAIAAAADAEiBCAAgCAAAgAAAIiAAAAIgIICKAERCAIAAggAAIiAcAgAAOAAAAAAAAAAAAAAAAAAAAAAAAAAAAAA==

> <PUBCHEM_IUPAC_OPENEYE_NAME>
cuprous;ethynylbenzene

> <PUBCHEM_IUPAC_CAS_NAME>
copper(1+);ethynylbenzene

> <PUBCHEM_IUPAC_NAME_MARKUP>
copper(1+);ethynylbenzene

> <PUBCHEM_IUPAC_NAME>
copper(1+);ethynylbenzene

> <PUBCHEM_IUPAC_SYSTEMATIC_NAME>
copper(1+);ethynylbenzene

> <PUBCHEM_IUPAC_TRADITIONAL_NAME>
cuprous;ethynylbenzene

> <PUBCHEM_IUPAC_INCHI>
InChI=1S/C8H5.Cu/c1-2-8-6-4-3-5-7-8;/h3-7H;/q-1;+1

> <PUBCHEM_IUPAC_INCHIKEY>
SFLVZUJLUPAJNE-UHFFFAOYSA-N

> <PUBCHEM_EXACT_MASS>
163.968722

> <PUBCHEM_MOLECULAR_FORMULA>
C8H5Cu

> <PUBCHEM_MOLECULAR_WEIGHT>
164.67

> <PUBCHEM_OPENEYE_CAN_SMILES>
[C-]#CC1=CC=CC=C1.[Cu+]

> <PUBCHEM_OPENEYE_ISO_SMILES>
[C-]#CC1=CC=CC=C1.[Cu+]

> <PUBCHEM_CACTVS_TPSA>
0

> <PUBCHEM_MONOISOTOPIC_WEIGHT>
163.968722

> <PUBCHEM_TOTAL_CHARGE>
0

> <PUBCHEM_HEAVY_ATOM_COUNT>
9

> <PUBCHEM_ATOM_DEF_STEREO_COUNT>
0

> <PUBCHEM_ATOM_UDEF_STEREO_COUNT>
0

> <PUBCHEM_BOND_DEF_STEREO_COUNT>
0

> <PUBCHEM_BOND_UDEF_STEREO_COUNT>
0

> <PUBCHEM_ISOTOPIC_ATOM_COUNT>
0

> <PUBCHEM_COMPONENT_COUNT>
2

> <PUBCHEM_CACTVS_TAUTO_COUNT>
-1

> <PUBCHEM_NONSTANDARDBOND>
1  9  6

> <PUBCHEM_COORDINATE_TYPE>
1
5
255

> <PUBCHEM_BONDANNOTATIONS>
2  3  8
2  4  8
3  5  8
4  6  8
5  7  8
6  7  8

$$$$
