141594
  -OEChem-11012401203D

 29 28  0     0  0  0  0  0  0999 V2000
   -4.0514    0.7351    1.1569 F   0  0  0  0  0  0  0  0  0  0  0  0
    0.8548    1.6626    0.0775 O   0  0  0  0  0  0  0  0  0  0  0  0
   -1.3392    1.3836    0.9965 O   0  0  0  0  0  0  0  0  0  0  0  0
    3.2241   -1.0636    2.1155 O   0  5  0  0  0  0  0  0  0  0  0  0
    1.0872   -1.5365   -1.0746 O   0  5  0  0  0  0  0  0  0  0  0  0
    3.5909    2.0659    0.0795 O   0  5  0  0  0  0  0  0  0  0  0  0
    3.7229   -2.1392    0.2699 O   0  0  0  0  0  0  0  0  0  0  0  0
    2.3639   -0.2396   -2.3001 O   0  0  0  0  0  0  0  0  0  0  0  0
    4.6503    0.4403   -0.9421 O   0  0  0  0  0  0  0  0  0  0  0  0
   -2.0741   -1.7642   -0.0732 O   0  5  0  0  0  0  0  0  0  0  0  0
   -3.7206    0.0365   -2.1259 O   0  5  0  0  0  0  0  0  0  0  0  0
   -3.1660   -1.4347    1.8055 O   0  0  0  0  0  0  0  0  0  0  0  0
   -5.3805   -0.2742   -0.7192 O   0  0  0  0  0  0  0  0  0  0  0  0
    3.2170   -1.1872    0.8832 N   0  3  0  0  0  0  0  0  0  0  0  0
    1.9747   -0.6815   -1.2098 N   0  3  0  0  0  0  0  0  0  0  0  0
    3.6990    0.8855   -0.2859 N   0  3  0  0  0  0  0  0  0  0  0  0
   -2.7959   -1.0908    0.6749 N   0  3  0  0  0  0  0  0  0  0  0  0
   -4.1987   -0.0176   -0.9848 N   0  3  0  0  0  0  0  0  0  0  0  0
    2.5657   -0.0755    0.0617 C   0  0  0  0  0  0  0  0  0  0  0  0
    1.4323    0.6041    0.8377 C   0  0  0  0  0  0  0  0  0  0  0  0
   -3.2717    0.2393    0.1667 C   0  0  0  0  0  0  0  0  0  0  0  0
   -2.1388    1.1835   -0.1616 C   0  0  0  0  0  0  0  0  0  0  0  0
   -0.2460    2.2683    0.7517 C   0  0  0  0  0  0  0  0  0  0  0  0
    1.8061    1.0282    1.7792 H   0  0  0  0  0  0  0  0  0  0  0  0
    0.6582   -0.1290    1.0992 H   0  0  0  0  0  0  0  0  0  0  0  0
   -1.5075    0.7925   -0.9691 H   0  0  0  0  0  0  0  0  0  0  0  0
   -2.5481    2.1506   -0.4783 H   0  0  0  0  0  0  0  0  0  0  0  0
    0.0979    2.6509    1.7193 H   0  0  0  0  0  0  0  0  0  0  0  0
   -0.5772    3.1341    0.1672 H   0  0  0  0  0  0  0  0  0  0  0  0
  1 21  1  0  0  0  0
  2 20  1  0  0  0  0
  2 23  1  0  0  0  0
  3 22  1  0  0  0  0
  3 23  1  0  0  0  0
  4 14  1  0  0  0  0
  5 15  1  0  0  0  0
  6 16  1  0  0  0  0
  7 14  2  0  0  0  0
  8 15  2  0  0  0  0
  9 16  2  0  0  0  0
 10 17  1  0  0  0  0
 11 18  1  0  0  0  0
 12 17  2  0  0  0  0
 13 18  2  0  0  0  0
 14 19  1  0  0  0  0
 15 19  1  0  0  0  0
 16 19  1  0  0  0  0
 17 21  1  0  0  0  0
 18 21  1  0  0  0  0
 19 20  1  0  0  0  0
 20 24  1  0  0  0  0
 20 25  1  0  0  0  0
 21 22  1  0  0  0  0
 22 26  1  0  0  0  0
 22 27  1  0  0  0  0
 23 28  1  0  0  0  0
 23 29  1  0  0  0  0
M  CHG  8   4  -1   5  -1   6  -1  10  -1  11  -1  14   1  15   1  16   1
M  CHG  2  17   1  18   1
M  END
> <PUBCHEM_COMPOUND_CID>
141594

> <PUBCHEM_CONFORMER_RMSD>
1

> <PUBCHEM_CONFORMER_DIVERSEORDER>
2
9
11
5
13
10
8
7
4
3
1
6
12

> <PUBCHEM_MMFF94_PARTIAL_CHARGES>
23
1 -0.34
10 -0.52
11 -0.52
12 -0.52
13 -0.52
14 0.8
15 0.8
16 0.8
17 0.8
18 0.8
19 0.72
2 -0.56
20 0.28
21 0.82
22 0.28
23 0.56
3 -0.56
4 -0.52
5 -0.52
6 -0.52
7 -0.52
8 -0.52
9 -0.52

> <PUBCHEM_EFFECTIVE_ROTOR_COUNT>
11

> <PUBCHEM_PHARMACOPHORE_FEATURES>
17
1 10 acceptor
1 10 anion
1 11 acceptor
1 11 anion
1 12 acceptor
1 13 acceptor
1 2 acceptor
1 3 acceptor
1 4 acceptor
1 4 anion
1 5 acceptor
1 5 anion
1 6 acceptor
1 6 anion
1 7 acceptor
1 8 acceptor
1 9 acceptor

> <PUBCHEM_HEAVY_ATOM_COUNT>
23

> <PUBCHEM_ATOM_DEF_STEREO_COUNT>
0

> <PUBCHEM_ATOM_UDEF_STEREO_COUNT>
0

> <PUBCHEM_BOND_DEF_STEREO_COUNT>
0

> <PUBCHEM_BOND_UDEF_STEREO_COUNT>
0

> <PUBCHEM_ISOTOPIC_ATOM_COUNT>
0

> <PUBCHEM_COMPONENT_COUNT>
1

> <PUBCHEM_CACTVS_TAUTO_COUNT>
1

> <PUBCHEM_CONFORMER_ID>
0002291A00000002

> <PUBCHEM_MMFF94_ENERGY>
58.1932

> <PUBCHEM_FEATURE_SELFOVERLAP>
86.748

> <PUBCHEM_SHAPE_FINGERPRINT>
10366900 7 17346599689876707738
10759866 29 18333739030888020758
11370993 70 17167857569428453635
12363563 72 18343016670995048081
12553582 1 18272371975121422857
12596599 1 16415212130626128287
12788726 201 18058177128632618993
13224815 77 17775564225821106964
13583140 156 17968375757409743959
15183329 4 17988916748885793509
15375358 24 18341612637612024681
15635459 17 18201721760150927037
18186145 218 17313391088690841528
192875 21 18340757152861329395
20645477 70 18335133181023983202
23557571 272 16950282957445002249
23559900 14 18259702307346070336
2871803 45 18413110563062172892
3004659 81 18114738244263223370
4921388 177 16370733664257278497

> <PUBCHEM_SHAPE_MULTIPOLES>
370.72
9.66
1.99
1.65
3.92
0.32
0.2
-1.53
1.19
-0.91
-0.44
0.03
-0.53
-0.29

> <PUBCHEM_SHAPE_SELFOVERLAP>
741.286

> <PUBCHEM_SHAPE_VOLUME>
216.7

> <PUBCHEM_COORDINATE_TYPE>
2
5
10

$$$$
