160191
  -OEChem-11012401243D

 21 20  0     0  0  0  0  0  0999 V2000
   -3.0548    0.0682    1.1964 F   0  0  0  0  0  0  0  0  0  0  0  0
   -2.2189    1.6022   -0.1069 F   0  0  0  0  0  0  0  0  0  0  0  0
   -3.1868   -0.1524   -0.9674 F   0  0  0  0  0  0  0  0  0  0  0  0
    1.6222   -1.4574   -0.6047 O   0  0  0  0  0  0  0  0  0  0  0  0
   -1.0009   -1.6754    0.1838 O   0  0  0  0  0  0  0  0  0  0  0  0
    2.7018    0.4381    0.4344 C   0  0  0  0  0  0  0  0  0  0  0  0
    1.5051   -0.3259   -0.1335 C   0  0  0  0  0  0  0  0  0  0  0  0
    0.1755    0.4065   -0.1403 C   0  0  0  0  0  0  0  0  0  0  0  0
    3.9595   -0.4279    0.4357 C   0  0  0  0  0  0  0  0  0  0  0  0
    2.9302    1.7185   -0.3607 C   0  0  0  0  0  0  0  0  0  0  0  0
   -1.0570   -0.4571    0.0255 C   0  0  0  0  0  0  0  0  0  0  0  0
   -2.3759    0.2625    0.0378 C   0  0  0  0  0  0  0  0  0  0  0  0
    2.4618    0.6909    1.4742 H   0  0  0  0  0  0  0  0  0  0  0  0
    0.0988    0.9518   -1.0862 H   0  0  0  0  0  0  0  0  0  0  0  0
    0.1734    1.1190    0.6920 H   0  0  0  0  0  0  0  0  0  0  0  0
    4.8007    0.1082    0.8874 H   0  0  0  0  0  0  0  0  0  0  0  0
    4.2474   -0.7169   -0.5813 H   0  0  0  0  0  0  0  0  0  0  0  0
    3.8000   -1.3472    1.0098 H   0  0  0  0  0  0  0  0  0  0  0  0
    2.0763    2.3989   -0.2806 H   0  0  0  0  0  0  0  0  0  0  0  0
    3.8118    2.2542    0.0070 H   0  0  0  0  0  0  0  0  0  0  0  0
    3.0807    1.5028   -1.4243 H   0  0  0  0  0  0  0  0  0  0  0  0
  1 12  1  0  0  0  0
  2 12  1  0  0  0  0
  3 12  1  0  0  0  0
  4  7  2  0  0  0  0
  5 11  2  0  0  0  0
  6  7  1  0  0  0  0
  6  9  1  0  0  0  0
  6 10  1  0  0  0  0
  6 13  1  0  0  0  0
  7  8  1  0  0  0  0
  8 11  1  0  0  0  0
  8 14  1  0  0  0  0
  8 15  1  0  0  0  0
  9 16  1  0  0  0  0
  9 17  1  0  0  0  0
  9 18  1  0  0  0  0
 10 19  1  0  0  0  0
 10 20  1  0  0  0  0
 10 21  1  0  0  0  0
 11 12  1  0  0  0  0
M  END
> <PUBCHEM_COMPOUND_CID>
160191

> <PUBCHEM_CONFORMER_RMSD>
0.6

> <PUBCHEM_CONFORMER_DIVERSEORDER>
1
35
41
42
6
24
43
16
9
32
13
40
2
39
28
3
20
26
5
10
31
38
36
25
18
19
33
34
7
27
15
14
29
37
30
8
4
12
17
23
11
21
22

> <PUBCHEM_MMFF94_PARTIAL_CHARGES>
10
1 -0.34
11 0.45
12 1.08
2 -0.34
3 -0.34
4 -0.57
5 -0.57
6 0.06
7 0.45
8 0.12

> <PUBCHEM_EFFECTIVE_ROTOR_COUNT>
4

> <PUBCHEM_PHARMACOPHORE_FEATURES>
4
1 4 acceptor
1 5 acceptor
1 8 anion
3 6 9 10 hydrophobe

> <PUBCHEM_HEAVY_ATOM_COUNT>
12

> <PUBCHEM_ATOM_DEF_STEREO_COUNT>
0

> <PUBCHEM_ATOM_UDEF_STEREO_COUNT>
0

> <PUBCHEM_BOND_DEF_STEREO_COUNT>
0

> <PUBCHEM_BOND_UDEF_STEREO_COUNT>
0

> <PUBCHEM_ISOTOPIC_ATOM_COUNT>
0

> <PUBCHEM_COMPONENT_COUNT>
1

> <PUBCHEM_CACTVS_TAUTO_COUNT>
5

> <PUBCHEM_CONFORMER_ID>
000271BF00000001

> <PUBCHEM_MMFF94_ENERGY>
10.9242

> <PUBCHEM_FEATURE_SELFOVERLAP>
20.302

> <PUBCHEM_SHAPE_FINGERPRINT>
10219947 1 18335417976421753276
12162725 195 18411697690525398716
12251169 10 18334008411178647664
124424 183 17822562833518585120
12932764 1 17203607086114241505
13380535 76 18413385445200956118
14144814 61 18408603656336111480
14325111 11 18410854395335052968
14390081 3 18272651259543233080
15775835 57 17989490701574209785
18186145 218 18130514024108156374
19107657 47 18187071850169106008
20201158 50 18413106143514230602
20281407 28 9079115561719380164
20645464 45 18408327670127274835
20715346 28 17967538964768411271
20871998 184 18198069277160942103
21028194 46 18272929431906286528
23402539 116 18339909481294566007
3248919 1 18201722868379083462

> <PUBCHEM_SHAPE_MULTIPOLES>
213.39
6.19
1.44
0.8
0.74
0.14
0.05
0.9
0.56
0.42
-0.16
-0.25
-0.02
-0.1

> <PUBCHEM_SHAPE_SELFOVERLAP>
415.198

> <PUBCHEM_SHAPE_VOLUME>
129.5

> <PUBCHEM_COORDINATE_TYPE>
2
5
10

$$$$
