66089
  -OEChem-11012401063D

 17 18  0     0  0  0  0  0  0999 V2000
   -0.7386    2.3734    0.0009 O   0  0  0  0  0  0  0  0  0  0  0  0
    1.5307    0.3799    0.0005 N   0  0  0  0  0  0  0  0  0  0  0  0
   -1.2272   -1.6877   -0.0001 N   0  0  0  0  0  0  0  0  0  0  0  0
    1.1977   -1.8320    0.0002 N   0  0  0  0  0  0  0  0  0  0  0  0
   -2.1593    0.5545   -0.0006 N   0  0  0  0  0  0  0  0  0  0  0  0
    0.1765    0.2014    0.0005 C   0  0  0  0  0  0  0  0  0  0  0  0
    0.0112   -1.1630    0.0002 C   0  0  0  0  0  0  0  0  0  0  0  0
    2.1000   -0.8703    0.0002 C   0  0  0  0  0  0  0  0  0  0  0  0
   -0.9015    1.1587    0.0004 C   0  0  0  0  0  0  0  0  0  0  0  0
    2.2493    1.6316   -0.0015 C   0  0  0  0  0  0  0  0  0  0  0  0
   -2.2388   -0.7466   -0.0007 C   0  0  0  0  0  0  0  0  0  0  0  0
    3.1716   -1.0173   -0.0003 H   0  0  0  0  0  0  0  0  0  0  0  0
    1.9757    2.1889    0.8978 H   0  0  0  0  0  0  0  0  0  0  0  0
    3.3245    1.4354   -0.0024 H   0  0  0  0  0  0  0  0  0  0  0  0
    1.9738    2.1870   -0.9013 H   0  0  0  0  0  0  0  0  0  0  0  0
   -1.4272   -2.6822   -0.0006 H   0  0  0  0  0  0  0  0  0  0  0  0
   -3.2342   -1.2197   -0.0014 H   0  0  0  0  0  0  0  0  0  0  0  0
  1  9  2  0  0  0  0
  2  6  1  0  0  0  0
  2  8  1  0  0  0  0
  2 10  1  0  0  0  0
  3  7  1  0  0  0  0
  3 11  1  0  0  0  0
  3 16  1  0  0  0  0
  4  7  1  0  0  0  0
  4  8  2  0  0  0  0
  5  9  1  0  0  0  0
  5 11  2  0  0  0  0
  6  7  2  0  0  0  0
  6  9  1  0  0  0  0
  8 12  1  0  0  0  0
 10 13  1  0  0  0  0
 10 14  1  0  0  0  0
 10 15  1  0  0  0  0
 11 17  1  0  0  0  0
M  END
> <PUBCHEM_COMPOUND_CID>
66089

> <PUBCHEM_CONFORMER_RMSD>
0.4

> <PUBCHEM_CONFORMER_DIVERSEORDER>
1

> <PUBCHEM_MMFF94_PARTIAL_CHARGES>
14
1 -0.57
10 0.26
11 0.44
12 0.15
16 0.4
17 0.06
2 0.05
3 -0.53
4 -0.57
5 -0.66
6 -0.24
7 0.31
8 0.04
9 0.87

> <PUBCHEM_EFFECTIVE_ROTOR_COUNT>
0

> <PUBCHEM_PHARMACOPHORE_FEATURES>
6
1 1 acceptor
1 3 donor
1 5 donor
3 2 4 8 cation
5 2 4 6 7 8 rings
6 3 5 6 7 9 11 rings

> <PUBCHEM_HEAVY_ATOM_COUNT>
11

> <PUBCHEM_ATOM_DEF_STEREO_COUNT>
0

> <PUBCHEM_ATOM_UDEF_STEREO_COUNT>
0

> <PUBCHEM_BOND_DEF_STEREO_COUNT>
0

> <PUBCHEM_BOND_UDEF_STEREO_COUNT>
0

> <PUBCHEM_ISOTOPIC_ATOM_COUNT>
0

> <PUBCHEM_COMPONENT_COUNT>
1

> <PUBCHEM_CACTVS_TAUTO_COUNT>
3

> <PUBCHEM_CONFORMER_ID>
0001022900000001

> <PUBCHEM_MMFF94_ENERGY>
20.1938

> <PUBCHEM_FEATURE_SELFOVERLAP>
30.6

> <PUBCHEM_SHAPE_FINGERPRINT>
11206711 2 18265618675718518692
12423570 1 13228385919024450158
12524768 44 18412268345555158127
12897270 3 18410857680689596492
16945 1 18338516322425922342
18185500 45 18339079414234531823
193761 8 18338798901304069664
19973954 147 18338798905567317000
21040471 1 17834114147786941922
23552423 10 18334296465597142118
23559900 14 17767128597627810390
241688 4 17474670550956236946
2748010 2 18339081613147024142
5084963 1 18058443201576270515
66348 1 18338235938349747460

> <PUBCHEM_SHAPE_MULTIPOLES>
200.58
2.97
2.19
0.57
0.16
0.45
0
0.16
0
0.2
0
0.01
0
0

> <PUBCHEM_SHAPE_SELFOVERLAP>
441.034

> <PUBCHEM_SHAPE_VOLUME>
109.5

> <PUBCHEM_COORDINATE_TYPE>
2
5
10

$$$$
