138351
  -OEChem-11012400363D

 42 42  0     0  0  0  0  0  0999 V2000
    1.4367    0.0002    0.3808 C   0  0  0  0  0  0  0  0  0  0  0  0
   -1.4364    0.0000   -0.3799 C   0  0  0  0  0  0  0  0  0  0  0  0
   -0.7481   -1.2624    0.1542 C   0  0  0  0  0  0  0  0  0  0  0  0
    0.7483   -1.2624   -0.1530 C   0  0  0  0  0  0  0  0  0  0  0  0
   -0.7483    1.2627    0.1542 C   0  0  0  0  0  0  0  0  0  0  0  0
    0.7482    1.2629   -0.1528 C   0  0  0  0  0  0  0  0  0  0  0  0
    2.9202   -0.0001    0.0170 C   0  0  0  0  0  0  0  0  0  0  0  0
   -2.9202   -0.0001   -0.0174 C   0  0  0  0  0  0  0  0  0  0  0  0
    3.5971   -1.2538    0.5960 C   0  0  0  0  0  0  0  0  0  0  0  0
    3.0802    0.0001   -1.5128 C   0  0  0  0  0  0  0  0  0  0  0  0
    3.5975    1.2533    0.5963 C   0  0  0  0  0  0  0  0  0  0  0  0
   -3.5966   -1.2538   -0.5972 C   0  0  0  0  0  0  0  0  0  0  0  0
   -3.0816   -0.0001    1.5121 C   0  0  0  0  0  0  0  0  0  0  0  0
   -3.5969    1.2534   -0.5974 C   0  0  0  0  0  0  0  0  0  0  0  0
    1.3351    0.0001    1.4757 H   0  0  0  0  0  0  0  0  0  0  0  0
   -1.3339    0.0001   -1.4748 H   0  0  0  0  0  0  0  0  0  0  0  0
   -0.8482   -1.3581    1.2392 H   0  0  0  0  0  0  0  0  0  0  0  0
   -1.1704   -2.1677   -0.2932 H   0  0  0  0  0  0  0  0  0  0  0  0
   -1.1708    2.1680   -0.2934 H   0  0  0  0  0  0  0  0  0  0  0  0
   -0.8486    1.3585    1.2392 H   0  0  0  0  0  0  0  0  0  0  0  0
    1.1706   -2.1675    0.2947 H   0  0  0  0  0  0  0  0  0  0  0  0
    0.8481   -1.3585   -1.2380 H   0  0  0  0  0  0  0  0  0  0  0  0
    0.8482    1.3593   -1.2378 H   0  0  0  0  0  0  0  0  0  0  0  0
    1.1705    2.1680    0.2952 H   0  0  0  0  0  0  0  0  0  0  0  0
    3.3788   -1.3686    1.6636 H   0  0  0  0  0  0  0  0  0  0  0  0
    4.6869   -1.1885    0.4923 H   0  0  0  0  0  0  0  0  0  0  0  0
    3.2982   -2.1720    0.0806 H   0  0  0  0  0  0  0  0  0  0  0  0
    4.1500    0.0001   -1.7622 H   0  0  0  0  0  0  0  0  0  0  0  0
    2.6716    0.8892   -1.9991 H   0  0  0  0  0  0  0  0  0  0  0  0
    2.6715   -0.8888   -1.9994 H   0  0  0  0  0  0  0  0  0  0  0  0
    3.2986    2.1717    0.0813 H   0  0  0  0  0  0  0  0  0  0  0  0
    4.6874    1.1877    0.4923 H   0  0  0  0  0  0  0  0  0  0  0  0
    3.3796    1.3677    1.6640 H   0  0  0  0  0  0  0  0  0  0  0  0
   -3.2981   -2.1721   -0.0816 H   0  0  0  0  0  0  0  0  0  0  0  0
   -4.6865   -1.1884   -0.4945 H   0  0  0  0  0  0  0  0  0  0  0  0
   -3.3774   -1.3685   -1.6647 H   0  0  0  0  0  0  0  0  0  0  0  0
   -2.6734    0.8890    1.9989 H   0  0  0  0  0  0  0  0  0  0  0  0
   -2.6731   -0.8890    1.9990 H   0  0  0  0  0  0  0  0  0  0  0  0
   -4.1516   -0.0003    1.7608 H   0  0  0  0  0  0  0  0  0  0  0  0
   -3.3778    1.3679   -1.6648 H   0  0  0  0  0  0  0  0  0  0  0  0
   -4.6869    1.1878   -0.4946 H   0  0  0  0  0  0  0  0  0  0  0  0
   -3.2987    2.1718   -0.0820 H   0  0  0  0  0  0  0  0  0  0  0  0
  1  4  1  0  0  0  0
  1  6  1  0  0  0  0
  1  7  1  0  0  0  0
  1 15  1  0  0  0  0
  2  3  1  0  0  0  0
  2  5  1  0  0  0  0
  2  8  1  0  0  0  0
  2 16  1  0  0  0  0
  3  4  1  0  0  0  0
  3 17  1  0  0  0  0
  3 18  1  0  0  0  0
  4 21  1  0  0  0  0
  4 22  1  0  0  0  0
  5  6  1  0  0  0  0
  5 19  1  0  0  0  0
  5 20  1  0  0  0  0
  6 23  1  0  0  0  0
  6 24  1  0  0  0  0
  7  9  1  0  0  0  0
  7 10  1  0  0  0  0
  7 11  1  0  0  0  0
  8 12  1  0  0  0  0
  8 13  1  0  0  0  0
  8 14  1  0  0  0  0
  9 25  1  0  0  0  0
  9 26  1  0  0  0  0
  9 27  1  0  0  0  0
 10 28  1  0  0  0  0
 10 29  1  0  0  0  0
 10 30  1  0  0  0  0
 11 31  1  0  0  0  0
 11 32  1  0  0  0  0
 11 33  1  0  0  0  0
 12 34  1  0  0  0  0
 12 35  1  0  0  0  0
 12 36  1  0  0  0  0
 13 37  1  0  0  0  0
 13 38  1  0  0  0  0
 13 39  1  0  0  0  0
 14 40  1  0  0  0  0
 14 41  1  0  0  0  0
 14 42  1  0  0  0  0
M  END
> <PUBCHEM_COMPOUND_CID>
138351

> <PUBCHEM_CONFORMER_RMSD>
0.6

> <PUBCHEM_CONFORMER_DIVERSEORDER>
1
2

> <PUBCHEM_MMFF94_PARTIAL_CHARGES>
0

> <PUBCHEM_EFFECTIVE_ROTOR_COUNT>
3.2

> <PUBCHEM_PHARMACOPHORE_FEATURES>
3
4 7 9 10 11 hydrophobe
4 8 12 13 14 hydrophobe
6 1 2 3 4 5 6 rings

> <PUBCHEM_HEAVY_ATOM_COUNT>
14

> <PUBCHEM_ATOM_DEF_STEREO_COUNT>
0

> <PUBCHEM_ATOM_UDEF_STEREO_COUNT>
0

> <PUBCHEM_BOND_DEF_STEREO_COUNT>
0

> <PUBCHEM_BOND_UDEF_STEREO_COUNT>
0

> <PUBCHEM_ISOTOPIC_ATOM_COUNT>
0

> <PUBCHEM_COMPONENT_COUNT>
1

> <PUBCHEM_CACTVS_TAUTO_COUNT>
1

> <PUBCHEM_CONFORMER_ID>
00021C6F00000001

> <PUBCHEM_MMFF94_ENERGY>
49.028

> <PUBCHEM_FEATURE_SELFOVERLAP>
15.223

> <PUBCHEM_SHAPE_FINGERPRINT>
10062212 137 18336535041454631211
10219947 1 18410573985293875976
10608611 8 18410568491888656324
10980938 120 18410011057042222410
11132069 177 18341889684229286432
11401426 45 18411408501618450477
12032990 46 18410578383198183107
124424 183 18040428863444165939
12932764 1 18410859862469640197
13296908 3 18410290311162216324
13581323 91 17167871893202212987
13675066 3 18113897152348986874
13705890 14 16486977301805028310
13760787 19 17167869646691672099
13760787 5 18187651301202327335
14144814 61 18411981372967522123
14289901 80 17022913370875247352
14325111 11 18410852170183226048
14993402 34 18410293639819789303
15196674 1 18410569587104940036
15309172 13 18413394219887525243
15775835 57 18410572889934836134
16945 1 18411144631686266883
17844478 74 17968103018607587845
18186145 218 18202290199141130936
18522853 295 18411989031326850910
19422 9 18410856563934873799
200 152 17988633138972187279
20279233 1 18410853261104912737
20281407 28 18409449180466712713
20645476 183 17895490222869447542
20645477 70 18340761546760891238
22485316 2 18410568491888325028
23402539 116 18342446037571812220
23402655 69 18343016679347729325
23463225 33 18334854979049728730
23493267 7 17531249409408777201
23559900 14 18343580725319345854
2748010 2 18122909999221990817
3248919 1 17203890755755936860
5104073 3 18410852161661877211
633830 44 17703520921149967893

> <PUBCHEM_SHAPE_MULTIPOLES>
288.11
7.34
1.52
1.07
0
0
0
0
0
0
0
0
0
0

> <PUBCHEM_SHAPE_SELFOVERLAP>
566.426

> <PUBCHEM_SHAPE_VOLUME>
175.2

> <PUBCHEM_COORDINATE_TYPE>
2
5
10

$$$$
