71366122
  -OEChem-10312420312D

 71 70  0     0  0  0  0  0  0999 V2000
    6.3301    2.8840    0.0000 Si  0  0  0  0  0  0  0  0  0  0  0  0
    7.1962    3.3840    0.0000 C   0  0  0  0  0  0  0  0  0  0  0  0
    5.4641    2.3840    0.0000 C   0  0  0  0  0  0  0  0  0  0  0  0
    8.0622    2.8840    0.0000 C   0  0  0  0  0  0  0  0  0  0  0  0
    5.4641    1.3840    0.0000 C   0  0  0  0  0  0  0  0  0  0  0  0
    5.8301    3.7500    0.0000 C   0  0  0  0  0  0  0  0  0  0  0  0
    8.9282    3.3840    0.0000 C   0  0  0  0  0  0  0  0  0  0  0  0
    4.5981    0.8840    0.0000 C   0  0  0  0  0  0  0  0  0  0  0  0
    9.7942    2.8840    0.0000 C   0  0  0  0  0  0  0  0  0  0  0  0
    4.5981   -0.1160    0.0000 C   0  0  0  0  0  0  0  0  0  0  0  0
   10.6603    3.3840    0.0000 C   0  0  0  0  0  0  0  0  0  0  0  0
    3.7320   -0.6160    0.0000 C   0  0  0  0  0  0  0  0  0  0  0  0
    6.3301    4.6160    0.0000 C   0  0  0  0  0  0  0  0  0  0  0  0
   11.5263    2.8840    0.0000 C   0  0  0  0  0  0  0  0  0  0  0  0
    3.7320   -1.6160    0.0000 C   0  0  0  0  0  0  0  0  0  0  0  0
   12.3923    3.3840    0.0000 C   0  0  0  0  0  0  0  0  0  0  0  0
    2.8660   -2.1160    0.0000 C   0  0  0  0  0  0  0  0  0  0  0  0
   13.2583    2.8840    0.0000 C   0  0  0  0  0  0  0  0  0  0  0  0
    2.8660   -3.1160    0.0000 C   0  0  0  0  0  0  0  0  0  0  0  0
   14.1244    3.3840    0.0000 C   0  0  0  0  0  0  0  0  0  0  0  0
    2.0000   -3.6160    0.0000 C   0  0  0  0  0  0  0  0  0  0  0  0
   14.9904    2.8840    0.0000 C   0  0  0  0  0  0  0  0  0  0  0  0
    2.0000   -4.6160    0.0000 C   0  0  0  0  0  0  0  0  0  0  0  0
    6.6401    2.3470    0.0000 H   0  0  0  0  0  0  0  0  0  0  0  0
    7.5947    3.8589    0.0000 H   0  0  0  0  0  0  0  0  0  0  0  0
    6.7976    3.8589    0.0000 H   0  0  0  0  0  0  0  0  0  0  0  0
    5.2520    2.9666    0.0000 H   0  0  0  0  0  0  0  0  0  0  0  0
    4.8535    2.2763    0.0000 H   0  0  0  0  0  0  0  0  0  0  0  0
    7.6636    2.4090    0.0000 H   0  0  0  0  0  0  0  0  0  0  0  0
    8.4607    2.4090    0.0000 H   0  0  0  0  0  0  0  0  0  0  0  0
    5.6762    0.8014    0.0000 H   0  0  0  0  0  0  0  0  0  0  0  0
    6.0747    1.4916    0.0000 H   0  0  0  0  0  0  0  0  0  0  0  0
    5.3552    4.1485    0.0000 H   0  0  0  0  0  0  0  0  0  0  0  0
    5.3552    3.3515    0.0000 H   0  0  0  0  0  0  0  0  0  0  0  0
    9.3267    3.8589    0.0000 H   0  0  0  0  0  0  0  0  0  0  0  0
    8.5297    3.8589    0.0000 H   0  0  0  0  0  0  0  0  0  0  0  0
    4.3860    1.4666    0.0000 H   0  0  0  0  0  0  0  0  0  0  0  0
    3.9875    0.7763    0.0000 H   0  0  0  0  0  0  0  0  0  0  0  0
    9.3957    2.4090    0.0000 H   0  0  0  0  0  0  0  0  0  0  0  0
   10.1928    2.4090    0.0000 H   0  0  0  0  0  0  0  0  0  0  0  0
    4.8101   -0.6986    0.0000 H   0  0  0  0  0  0  0  0  0  0  0  0
    5.2087   -0.0084    0.0000 H   0  0  0  0  0  0  0  0  0  0  0  0
   11.0588    3.8589    0.0000 H   0  0  0  0  0  0  0  0  0  0  0  0
   10.2617    3.8589    0.0000 H   0  0  0  0  0  0  0  0  0  0  0  0
    3.5200   -0.0334    0.0000 H   0  0  0  0  0  0  0  0  0  0  0  0
    3.1215   -0.7237    0.0000 H   0  0  0  0  0  0  0  0  0  0  0  0
    6.8671    4.3060    0.0000 H   0  0  0  0  0  0  0  0  0  0  0  0
    6.6401    5.1530    0.0000 H   0  0  0  0  0  0  0  0  0  0  0  0
    5.7932    4.9260    0.0000 H   0  0  0  0  0  0  0  0  0  0  0  0
   11.1278    2.4090    0.0000 H   0  0  0  0  0  0  0  0  0  0  0  0
   11.9248    2.4090    0.0000 H   0  0  0  0  0  0  0  0  0  0  0  0
    3.9441   -2.1986    0.0000 H   0  0  0  0  0  0  0  0  0  0  0  0
    4.3426   -1.5084    0.0000 H   0  0  0  0  0  0  0  0  0  0  0  0
   12.7908    3.8589    0.0000 H   0  0  0  0  0  0  0  0  0  0  0  0
   11.9938    3.8589    0.0000 H   0  0  0  0  0  0  0  0  0  0  0  0
    2.6540   -1.5334    0.0000 H   0  0  0  0  0  0  0  0  0  0  0  0
    2.2554   -2.2237    0.0000 H   0  0  0  0  0  0  0  0  0  0  0  0
   12.8598    2.4090    0.0000 H   0  0  0  0  0  0  0  0  0  0  0  0
   13.6569    2.4090    0.0000 H   0  0  0  0  0  0  0  0  0  0  0  0
    3.0781   -3.6986    0.0000 H   0  0  0  0  0  0  0  0  0  0  0  0
    3.4766   -3.0084    0.0000 H   0  0  0  0  0  0  0  0  0  0  0  0
   14.5229    3.8589    0.0000 H   0  0  0  0  0  0  0  0  0  0  0  0
   13.7258    3.8589    0.0000 H   0  0  0  0  0  0  0  0  0  0  0  0
    1.7880   -3.0334    0.0000 H   0  0  0  0  0  0  0  0  0  0  0  0
    1.3894   -3.7237    0.0000 H   0  0  0  0  0  0  0  0  0  0  0  0
   14.6804    2.3470    0.0000 H   0  0  0  0  0  0  0  0  0  0  0  0
   15.5273    2.5740    0.0000 H   0  0  0  0  0  0  0  0  0  0  0  0
   15.3004    3.4209    0.0000 H   0  0  0  0  0  0  0  0  0  0  0  0
    1.3800   -4.6160    0.0000 H   0  0  0  0  0  0  0  0  0  0  0  0
    2.0000   -5.2360    0.0000 H   0  0  0  0  0  0  0  0  0  0  0  0
    2.6200   -4.6160    0.0000 H   0  0  0  0  0  0  0  0  0  0  0  0
  1  2  1  0  0  0  0
  1  3  1  0  0  0  0
  1  6  1  0  0  0  0
  1 24  1  0  0  0  0
  2  4  1  0  0  0  0
  2 25  1  0  0  0  0
  2 26  1  0  0  0  0
  3  5  1  0  0  0  0
  3 27  1  0  0  0  0
  3 28  1  0  0  0  0
  4  7  1  0  0  0  0
  4 29  1  0  0  0  0
  4 30  1  0  0  0  0
  5  8  1  0  0  0  0
  5 31  1  0  0  0  0
  5 32  1  0  0  0  0
  6 13  1  0  0  0  0
  6 33  1  0  0  0  0
  6 34  1  0  0  0  0
  7  9  1  0  0  0  0
  7 35  1  0  0  0  0
  7 36  1  0  0  0  0
  8 10  1  0  0  0  0
  8 37  1  0  0  0  0
  8 38  1  0  0  0  0
  9 11  1  0  0  0  0
  9 39  1  0  0  0  0
  9 40  1  0  0  0  0
 10 12  1  0  0  0  0
 10 41  1  0  0  0  0
 10 42  1  0  0  0  0
 11 14  1  0  0  0  0
 11 43  1  0  0  0  0
 11 44  1  0  0  0  0
 12 15  1  0  0  0  0
 12 45  1  0  0  0  0
 12 46  1  0  0  0  0
 13 47  1  0  0  0  0
 13 48  1  0  0  0  0
 13 49  1  0  0  0  0
 14 16  1  0  0  0  0
 14 50  1  0  0  0  0
 14 51  1  0  0  0  0
 15 17  1  0  0  0  0
 15 52  1  0  0  0  0
 15 53  1  0  0  0  0
 16 18  1  0  0  0  0
 16 54  1  0  0  0  0
 16 55  1  0  0  0  0
 17 19  1  0  0  0  0
 17 56  1  0  0  0  0
 17 57  1  0  0  0  0
 18 20  1  0  0  0  0
 18 58  1  0  0  0  0
 18 59  1  0  0  0  0
 19 21  1  0  0  0  0
 19 60  1  0  0  0  0
 19 61  1  0  0  0  0
 20 22  1  0  0  0  0
 20 62  1  0  0  0  0
 20 63  1  0  0  0  0
 21 23  1  0  0  0  0
 21 64  1  0  0  0  0
 21 65  1  0  0  0  0
 22 66  1  0  0  0  0
 22 67  1  0  0  0  0
 22 68  1  0  0  0  0
 23 69  1  0  0  0  0
 23 70  1  0  0  0  0
 23 71  1  0  0  0  0
M  END
> <PUBCHEM_COMPOUND_CID>
71366122

> <PUBCHEM_COMPOUND_CANONICALIZED>
1

> <PUBCHEM_CACTVS_COMPLEXITY>
182

> <PUBCHEM_CACTVS_HBOND_ACCEPTOR>
0

> <PUBCHEM_CACTVS_HBOND_DONOR>
0

> <PUBCHEM_CACTVS_ROTATABLE_BOND>
19

> <PUBCHEM_CACTVS_SUBSKEYS>
AAADcfB4AAgAAAAAAAAAAAAAAAAAAAAAAAAAAAAAAAAAAAAAAAAAGBAAAACACACAIABCAAAAAAEAAAAAAAAAAAAAAAAAAAAAAAAAAAIAAAAAAAAAAAAAAAEAgIAAAAAAAAAAAAAAAAAAAAAAAAAAAAAAAA==

> <PUBCHEM_IUPAC_OPENEYE_NAME>
didecyl(ethyl)silane

> <PUBCHEM_IUPAC_CAS_NAME>
didecyl(ethyl)silane

> <PUBCHEM_IUPAC_NAME_MARKUP>
didecyl(ethyl)silane

> <PUBCHEM_IUPAC_NAME>
didecyl(ethyl)silane

> <PUBCHEM_IUPAC_SYSTEMATIC_NAME>
didecyl(ethyl)silane

> <PUBCHEM_IUPAC_TRADITIONAL_NAME>
didecyl(ethyl)silane

> <PUBCHEM_IUPAC_INCHI>
InChI=1S/C22H48Si/c1-4-7-9-11-13-15-17-19-21-23(6-3)22-20-18-16-14-12-10-8-5-2/h23H,4-22H2,1-3H3

> <PUBCHEM_IUPAC_INCHIKEY>
MPDDMSGOAWBHHN-UHFFFAOYSA-N

> <PUBCHEM_EXACT_MASS>
340.352528066

> <PUBCHEM_MOLECULAR_FORMULA>
C22H48Si

> <PUBCHEM_MOLECULAR_WEIGHT>
340.7

> <PUBCHEM_OPENEYE_CAN_SMILES>
CCCCCCCCCC[SiH](CC)CCCCCCCCCC

> <PUBCHEM_OPENEYE_ISO_SMILES>
CCCCCCCCCC[SiH](CC)CCCCCCCCCC

> <PUBCHEM_CACTVS_TPSA>
0

> <PUBCHEM_MONOISOTOPIC_WEIGHT>
340.352528066

> <PUBCHEM_TOTAL_CHARGE>
0

> <PUBCHEM_HEAVY_ATOM_COUNT>
23

> <PUBCHEM_ATOM_DEF_STEREO_COUNT>
0

> <PUBCHEM_ATOM_UDEF_STEREO_COUNT>
0

> <PUBCHEM_BOND_DEF_STEREO_COUNT>
0

> <PUBCHEM_BOND_UDEF_STEREO_COUNT>
0

> <PUBCHEM_ISOTOPIC_ATOM_COUNT>
0

> <PUBCHEM_COMPONENT_COUNT>
1

> <PUBCHEM_CACTVS_TAUTO_COUNT>
-1

> <PUBCHEM_COORDINATE_TYPE>
1
5
255

$$$$
