5463115
  -OEChem-11012400373D

 30 31  0     0  0  0  0  0  0999 V2000
   -1.8796   -2.5123    0.2648 Cl  0  0  0  0  0  0  0  0  0  0  0  0
   -0.3223    0.5067   -2.6895 N   0  0  0  0  0  0  0  0  0  0  0  0
    1.9269    0.2643    0.0256 C   0  0  0  0  0  0  0  0  0  0  0  0
    2.6464   -0.9305    0.0425 C   0  0  0  0  0  0  0  0  0  0  0  0
    0.4928    0.2808   -0.2321 C   0  0  0  0  0  0  0  0  0  0  0  0
    2.5796    1.4750    0.2579 C   0  0  0  0  0  0  0  0  0  0  0  0
   -1.9047    0.2104    0.5333 C   0  0  0  0  0  0  0  0  0  0  0  0
   -0.4497    0.1914    0.7421 C   0  0  0  0  0  0  0  0  0  0  0  0
    4.0187   -0.9146    0.2920 C   0  0  0  0  0  0  0  0  0  0  0  0
    1.9803   -2.2464   -0.2022 C   0  0  0  0  0  0  0  0  0  0  0  0
    3.9519    1.4908    0.5073 C   0  0  0  0  0  0  0  0  0  0  0  0
    4.6714    0.2960    0.5243 C   0  0  0  0  0  0  0  0  0  0  0  0
   -2.6280   -0.9542    0.3120 C   0  0  0  0  0  0  0  0  0  0  0  0
   -2.5383    1.4467    0.5660 C   0  0  0  0  0  0  0  0  0  0  0  0
   -4.0077   -0.8823    0.1200 C   0  0  0  0  0  0  0  0  0  0  0  0
   -3.9180    1.5187    0.3741 C   0  0  0  0  0  0  0  0  0  0  0  0
   -4.6527    0.3541    0.1512 C   0  0  0  0  0  0  0  0  0  0  0  0
    0.0330    0.4054   -1.5893 C   0  0  0  0  0  0  0  0  0  0  0  0
    2.0349    2.4163    0.2487 H   0  0  0  0  0  0  0  0  0  0  0  0
   -0.1437    0.0986    1.7825 H   0  0  0  0  0  0  0  0  0  0  0  0
    4.5952   -1.8357    0.3101 H   0  0  0  0  0  0  0  0  0  0  0  0
    1.4411   -2.2451   -1.1548 H   0  0  0  0  0  0  0  0  0  0  0  0
    2.7080   -3.0640   -0.2541 H   0  0  0  0  0  0  0  0  0  0  0  0
    1.2887   -2.4806    0.6129 H   0  0  0  0  0  0  0  0  0  0  0  0
    4.4603    2.4334    0.6883 H   0  0  0  0  0  0  0  0  0  0  0  0
    5.7398    0.3086    0.7188 H   0  0  0  0  0  0  0  0  0  0  0  0
   -1.9806    2.3638    0.7394 H   0  0  0  0  0  0  0  0  0  0  0  0
   -4.5956   -1.7800   -0.0549 H   0  0  0  0  0  0  0  0  0  0  0  0
   -4.4204    2.4812    0.3984 H   0  0  0  0  0  0  0  0  0  0  0  0
   -5.7270    0.4103    0.0019 H   0  0  0  0  0  0  0  0  0  0  0  0
  1 13  1  0  0  0  0
  2 18  3  0  0  0  0
  3  4  1  0  0  0  0
  3  5  1  0  0  0  0
  3  6  2  0  0  0  0
  4  9  2  0  0  0  0
  4 10  1  0  0  0  0
  5  8  2  0  0  0  0
  5 18  1  0  0  0  0
  6 11  1  0  0  0  0
  6 19  1  0  0  0  0
  7  8  1  0  0  0  0
  7 13  1  0  0  0  0
  7 14  2  0  0  0  0
  8 20  1  0  0  0  0
  9 12  1  0  0  0  0
  9 21  1  0  0  0  0
 10 22  1  0  0  0  0
 10 23  1  0  0  0  0
 10 24  1  0  0  0  0
 11 12  2  0  0  0  0
 11 25  1  0  0  0  0
 12 26  1  0  0  0  0
 13 15  2  0  0  0  0
 14 16  1  0  0  0  0
 14 27  1  0  0  0  0
 15 17  1  0  0  0  0
 15 28  1  0  0  0  0
 16 17  2  0  0  0  0
 16 29  1  0  0  0  0
 17 30  1  0  0  0  0
M  END
> <PUBCHEM_COMPOUND_CID>
5463115

> <PUBCHEM_CONFORMER_RMSD>
0.6

> <PUBCHEM_CONFORMER_DIVERSEORDER>
1
10
5
8
11
9
6
14
7
12
3
2
13
4

> <PUBCHEM_MMFF94_PARTIAL_CHARGES>
27
1 -0.18
10 0.14
11 -0.15
12 -0.15
13 0.18
14 -0.15
15 -0.15
16 -0.15
17 -0.15
18 0.49
19 0.15
2 -0.56
20 0.15
21 0.15
25 0.15
26 0.15
27 0.15
28 0.15
29 0.15
3 0.03
30 0.15
4 -0.14
5 0.04
6 -0.15
7 0.03
8 -0.18
9 -0.15

> <PUBCHEM_EFFECTIVE_ROTOR_COUNT>
2

> <PUBCHEM_PHARMACOPHORE_FEATURES>
3
1 2 acceptor
6 3 4 6 9 11 12 rings
6 7 13 14 15 16 17 rings

> <PUBCHEM_HEAVY_ATOM_COUNT>
18

> <PUBCHEM_ATOM_DEF_STEREO_COUNT>
0

> <PUBCHEM_ATOM_UDEF_STEREO_COUNT>
0

> <PUBCHEM_BOND_DEF_STEREO_COUNT>
1

> <PUBCHEM_BOND_UDEF_STEREO_COUNT>
0

> <PUBCHEM_ISOTOPIC_ATOM_COUNT>
0

> <PUBCHEM_COMPONENT_COUNT>
1

> <PUBCHEM_CACTVS_TAUTO_COUNT>
1

> <PUBCHEM_CONFORMER_ID>
00535C4B00000001

> <PUBCHEM_MMFF94_ENERGY>
55.4357

> <PUBCHEM_FEATURE_SELFOVERLAP>
15.223

> <PUBCHEM_SHAPE_FINGERPRINT>
10366900 7 18059854008117516657
10616163 171 18341051925083740251
11370993 70 18411979161075507355
12107183 9 17692816986480179097
12236239 1 17894911841351355961
12251169 10 18409449197862690792
12500047 106 18411978074611934979
12633257 1 18338515223077597994
12670546 56 18341607114247100385
13538477 17 17060044982757909324
13583140 156 17917704759906949608
13675066 3 18040445369262181433
138480 1 17691408512070173427
14178342 30 18041285464422485795
14289901 80 18341613745460197921
15196674 1 18411982463863153483
15342168 16 18192148420431599068
15375358 24 18412546509038432027
15375462 478 18202283601976853928
15536298 74 18341334400850907138
15848700 24 16805039631393608468
1813 80 16877948221793422340
19141452 34 18186518821685408867
200 152 18060697299466432545
204376 136 15841549686580410132
20600515 1 16370732538712544156
20645477 56 18408043992286158593
20645477 70 18201721708643267030
21033648 29 18261098656996463689
21267235 1 18412273834423285186
21756936 100 17771054193288100552
22854114 59 18410854369538973056
23402539 116 18272364279099054469
23559900 14 18201158728862451378
296302 2 18272936028891605233
3286 77 18408038520471098824
351380 180 18273493468534133961
3545911 37 18412829083505515624
4214541 1 18411700976175360969
4340502 62 18341894099624699371
5104073 3 18411420604820506427
69090 78 18409728452478648083
6992083 37 17894920645923516975
77779 3 18412827984020164184
81228 2 16443907124668302804
8272917 22 18058736792676932590
9709674 26 18341901791858781459

> <PUBCHEM_SHAPE_MULTIPOLES>
367.32
8.98
2.01
1.19
0.42
0.96
1.03
-1.38
-2.19
-0.17
-0.24
-0.08
-0.24
0.13

> <PUBCHEM_SHAPE_SELFOVERLAP>
782.84

> <PUBCHEM_SHAPE_VOLUME>
202.3

> <PUBCHEM_COORDINATE_TYPE>
2
5
10

$$$$
