135405330
  -OEChem-11012401143D

 30 31  0     0  0  0  0  0  0999 V2000
   -2.3788    2.1220   -1.5336 O   0  0  0  0  0  0  0  0  0  0  0  0
    2.4020    2.0711    1.4967 O   0  0  0  0  0  0  0  0  0  0  0  0
   -1.0747    2.2346   -1.0449 N   0  0  0  0  0  0  0  0  0  0  0  0
    1.0780    2.2254    1.0779 N   0  0  0  0  0  0  0  0  0  0  0  0
   -1.6246    0.1253    0.0210 C   0  0  0  0  0  0  0  0  0  0  0  0
    1.6214    0.1227   -0.0040 C   0  0  0  0  0  0  0  0  0  0  0  0
   -0.7217    1.2268   -0.2720 C   0  0  0  0  0  0  0  0  0  0  0  0
    0.6923    1.2407    0.3229 C   0  0  0  0  0  0  0  0  0  0  0  0
   -1.9891   -0.1463    1.3398 C   0  0  0  0  0  0  0  0  0  0  0  0
    1.9738   -0.1267   -1.3304 C   0  0  0  0  0  0  0  0  0  0  0  0
   -2.1274   -0.6587   -1.0171 C   0  0  0  0  0  0  0  0  0  0  0  0
    2.1401   -0.6735    1.0169 C   0  0  0  0  0  0  0  0  0  0  0  0
   -2.8565   -1.2021    1.6203 C   0  0  0  0  0  0  0  0  0  0  0  0
    2.8448   -1.1725   -1.6358 C   0  0  0  0  0  0  0  0  0  0  0  0
   -2.9949   -1.7145   -0.7367 C   0  0  0  0  0  0  0  0  0  0  0  0
    3.0112   -1.7192    0.7116 C   0  0  0  0  0  0  0  0  0  0  0  0
   -3.3594   -1.9861    0.5821 C   0  0  0  0  0  0  0  0  0  0  0  0
    3.3636   -1.9688   -0.6148 C   0  0  0  0  0  0  0  0  0  0  0  0
   -1.6067    0.4583    2.1581 H   0  0  0  0  0  0  0  0  0  0  0  0
    1.5784    0.4881   -2.1346 H   0  0  0  0  0  0  0  0  0  0  0  0
   -1.8422   -0.4713   -2.0493 H   0  0  0  0  0  0  0  0  0  0  0  0
    1.8636   -0.5028    2.0543 H   0  0  0  0  0  0  0  0  0  0  0  0
   -3.1406   -1.4135    2.6471 H   0  0  0  0  0  0  0  0  0  0  0  0
    3.1194   -1.3666   -2.6685 H   0  0  0  0  0  0  0  0  0  0  0  0
   -3.3837   -2.3273   -1.5446 H   0  0  0  0  0  0  0  0  0  0  0  0
    3.4122   -2.3416    1.5062 H   0  0  0  0  0  0  0  0  0  0  0  0
   -4.0341   -2.8086    0.8005 H   0  0  0  0  0  0  0  0  0  0  0  0
    4.0412   -2.7836   -0.8526 H   0  0  0  0  0  0  0  0  0  0  0  0
   -2.4573    2.9298   -2.0685 H   0  0  0  0  0  0  0  0  0  0  0  0
    2.5294    2.8678    2.0387 H   0  0  0  0  0  0  0  0  0  0  0  0
  1  3  1  0  0  0  0
  1 29  1  0  0  0  0
  2  4  1  0  0  0  0
  2 30  1  0  0  0  0
  3  7  2  0  0  0  0
  4  8  2  0  0  0  0
  5  7  1  0  0  0  0
  5  9  2  0  0  0  0
  5 11  1  0  0  0  0
  6  8  1  0  0  0  0
  6 10  2  0  0  0  0
  6 12  1  0  0  0  0
  7  8  1  0  0  0  0
  9 13  1  0  0  0  0
  9 19  1  0  0  0  0
 10 14  1  0  0  0  0
 10 20  1  0  0  0  0
 11 15  2  0  0  0  0
 11 21  1  0  0  0  0
 12 16  2  0  0  0  0
 12 22  1  0  0  0  0
 13 17  2  0  0  0  0
 13 23  1  0  0  0  0
 14 18  2  0  0  0  0
 14 24  1  0  0  0  0
 15 17  1  0  0  0  0
 15 25  1  0  0  0  0
 16 18  1  0  0  0  0
 16 26  1  0  0  0  0
 17 27  1  0  0  0  0
 18 28  1  0  0  0  0
M  END
> <PUBCHEM_COMPOUND_CID>
135405330

> <PUBCHEM_CONFORMER_RMSD>
0.6

> <PUBCHEM_CONFORMER_DIVERSEORDER>
1
9
13
6
14
2
7
3
10
8
16
11
4
15
12
5

> <PUBCHEM_MMFF94_PARTIAL_CHARGES>
30
1 -0.34
10 -0.15
11 -0.15
12 -0.15
13 -0.15
14 -0.15
15 -0.15
16 -0.15
17 -0.15
18 -0.15
19 0.15
2 -0.34
20 0.15
21 0.15
22 0.15
23 0.15
24 0.15
25 0.15
26 0.15
27 0.15
28 0.15
29 0.4
3 -0.51
30 0.4
4 -0.51
5 0.09
6 0.09
7 0.36
8 0.36
9 -0.15

> <PUBCHEM_EFFECTIVE_ROTOR_COUNT>
3

> <PUBCHEM_PHARMACOPHORE_FEATURES>
6
1 1 anion
1 2 anion
1 3 acceptor
1 4 acceptor
6 5 9 11 13 15 17 rings
6 6 10 12 14 16 18 rings

> <PUBCHEM_HEAVY_ATOM_COUNT>
18

> <PUBCHEM_ATOM_DEF_STEREO_COUNT>
0

> <PUBCHEM_ATOM_UDEF_STEREO_COUNT>
0

> <PUBCHEM_BOND_DEF_STEREO_COUNT>
2

> <PUBCHEM_BOND_UDEF_STEREO_COUNT>
0

> <PUBCHEM_ISOTOPIC_ATOM_COUNT>
0

> <PUBCHEM_COMPONENT_COUNT>
1

> <PUBCHEM_CACTVS_TAUTO_COUNT>
-1

> <PUBCHEM_CONFORMER_ID>
08121F1200000001

> <PUBCHEM_MMFF94_ENERGY>
65.6735

> <PUBCHEM_FEATURE_SELFOVERLAP>
30.447

> <PUBCHEM_SHAPE_FINGERPRINT>
11578080 2 18410579482715826196
11582403 64 15888744015637776301
12202030 40 18410855464423304489
12363563 72 18410568483314721454
12553582 1 18411430504715400006
12596599 1 18130801087054389563
12714826 92 18264787470729514918
13083527 12 17981573221400853930
14115302 16 17971754367921925116
14787075 74 18338240461910393050
15276787 5 15553620495010518438
15375462 189 18271825535175059934
15422964 175 18044942513532723939
16752209 62 17750222626622599189
18186145 218 9726816958358340483
18981168 100 9222949330468561738
19766037 51 18115040678701775227
20361792 2 18336553801808366311
20645476 183 17389669579103243445
20645477 70 18199456830991769279
21731516 1 18410865360028123362
22445834 79 17845104041637768683
23557571 272 17822560711604527741
23559900 14 18121768432287776786
2748010 2 18338503205606434493
298252 57 16664867081662345308
31174 14 18272090560173637563
3797600 57 15767245949295807627
5262128 65 16298681541517653182
576247 118 18338818756816475331
81228 2 18041268929315438613

> <PUBCHEM_SHAPE_MULTIPOLES>
348.73
5.92
2.61
1.65
0.03
0.93
-0.01
-4.1
-0.01
-0.03
-0.01
0
0.17
1.28

> <PUBCHEM_SHAPE_SELFOVERLAP>
747.436

> <PUBCHEM_SHAPE_VOLUME>
192.2

> <PUBCHEM_COORDINATE_TYPE>
2
5
10

$$$$
