12484749
  -OEChem-11012400403D

 24 23  0     0  0  0  0  0  0999 V2000
    2.4326    0.2153   -0.6699 S   0  0  0  0  0  0  0  0  0  0  0  0
   -0.4706   -0.0739    0.0203 Si  0  0  0  0  0  0  0  0  0  0  0  0
   -0.4788   -1.6585   -0.5333 O   0  0  0  0  0  0  0  0  0  0  0  0
   -0.8669    0.9526   -1.2480 O   0  0  0  0  0  0  0  0  0  0  0  0
   -1.6323    0.0666    1.2239 O   0  0  0  0  0  0  0  0  0  0  0  0
    1.2320    0.3910    0.6819 C   0  0  0  0  0  0  0  0  0  0  0  0
   -0.1731   -2.7178    0.3624 C   0  0  0  0  0  0  0  0  0  0  0  0
   -2.1133    0.7949   -1.9116 C   0  0  0  0  0  0  0  0  0  0  0  0
   -1.8525    1.3251    1.8450 C   0  0  0  0  0  0  0  0  0  0  0  0
    3.9229    0.7047    0.2295 C   0  0  0  0  0  0  0  0  0  0  0  0
    1.2277    1.4272    1.0320 H   0  0  0  0  0  0  0  0  0  0  0  0
    1.5078   -0.2651    1.5123 H   0  0  0  0  0  0  0  0  0  0  0  0
   -0.2702   -3.6617   -0.1829 H   0  0  0  0  0  0  0  0  0  0  0  0
   -0.8729   -2.7404    1.2050 H   0  0  0  0  0  0  0  0  0  0  0  0
    0.8570   -2.6438    0.7272 H   0  0  0  0  0  0  0  0  0  0  0  0
   -2.9520    0.9452   -1.2231 H   0  0  0  0  0  0  0  0  0  0  0  0
   -2.1855   -0.1893   -2.3874 H   0  0  0  0  0  0  0  0  0  0  0  0
   -2.1790    1.5553   -2.6958 H   0  0  0  0  0  0  0  0  0  0  0  0
   -0.9650    1.6524    2.3972 H   0  0  0  0  0  0  0  0  0  0  0  0
   -2.6722    1.2112    2.5610 H   0  0  0  0  0  0  0  0  0  0  0  0
   -2.1457    2.0861    1.1135 H   0  0  0  0  0  0  0  0  0  0  0  0
    4.7820    0.6596   -0.4451 H   0  0  0  0  0  0  0  0  0  0  0  0
    4.1025    0.0253    1.0667 H   0  0  0  0  0  0  0  0  0  0  0  0
    3.8252    1.7284    0.5999 H   0  0  0  0  0  0  0  0  0  0  0  0
  1  6  1  0  0  0  0
  1 10  1  0  0  0  0
  2  3  1  0  0  0  0
  2  4  1  0  0  0  0
  2  5  1  0  0  0  0
  2  6  1  0  0  0  0
  3  7  1  0  0  0  0
  4  8  1  0  0  0  0
  5  9  1  0  0  0  0
  6 11  1  0  0  0  0
  6 12  1  0  0  0  0
  7 13  1  0  0  0  0
  7 14  1  0  0  0  0
  7 15  1  0  0  0  0
  8 16  1  0  0  0  0
  8 17  1  0  0  0  0
  8 18  1  0  0  0  0
  9 19  1  0  0  0  0
  9 20  1  0  0  0  0
  9 21  1  0  0  0  0
 10 22  1  0  0  0  0
 10 23  1  0  0  0  0
 10 24  1  0  0  0  0
M  END
> <PUBCHEM_COMPOUND_CID>
12484749

> <PUBCHEM_CONFORMER_RMSD>
0.6

> <PUBCHEM_CONFORMER_DIVERSEORDER>
2
11
13
4
7
1
8
12
6
3
10
5
9

> <PUBCHEM_MMFF94_PARTIAL_CHARGES>
10
1 -0.46
10 0.23
2 0.97
3 -0.58
4 -0.58
5 -0.58
6 0.15
7 0.28
8 0.28
9 0.28

> <PUBCHEM_EFFECTIVE_ROTOR_COUNT>
5

> <PUBCHEM_PHARMACOPHORE_FEATURES>
1
1 10 hydrophobe

> <PUBCHEM_HEAVY_ATOM_COUNT>
10

> <PUBCHEM_ATOM_DEF_STEREO_COUNT>
0

> <PUBCHEM_ATOM_UDEF_STEREO_COUNT>
0

> <PUBCHEM_BOND_DEF_STEREO_COUNT>
0

> <PUBCHEM_BOND_UDEF_STEREO_COUNT>
0

> <PUBCHEM_ISOTOPIC_ATOM_COUNT>
0

> <PUBCHEM_COMPONENT_COUNT>
1

> <PUBCHEM_CACTVS_TAUTO_COUNT>
1

> <PUBCHEM_CONFORMER_ID>
00BE808D00000002

> <PUBCHEM_MMFF94_ENERGY>
14.6124

> <PUBCHEM_FEATURE_SELFOVERLAP>
5.074

> <PUBCHEM_SHAPE_FINGERPRINT>
10702982 57 17273705251752739373
12423570 1 13083075729497665673
12932764 1 18041562542101465872
13024252 1 15140951902542396576
14817 1 12851920044065904911
18342897 96 17560808688520869832
20711978 78 17761228621619918835
20711985 344 17901361696297143802
21524375 3 17201379368182685888
23211744 41 17199988520412116225
23419403 2 17481685869233792319
3248919 1 18059855108404785868
3250762 1 17609220048300488449
528862 383 17981623562512167882
59915604 170 17057208298308258224
68250623 7 17130165121222428679
68419 9 17057221264940813475
76951 1 17339789302264812075

> <PUBCHEM_SHAPE_MULTIPOLES>
210.25
4.07
1.94
1.7
5.04
1.93
0.16
-1.99
0.07
-0.64
-0.34
-1.52
-0.79
-0.03

> <PUBCHEM_SHAPE_SELFOVERLAP>
356.539

> <PUBCHEM_SHAPE_VOLUME>
143.7

> <PUBCHEM_COORDINATE_TYPE>
2
5
10

$$$$
