568068
  -OEChem-11012401103D

 22 21  0     0  0  0  0  0  0999 V2000
    1.9115    1.0864    0.4842 O   0  0  0  0  0  0  0  0  0  0  0  0
   -2.1605    0.6719    0.4629 O   0  0  0  0  0  0  0  0  0  0  0  0
   -1.1429   -1.7857   -1.1003 O   0  0  0  0  0  0  0  0  0  0  0  0
    2.0769   -0.8960   -0.6838 O   0  0  0  0  0  0  0  0  0  0  0  0
   -0.5266    1.8138   -0.6977 O   0  0  0  0  0  0  0  0  0  0  0  0
   -0.0058   -0.2871    0.4173 C   0  0  0  0  0  0  0  0  0  0  0  0
   -0.5527   -1.6401   -0.0299 C   0  0  0  0  0  0  0  0  0  0  0  0
    1.4412   -0.0992   -0.0057 C   0  0  0  0  0  0  0  0  0  0  0  0
   -0.8967    0.8643   -0.0197 C   0  0  0  0  0  0  0  0  0  0  0  0
   -0.3053   -2.8099    0.8881 C   0  0  0  0  0  0  0  0  0  0  0  0
    3.2707    1.3925    0.1570 C   0  0  0  0  0  0  0  0  0  0  0  0
   -3.1098    1.6890    0.1274 C   0  0  0  0  0  0  0  0  0  0  0  0
   -0.0086   -0.2815    1.5161 H   0  0  0  0  0  0  0  0  0  0  0  0
   -0.7348   -3.7164    0.4527 H   0  0  0  0  0  0  0  0  0  0  0  0
    0.7694   -2.9562    1.0192 H   0  0  0  0  0  0  0  0  0  0  0  0
   -0.7820   -2.6243    1.8538 H   0  0  0  0  0  0  0  0  0  0  0  0
    3.9400    0.6308    0.5681 H   0  0  0  0  0  0  0  0  0  0  0  0
    3.5193    2.3576    0.6064 H   0  0  0  0  0  0  0  0  0  0  0  0
    3.3908    1.4689   -0.9278 H   0  0  0  0  0  0  0  0  0  0  0  0
   -4.0710    1.4167    0.5715 H   0  0  0  0  0  0  0  0  0  0  0  0
   -3.2298    1.7514   -0.9583 H   0  0  0  0  0  0  0  0  0  0  0  0
   -2.7935    2.6526    0.5380 H   0  0  0  0  0  0  0  0  0  0  0  0
  1  8  1  0  0  0  0
  1 11  1  0  0  0  0
  2  9  1  0  0  0  0
  2 12  1  0  0  0  0
  3  7  2  0  0  0  0
  4  8  2  0  0  0  0
  5  9  2  0  0  0  0
  6  7  1  0  0  0  0
  6  8  1  0  0  0  0
  6  9  1  0  0  0  0
  6 13  1  0  0  0  0
  7 10  1  0  0  0  0
 10 14  1  0  0  0  0
 10 15  1  0  0  0  0
 10 16  1  0  0  0  0
 11 17  1  0  0  0  0
 11 18  1  0  0  0  0
 11 19  1  0  0  0  0
 12 20  1  0  0  0  0
 12 21  1  0  0  0  0
 12 22  1  0  0  0  0
M  END
> <PUBCHEM_COMPOUND_CID>
568068

> <PUBCHEM_CONFORMER_RMSD>
0.6

> <PUBCHEM_CONFORMER_DIVERSEORDER>
1
29
2
26
12
30
9
16
28
14
7
3
8
25
31
10
17
27
15
24
11
5
6
21
22
19
20
4
23
13
18

> <PUBCHEM_MMFF94_PARTIAL_CHARGES>
12
1 -0.43
10 0.06
11 0.28
12 0.28
2 -0.43
3 -0.57
4 -0.57
5 -0.57
6 0.18
7 0.45
8 0.66
9 0.66

> <PUBCHEM_EFFECTIVE_ROTOR_COUNT>
5

> <PUBCHEM_PHARMACOPHORE_FEATURES>
4
1 3 acceptor
1 4 acceptor
1 5 acceptor
1 6 anion

> <PUBCHEM_HEAVY_ATOM_COUNT>
12

> <PUBCHEM_ATOM_DEF_STEREO_COUNT>
0

> <PUBCHEM_ATOM_UDEF_STEREO_COUNT>
0

> <PUBCHEM_BOND_DEF_STEREO_COUNT>
0

> <PUBCHEM_BOND_UDEF_STEREO_COUNT>
0

> <PUBCHEM_ISOTOPIC_ATOM_COUNT>
0

> <PUBCHEM_COMPONENT_COUNT>
1

> <PUBCHEM_CACTVS_TAUTO_COUNT>
5

> <PUBCHEM_CONFORMER_ID>
0008AB0400000001

> <PUBCHEM_MMFF94_ENERGY>
19.137

> <PUBCHEM_FEATURE_SELFOVERLAP>
20.297

> <PUBCHEM_SHAPE_FINGERPRINT>
1 1 18193275187235299079
100427 49 17188412105932907537
12423570 1 11393411289868041419
12532896 13 18410011043809160947
13380535 21 18341066197728926612
13380535 76 18342172280572256470
15490181 7 18265325114751328959
16945 1 17915444202612794967
20711985 344 18123173860664590346
20871998 184 18126294270284783606
21040471 1 18410016532888173960
21501502 16 18340480158126325966
21524375 3 18341608179203836881
23402539 116 18123733511998992070
23419403 2 17052237307460181663
2748010 2 18336840726977022279
5084963 1 18057600971358621992
528862 383 17977378339780597491
54338 74 17972861837944615944
6333449 129 18270961361684627092
81228 2 18193553608516675179

> <PUBCHEM_SHAPE_MULTIPOLES>
217.61
3.77
2.71
0.84
1.02
1.55
0.06
-3.08
-0.21
-0.86
-0.24
-0.06
0.28
0.06

> <PUBCHEM_SHAPE_SELFOVERLAP>
421.456

> <PUBCHEM_SHAPE_VOLUME>
132.2

> <PUBCHEM_COORDINATE_TYPE>
2
5
10

$$$$
