836871
  -OEChem-11012401173D

 31 32  0     0  0  0  0  0  0999 V2000
    0.0061   -0.0775    0.6676 O   0  0  0  0  0  0  0  0  0  0  0  0
   -0.3240   -0.7854   -1.5291 O   0  0  0  0  0  0  0  0  0  0  0  0
    2.1650    0.7383    0.0165 C   0  0  0  0  0  0  0  0  0  0  0  0
    3.5295    0.5085   -0.1601 C   0  0  0  0  0  0  0  0  0  0  0  0
    1.3752   -0.2887    0.4836 C   0  0  0  0  0  0  0  0  0  0  0  0
    4.0699   -0.7431    0.1353 C   0  0  0  0  0  0  0  0  0  0  0  0
    1.8814   -1.5349    0.7835 C   0  0  0  0  0  0  0  0  0  0  0  0
    1.5797    2.0777   -0.2997 C   0  0  0  0  0  0  0  0  0  0  0  0
    4.4330    1.5857   -0.6642 C   0  0  0  0  0  0  0  0  0  0  0  0
    3.2459   -1.7648    0.6071 C   0  0  0  0  0  0  0  0  0  0  0  0
   -2.1802   -0.1247   -0.1861 C   0  0  0  0  0  0  0  0  0  0  0  0
   -0.7713   -0.3675   -0.4516 C   0  0  0  0  0  0  0  0  0  0  0  0
   -3.1536   -0.8844   -0.8350 C   0  0  0  0  0  0  0  0  0  0  0  0
   -2.5584    0.8683    0.7175 C   0  0  0  0  0  0  0  0  0  0  0  0
   -4.5051   -0.6511   -0.5805 C   0  0  0  0  0  0  0  0  0  0  0  0
   -3.9099    1.1016    0.9722 C   0  0  0  0  0  0  0  0  0  0  0  0
   -4.8831    0.3419    0.3231 C   0  0  0  0  0  0  0  0  0  0  0  0
    5.1309   -0.9388    0.0047 H   0  0  0  0  0  0  0  0  0  0  0  0
    1.2408   -2.3302    1.1516 H   0  0  0  0  0  0  0  0  0  0  0  0
    0.6024    2.2304    0.1687 H   0  0  0  0  0  0  0  0  0  0  0  0
    2.2136    2.8884    0.0741 H   0  0  0  0  0  0  0  0  0  0  0  0
    1.4573    2.1882   -1.3820 H   0  0  0  0  0  0  0  0  0  0  0  0
    4.0469    2.0177   -1.5934 H   0  0  0  0  0  0  0  0  0  0  0  0
    4.5454    2.3742    0.0869 H   0  0  0  0  0  0  0  0  0  0  0  0
    5.4343    1.2006   -0.8877 H   0  0  0  0  0  0  0  0  0  0  0  0
    3.6665   -2.7392    0.8376 H   0  0  0  0  0  0  0  0  0  0  0  0
   -2.8760   -1.6639   -1.5398 H   0  0  0  0  0  0  0  0  0  0  0  0
   -1.8238    1.4849    1.2286 H   0  0  0  0  0  0  0  0  0  0  0  0
   -5.2630   -1.2429   -1.0853 H   0  0  0  0  0  0  0  0  0  0  0  0
   -4.2048    1.8768    1.6735 H   0  0  0  0  0  0  0  0  0  0  0  0
   -5.9355    0.5240    0.5209 H   0  0  0  0  0  0  0  0  0  0  0  0
  1  5  1  0  0  0  0
  1 12  1  0  0  0  0
  2 12  2  0  0  0  0
  3  4  2  0  0  0  0
  3  5  1  0  0  0  0
  3  8  1  0  0  0  0
  4  6  1  0  0  0  0
  4  9  1  0  0  0  0
  5  7  2  0  0  0  0
  6 10  2  0  0  0  0
  6 18  1  0  0  0  0
  7 10  1  0  0  0  0
  7 19  1  0  0  0  0
  8 20  1  0  0  0  0
  8 21  1  0  0  0  0
  8 22  1  0  0  0  0
  9 23  1  0  0  0  0
  9 24  1  0  0  0  0
  9 25  1  0  0  0  0
 10 26  1  0  0  0  0
 11 12  1  0  0  0  0
 11 13  2  0  0  0  0
 11 14  1  0  0  0  0
 13 15  1  0  0  0  0
 13 27  1  0  0  0  0
 14 16  2  0  0  0  0
 14 28  1  0  0  0  0
 15 17  2  0  0  0  0
 15 29  1  0  0  0  0
 16 17  1  0  0  0  0
 16 30  1  0  0  0  0
 17 31  1  0  0  0  0
M  END
> <PUBCHEM_COMPOUND_CID>
836871

> <PUBCHEM_CONFORMER_RMSD>
0.6

> <PUBCHEM_CONFORMER_DIVERSEORDER>
1
30
29
27
11
12
26
16
28
25
2
18
3
17
7
20
15
19
4
8
5
24
21
14
9
22
13
23
10
6

> <PUBCHEM_MMFF94_PARTIAL_CHARGES>
25
1 -0.23
10 -0.15
11 0.09
12 0.63
13 -0.15
14 -0.15
15 -0.15
16 -0.15
17 -0.15
18 0.15
19 0.15
2 -0.57
26 0.15
27 0.15
28 0.15
29 0.15
3 -0.14
30 0.15
31 0.15
4 -0.14
5 0.08
6 -0.15
7 -0.15
8 0.14
9 0.14

> <PUBCHEM_EFFECTIVE_ROTOR_COUNT>
3

> <PUBCHEM_PHARMACOPHORE_FEATURES>
3
1 2 acceptor
6 11 13 14 15 16 17 rings
6 3 4 5 6 7 10 rings

> <PUBCHEM_HEAVY_ATOM_COUNT>
17

> <PUBCHEM_ATOM_DEF_STEREO_COUNT>
0

> <PUBCHEM_ATOM_UDEF_STEREO_COUNT>
0

> <PUBCHEM_BOND_DEF_STEREO_COUNT>
0

> <PUBCHEM_BOND_UDEF_STEREO_COUNT>
0

> <PUBCHEM_ISOTOPIC_ATOM_COUNT>
0

> <PUBCHEM_COMPONENT_COUNT>
1

> <PUBCHEM_CACTVS_TAUTO_COUNT>
1

> <PUBCHEM_CONFORMER_ID>
000CC50700000001

> <PUBCHEM_MMFF94_ENERGY>
57.8635

> <PUBCHEM_FEATURE_SELFOVERLAP>
15.223

> <PUBCHEM_SHAPE_FINGERPRINT>
10062212 137 18060133250317829535
10354089 29 18409737265682987145
10616163 171 18200311142863185839
10912923 1 18413387635776351243
10980938 120 18334853918329781252
11471102 20 18259703406736222520
11615757 297 18407755941445108905
12107183 9 17691407412847644251
12236239 1 18273214188338212210
12251169 10 18412825763933470039
12670546 56 18271800224721788057
13167823 11 18413106156473232379
13675066 3 17131826556079725095
13760787 19 18342458166222216207
13760787 5 18409163299117190079
14252887 29 16660365865741193606
14341114 176 18335994116282979315
14386348 63 16225767406741762803
15342168 16 17678184991166028908
15375358 24 15791727512228227635
17834072 33 18410291436659938767
1813 80 18122911924169849030
18186145 218 18260264131527533818
19026448 5 18413105052513455163
19422 9 18341891878968371026
200 152 18411694405318340523
20233049 118 17489868232724877736
20279233 1 16081087073889303883
20612939 158 18260551121737819508
20645476 183 18201438137806847239
20645477 70 18260543394659650418
21033648 29 17458332057813983869
21065198 48 18411982442836242099
21267235 1 18410863122708819418
2255824 54 18335138713263561722
22646028 1 18343860013677765403
22854114 59 17676205783798355460
23048698 100 18408603647635316171
23402539 116 16558744603113965213
23402655 69 18410291406373615109
23557571 272 16128386982143398505
23558518 356 17246958841512920546
25 1 18260551173293387600
29717793 49 18130504150031058215
449060 50 17822014237108451213
474 4 18189334752610960220
5104073 3 18410292523133645787
522135 26 18335419054337277162
542803 24 18272654545456874177
573450 72 18060132112009259731
633830 44 18411705348410065103
77492 1 18272366464625303042
77779 3 18409730651433266723
8272917 22 18338802212639803183
84936 182 17984419908761714344
9981440 41 17332793354607000960

> <PUBCHEM_SHAPE_MULTIPOLES>
338.11
9.93
1.68
1.01
4.44
0.24
0.1
0.9
-0.04
-1.6
-0.06
0.39
-0.09
-1.34

> <PUBCHEM_SHAPE_SELFOVERLAP>
729.023

> <PUBCHEM_SHAPE_VOLUME>
185.6

> <PUBCHEM_COORDINATE_TYPE>
2
5
10

$$$$
