20389
  -OEChem-11012401023D

 41 40  0     0  0  0  0  0  0999 V2000
    4.3405    2.3737    0.4431 O   0  0  0  0  0  0  0  0  0  0  0  0
    4.0864   -2.3744    0.5652 O   0  0  0  0  0  0  0  0  0  0  0  0
    4.6412    1.2793   -1.5206 O   0  0  0  0  0  0  0  0  0  0  0  0
    4.4962   -1.4053   -1.4422 O   0  0  0  0  0  0  0  0  0  0  0  0
   -1.0669   -0.0373   -0.0057 C   0  0  0  0  0  0  0  0  0  0  0  0
   -2.4362    0.0852    0.6702 C   0  0  0  0  0  0  0  0  0  0  0  0
    0.1045    0.0630    0.9755 C   0  0  0  0  0  0  0  0  0  0  0  0
   -3.6103   -0.0859   -0.2977 C   0  0  0  0  0  0  0  0  0  0  0  0
    1.4466   -0.0264    0.2488 C   0  0  0  0  0  0  0  0  0  0  0  0
   -4.9505    0.0593    0.4273 C   0  0  0  0  0  0  0  0  0  0  0  0
    2.6734    0.0710    1.1687 C   0  0  0  0  0  0  0  0  0  0  0  0
   -6.1622   -0.0711   -0.5010 C   0  0  0  0  0  0  0  0  0  0  0  0
    4.0576    0.0160    0.4934 C   0  0  0  0  0  0  0  0  0  0  0  0
   -7.5314    0.0891    0.1646 C   0  0  0  0  0  0  0  0  0  0  0  0
   -8.6960    0.0040   -0.8095 C   0  0  0  0  0  0  0  0  0  0  0  0
    4.3619    1.2576   -0.3306 C   0  0  0  0  0  0  0  0  0  0  0  0
    4.2453   -1.2979   -0.2493 C   0  0  0  0  0  0  0  0  0  0  0  0
   -0.9741    0.7478   -0.7662 H   0  0  0  0  0  0  0  0  0  0  0  0
   -1.0121   -0.9976   -0.5334 H   0  0  0  0  0  0  0  0  0  0  0  0
   -2.5062    1.0651    1.1584 H   0  0  0  0  0  0  0  0  0  0  0  0
   -2.5122   -0.6695    1.4629 H   0  0  0  0  0  0  0  0  0  0  0  0
    0.0332   -0.7413    1.7172 H   0  0  0  0  0  0  0  0  0  0  0  0
    0.0463    1.0126    1.5207 H   0  0  0  0  0  0  0  0  0  0  0  0
   -3.5548   -1.0715   -0.7748 H   0  0  0  0  0  0  0  0  0  0  0  0
   -3.5400    0.6644   -1.0942 H   0  0  0  0  0  0  0  0  0  0  0  0
    1.4866   -0.9728   -0.3040 H   0  0  0  0  0  0  0  0  0  0  0  0
    1.5013    0.7750   -0.4983 H   0  0  0  0  0  0  0  0  0  0  0  0
   -4.9897    1.0364    0.9246 H   0  0  0  0  0  0  0  0  0  0  0  0
   -5.0224   -0.7000    1.2156 H   0  0  0  0  0  0  0  0  0  0  0  0
    2.6063   -0.7381    1.9079 H   0  0  0  0  0  0  0  0  0  0  0  0
    2.5938    1.0020    1.7446 H   0  0  0  0  0  0  0  0  0  0  0  0
   -6.1239   -1.0508   -0.9941 H   0  0  0  0  0  0  0  0  0  0  0  0
   -6.0720    0.6784   -1.2978 H   0  0  0  0  0  0  0  0  0  0  0  0
    4.8299    0.0070    1.2766 H   0  0  0  0  0  0  0  0  0  0  0  0
   -7.5711    1.0567    0.6787 H   0  0  0  0  0  0  0  0  0  0  0  0
   -7.6512   -0.6837    0.9330 H   0  0  0  0  0  0  0  0  0  0  0  0
   -8.7088   -0.9652   -1.3181 H   0  0  0  0  0  0  0  0  0  0  0  0
   -8.6279    0.7895   -1.5688 H   0  0  0  0  0  0  0  0  0  0  0  0
   -9.6456    0.1236   -0.2789 H   0  0  0  0  0  0  0  0  0  0  0  0
    4.5579    3.1797   -0.0719 H   0  0  0  0  0  0  0  0  0  0  0  0
    4.2000   -3.2193    0.0800 H   0  0  0  0  0  0  0  0  0  0  0  0
  1 16  1  0  0  0  0
  1 40  1  0  0  0  0
  2 17  1  0  0  0  0
  2 41  1  0  0  0  0
  3 16  2  0  0  0  0
  4 17  2  0  0  0  0
  5  6  1  0  0  0  0
  5  7  1  0  0  0  0
  5 18  1  0  0  0  0
  5 19  1  0  0  0  0
  6  8  1  0  0  0  0
  6 20  1  0  0  0  0
  6 21  1  0  0  0  0
  7  9  1  0  0  0  0
  7 22  1  0  0  0  0
  7 23  1  0  0  0  0
  8 10  1  0  0  0  0
  8 24  1  0  0  0  0
  8 25  1  0  0  0  0
  9 11  1  0  0  0  0
  9 26  1  0  0  0  0
  9 27  1  0  0  0  0
 10 12  1  0  0  0  0
 10 28  1  0  0  0  0
 10 29  1  0  0  0  0
 11 13  1  0  0  0  0
 11 30  1  0  0  0  0
 11 31  1  0  0  0  0
 12 14  1  0  0  0  0
 12 32  1  0  0  0  0
 12 33  1  0  0  0  0
 13 16  1  0  0  0  0
 13 17  1  0  0  0  0
 13 34  1  0  0  0  0
 14 15  1  0  0  0  0
 14 35  1  0  0  0  0
 14 36  1  0  0  0  0
 15 37  1  0  0  0  0
 15 38  1  0  0  0  0
 15 39  1  0  0  0  0
M  END
> <PUBCHEM_COMPOUND_CID>
20389

> <PUBCHEM_CONFORMER_RMSD>
1

> <PUBCHEM_CONFORMER_DIVERSEORDER>
1
81
54
18
84
67
100
78
24
19
65
28
116
34
5
8
99
29
96
70
115
37
89
76
105
42
82
68
101
45
119
23
4
62
51
73
25
31
107
9
17
72
98
71
11
63
80
40
97
50
64
95
88
12
93
77
41
38
22
39
108
114
58
2
85
6
74
21
30
126
36
120
94
102
121
61
110
47
44
69
104
112
118
33
59
16
60
20
66
48
117
79
55
49
32
106
10
43
123
3
46
103
87
129
111
92
128
124
13
109
127
122
14
90
7
75
113
26
83
15
91
56
86
27
125
57
35
52
53

> <PUBCHEM_MMFF94_PARTIAL_CHARGES>
9
1 -0.65
13 0.12
16 0.66
17 0.66
2 -0.65
3 -0.57
4 -0.57
40 0.5
41 0.5

> <PUBCHEM_EFFECTIVE_ROTOR_COUNT>
11

> <PUBCHEM_PHARMACOPHORE_FEATURES>
8
1 1 acceptor
1 13 anion
1 15 hydrophobe
1 2 acceptor
1 3 acceptor
1 4 acceptor
3 1 3 16 anion
3 2 4 17 anion

> <PUBCHEM_HEAVY_ATOM_COUNT>
17

> <PUBCHEM_ATOM_DEF_STEREO_COUNT>
0

> <PUBCHEM_ATOM_UDEF_STEREO_COUNT>
0

> <PUBCHEM_BOND_DEF_STEREO_COUNT>
0

> <PUBCHEM_BOND_UDEF_STEREO_COUNT>
0

> <PUBCHEM_ISOTOPIC_ATOM_COUNT>
0

> <PUBCHEM_COMPONENT_COUNT>
1

> <PUBCHEM_CACTVS_TAUTO_COUNT>
1

> <PUBCHEM_CONFORMER_ID>
00004FA500000001

> <PUBCHEM_MMFF94_ENERGY>
7.584

> <PUBCHEM_FEATURE_SELFOVERLAP>
41.217

> <PUBCHEM_SHAPE_FINGERPRINT>
125118 31 11458415822495267631
12916748 109 17530961376101485757
13533116 47 18410575063220060066
14251752 14 17560799893345641569
15183329 4 17846785105070341753
15716309 27 8286200557580668289
17844677 252 18336831905204250417
18222031 100 15482675697044626169
20157964 124 18409166623284759600
20281389 69 18130786742501470033
20397935 70 10303819786736808832
20645477 70 18343024359371824534
21150785 3 17346881190992857489
220451 1 18060137661434138103
221357 26 18408885122464944209
23035841 295 16773793706762990727
23081809 10 17989491805971609977
29717793 49 18272653424333214395
3004659 81 18202284676124658458
3014965 18 18411134693643945723
34797466 226 17967254200057644845
522135 26 18413109455318988498
5374978 207 10665225964794491446
59682541 52 18334575703085977579
6025842 7 18412547609267432446

> <PUBCHEM_SHAPE_MULTIPOLES>
326.37
21.49
1.47
1.09
44.37
0.05
-0.18
-0.37
-5.62
-3.93
-0.1
-0.88
-0.01
-0.12

> <PUBCHEM_SHAPE_SELFOVERLAP>
609.25

> <PUBCHEM_SHAPE_VOLUME>
203.1

> <PUBCHEM_COORDINATE_TYPE>
2
5
10

$$$$
