5463283
  -OEChem-11012400423D

 38 39  0     0  0  0  0  0  0999 V2000
    6.3801    1.1173    0.0392 O   0  5  0  0  0  0  0  0  0  0  0  0
    4.6836    2.5105    0.0377 O   0  0  0  0  0  0  0  0  0  0  0  0
    5.1506    1.3496   -0.0545 N   0  3  0  0  0  0  0  0  0  0  0  0
    0.6166   -0.8221    2.7078 N   0  0  0  0  0  0  0  0  0  0  0  0
   -5.9159    0.6708   -0.2932 C   0  0  0  0  0  0  0  0  0  0  0  0
   -4.4566    0.4094   -0.1318 C   0  0  0  0  0  0  0  0  0  0  0  0
   -6.7618   -0.0214    0.7922 C   0  0  0  0  0  0  0  0  0  0  0  0
   -6.4340    0.2770   -1.6894 C   0  0  0  0  0  0  0  0  0  0  0  0
   -3.5812    1.4679    0.1112 C   0  0  0  0  0  0  0  0  0  0  0  0
   -3.9668   -0.8933   -0.2244 C   0  0  0  0  0  0  0  0  0  0  0  0
   -1.7264   -0.0791    0.1686 C   0  0  0  0  0  0  0  0  0  0  0  0
   -2.2160    1.2237    0.2613 C   0  0  0  0  0  0  0  0  0  0  0  0
   -2.6018   -1.1377   -0.0743 C   0  0  0  0  0  0  0  0  0  0  0  0
   -0.3030   -0.3337    0.3253 C   0  0  0  0  0  0  0  0  0  0  0  0
    0.5852   -0.3256   -0.7045 C   0  0  0  0  0  0  0  0  0  0  0  0
    2.0304   -0.5704   -0.5914 C   0  0  0  0  0  0  0  0  0  0  0  0
    2.8892    0.4980   -0.3793 C   0  0  0  0  0  0  0  0  0  0  0  0
    2.5121   -1.8668   -0.6987 C   0  0  0  0  0  0  0  0  0  0  0  0
    4.2602    0.2650   -0.2722 C   0  0  0  0  0  0  0  0  0  0  0  0
    3.8830   -2.1000   -0.5917 C   0  0  0  0  0  0  0  0  0  0  0  0
    4.7571   -1.0340   -0.3783 C   0  0  0  0  0  0  0  0  0  0  0  0
    0.2154   -0.6053    1.6406 C   0  0  0  0  0  0  0  0  0  0  0  0
   -6.0967    1.7493   -0.1874 H   0  0  0  0  0  0  0  0  0  0  0  0
   -6.7085   -1.1130    0.7189 H   0  0  0  0  0  0  0  0  0  0  0  0
   -7.8145    0.2677    0.7008 H   0  0  0  0  0  0  0  0  0  0  0  0
   -6.4202    0.2648    1.7931 H   0  0  0  0  0  0  0  0  0  0  0  0
   -5.8564    0.7780   -2.4742 H   0  0  0  0  0  0  0  0  0  0  0  0
   -7.4833    0.5692   -1.8058 H   0  0  0  0  0  0  0  0  0  0  0  0
   -6.3677   -0.8027   -1.8615 H   0  0  0  0  0  0  0  0  0  0  0  0
   -3.9459    2.4888    0.1861 H   0  0  0  0  0  0  0  0  0  0  0  0
   -4.6304   -1.7327   -0.4131 H   0  0  0  0  0  0  0  0  0  0  0  0
   -1.5469    2.0599    0.4500 H   0  0  0  0  0  0  0  0  0  0  0  0
   -2.2359   -2.1590   -0.1495 H   0  0  0  0  0  0  0  0  0  0  0  0
    0.2385   -0.1218   -1.7159 H   0  0  0  0  0  0  0  0  0  0  0  0
    2.4788    1.5024   -0.3005 H   0  0  0  0  0  0  0  0  0  0  0  0
    1.8418   -2.7059   -0.8654 H   0  0  0  0  0  0  0  0  0  0  0  0
    4.2696   -3.1116   -0.6745 H   0  0  0  0  0  0  0  0  0  0  0  0
    5.8189   -1.2535   -0.2999 H   0  0  0  0  0  0  0  0  0  0  0  0
  1  3  1  0  0  0  0
  2  3  2  0  0  0  0
  3 19  1  0  0  0  0
  4 22  3  0  0  0  0
  5  6  1  0  0  0  0
  5  7  1  0  0  0  0
  5  8  1  0  0  0  0
  5 23  1  0  0  0  0
  6  9  2  0  0  0  0
  6 10  1  0  0  0  0
  7 24  1  0  0  0  0
  7 25  1  0  0  0  0
  7 26  1  0  0  0  0
  8 27  1  0  0  0  0
  8 28  1  0  0  0  0
  8 29  1  0  0  0  0
  9 12  1  0  0  0  0
  9 30  1  0  0  0  0
 10 13  2  0  0  0  0
 10 31  1  0  0  0  0
 11 12  2  0  0  0  0
 11 13  1  0  0  0  0
 11 14  1  0  0  0  0
 12 32  1  0  0  0  0
 13 33  1  0  0  0  0
 14 15  2  0  0  0  0
 14 22  1  0  0  0  0
 15 16  1  0  0  0  0
 15 34  1  0  0  0  0
 16 17  2  0  0  0  0
 16 18  1  0  0  0  0
 17 19  1  0  0  0  0
 17 35  1  0  0  0  0
 18 20  2  0  0  0  0
 18 36  1  0  0  0  0
 19 21  2  0  0  0  0
 20 21  1  0  0  0  0
 20 37  1  0  0  0  0
 21 38  1  0  0  0  0
M  CHG  2   1  -1   3   1
M  END
> <PUBCHEM_COMPOUND_CID>
5463283

> <PUBCHEM_CONFORMER_RMSD>
0.6

> <PUBCHEM_CONFORMER_DIVERSEORDER>
2
12
3
16
10
15
4
14
8
13
7
1
11
18
9
17
5
6

> <PUBCHEM_MMFF94_PARTIAL_CHARGES>
29
1 -0.52
10 -0.15
11 0.03
12 -0.15
13 -0.15
14 0.04
15 -0.18
16 0.03
17 -0.15
18 -0.15
19 0.13
2 -0.52
20 -0.15
21 -0.15
22 0.49
3 0.91
30 0.15
31 0.15
32 0.15
33 0.15
34 0.15
35 0.15
36 0.15
37 0.15
38 0.15
4 -0.56
5 0.14
6 -0.14
9 -0.15

> <PUBCHEM_EFFECTIVE_ROTOR_COUNT>
4

> <PUBCHEM_PHARMACOPHORE_FEATURES>
7
1 1 acceptor
1 1 anion
1 2 acceptor
1 4 acceptor
3 5 7 8 hydrophobe
6 16 17 18 19 20 21 rings
6 6 9 10 11 12 13 rings

> <PUBCHEM_HEAVY_ATOM_COUNT>
22

> <PUBCHEM_ATOM_DEF_STEREO_COUNT>
0

> <PUBCHEM_ATOM_UDEF_STEREO_COUNT>
0

> <PUBCHEM_BOND_DEF_STEREO_COUNT>
1

> <PUBCHEM_BOND_UDEF_STEREO_COUNT>
0

> <PUBCHEM_ISOTOPIC_ATOM_COUNT>
0

> <PUBCHEM_COMPONENT_COUNT>
1

> <PUBCHEM_CACTVS_TAUTO_COUNT>
1

> <PUBCHEM_CONFORMER_ID>
00535CF300000002

> <PUBCHEM_MMFF94_ENERGY>
69.2793

> <PUBCHEM_FEATURE_SELFOVERLAP>
35.602

> <PUBCHEM_SHAPE_FINGERPRINT>
10366900 7 16917064460791538591
10595046 47 18201719527084359941
10835480 77 18410289186519367973
10906281 52 17203346498159798063
11287383 113 18411422808302394915
11646440 116 17749118781167509037
12107183 9 17550113554217964498
12166972 35 17631734859983258954
12236239 1 18040434361334763643
12516196 113 14692567719472561195
12788726 201 16630256809414574539
12916748 109 18261117344229525371
13533116 47 18059294262521434430
14251732 16 18412267267982648835
14528608 73 18273497888123839196
15048467 5 18131354111411515065
15183329 4 18272931605312719085
17844677 252 18270973327405550044
1813 80 13830132784587969082
18222031 100 14261350249685029946
18335252 98 18411423951449777267
19489759 90 15936130751435043205
20157964 124 18412546513844673502
20645477 70 18201162031660868270
21150785 3 15554444132446449004
21521721 280 18272377485828136379
21641784 216 16916802763691126512
220451 1 16988844965161954647
23081809 10 17560799905876978959
23352939 185 17775570836013497465
23402539 116 18186799222608922879
23522609 53 17274280412768098217
23536379 177 18342741780366777835
23559900 14 18272643593459191561
23569914 2 17691352595975823617
2916195 48 18113336435784061421
29717793 49 17489314049074079270
300161 21 18408318895498591783
3004659 81 17703230607584658870
335352 9 18342181060403411886
34797466 226 17846225457335101500
3545911 37 18410859862659641956
4072396 5 14923941236797041114
4073 2 18187372068668524482
4325135 7 18131912663033654036
4340502 62 17240485801548367419
474 4 18040723597122316420
5104073 3 18336554819488535371
542803 24 17060622179112544047
7495541 125 17274813662753355683
9971528 1 18040440966941581574

> <PUBCHEM_SHAPE_MULTIPOLES>
431.05
16.1
1.73
1.27
7.51
0.28
-0.74
4.21
3.53
-2.56
0.16
0.67
-0.3
0.31

> <PUBCHEM_SHAPE_SELFOVERLAP>
921.192

> <PUBCHEM_SHAPE_VOLUME>
238.3

> <PUBCHEM_COORDINATE_TYPE>
2
5
10

$$$$
