77577
  -OEChem-11012400513D

 24 23  0     0  0  0  0  0  0999 V2000
    2.3416    1.1769   -0.2681 O   0  5  0  0  0  0  0  0  0  0  0  0
   -2.3415    1.1770    0.2683 O   0  5  0  0  0  0  0  0  0  0  0  0
    2.4050   -1.0199   -0.4249 O   0  0  0  0  0  0  0  0  0  0  0  0
   -2.4051   -1.0198    0.4248 O   0  0  0  0  0  0  0  0  0  0  0  0
    1.8756    0.0471   -0.1069 N   0  3  0  0  0  0  0  0  0  0  0  0
   -1.8756    0.0472    0.1068 N   0  3  0  0  0  0  0  0  0  0  0  0
    0.5408   -0.0422    0.5631 C   0  0  0  0  0  0  0  0  0  0  0  0
   -0.5408   -0.0421   -0.5630 C   0  0  0  0  0  0  0  0  0  0  0  0
    0.4777    1.1699    1.5076 C   0  0  0  0  0  0  0  0  0  0  0  0
    0.5901   -1.3321    1.3992 C   0  0  0  0  0  0  0  0  0  0  0  0
   -0.4775    1.1701   -1.5075 C   0  0  0  0  0  0  0  0  0  0  0  0
   -0.5902   -1.3321   -1.3992 C   0  0  0  0  0  0  0  0  0  0  0  0
   -0.4055    1.1171    2.1545 H   0  0  0  0  0  0  0  0  0  0  0  0
    0.4399    2.1342    0.9910 H   0  0  0  0  0  0  0  0  0  0  0  0
    1.3441    1.2005    2.1818 H   0  0  0  0  0  0  0  0  0  0  0  0
   -0.3197   -1.4451    1.9988 H   0  0  0  0  0  0  0  0  0  0  0  0
    0.7040   -2.2477    0.8103 H   0  0  0  0  0  0  0  0  0  0  0  0
    1.4263   -1.3116    2.1109 H   0  0  0  0  0  0  0  0  0  0  0  0
    0.4058    1.1172   -2.1544 H   0  0  0  0  0  0  0  0  0  0  0  0
   -1.3438    1.2008   -2.1819 H   0  0  0  0  0  0  0  0  0  0  0  0
   -0.4395    2.1343   -0.9909 H   0  0  0  0  0  0  0  0  0  0  0  0
   -1.4264   -1.3114   -2.1110 H   0  0  0  0  0  0  0  0  0  0  0  0
   -0.7043   -2.2476   -0.8103 H   0  0  0  0  0  0  0  0  0  0  0  0
    0.3195   -1.4451   -1.9989 H   0  0  0  0  0  0  0  0  0  0  0  0
  1  5  1  0  0  0  0
  2  6  1  0  0  0  0
  3  5  2  0  0  0  0
  4  6  2  0  0  0  0
  5  7  1  0  0  0  0
  6  8  1  0  0  0  0
  7  8  1  0  0  0  0
  7  9  1  0  0  0  0
  7 10  1  0  0  0  0
  8 11  1  0  0  0  0
  8 12  1  0  0  0  0
  9 13  1  0  0  0  0
  9 14  1  0  0  0  0
  9 15  1  0  0  0  0
 10 16  1  0  0  0  0
 10 17  1  0  0  0  0
 10 18  1  0  0  0  0
 11 19  1  0  0  0  0
 11 20  1  0  0  0  0
 11 21  1  0  0  0  0
 12 22  1  0  0  0  0
 12 23  1  0  0  0  0
 12 24  1  0  0  0  0
M  CHG  4   1  -1   2  -1   5   1   6   1
M  END
> <PUBCHEM_COMPOUND_CID>
77577

> <PUBCHEM_CONFORMER_RMSD>
0.6

> <PUBCHEM_CONFORMER_DIVERSEORDER>
1
5
3
6
2
4

> <PUBCHEM_MMFF94_PARTIAL_CHARGES>
8
1 -0.52
2 -0.52
3 -0.52
4 -0.52
5 0.8
6 0.8
7 0.24
8 0.24

> <PUBCHEM_EFFECTIVE_ROTOR_COUNT>
3

> <PUBCHEM_PHARMACOPHORE_FEATURES>
8
1 1 acceptor
1 1 anion
1 2 acceptor
1 2 anion
1 3 acceptor
1 4 acceptor
3 7 9 10 hydrophobe
3 8 11 12 hydrophobe

> <PUBCHEM_HEAVY_ATOM_COUNT>
12

> <PUBCHEM_ATOM_DEF_STEREO_COUNT>
0

> <PUBCHEM_ATOM_UDEF_STEREO_COUNT>
0

> <PUBCHEM_BOND_DEF_STEREO_COUNT>
0

> <PUBCHEM_BOND_UDEF_STEREO_COUNT>
0

> <PUBCHEM_ISOTOPIC_ATOM_COUNT>
0

> <PUBCHEM_COMPONENT_COUNT>
1

> <PUBCHEM_CACTVS_TAUTO_COUNT>
1

> <PUBCHEM_CONFORMER_ID>
00012F0900000001

> <PUBCHEM_MMFF94_ENERGY>
43.8221

> <PUBCHEM_FEATURE_SELFOVERLAP>
40.77

> <PUBCHEM_SHAPE_FINGERPRINT>
12423570 1 18268168597997429983
12897270 3 17603863386189389246
13024252 1 16154009957861248126
137420 1 12153572483699414152
15310529 11 18271248312855215060
15557651 10 18338504300780805824
16945 1 18410866459539452327
21040471 1 17632566137290413055
21922407 69 17241865679866395665
29004967 10 17847062185863011402
369184 2 16443892977140747348
5084963 1 18335138695703851861
528886 8 17894909633168414416
68250623 7 18410587183586211587

> <PUBCHEM_SHAPE_MULTIPOLES>
213.52
2.81
1.51
1.47
0
0.05
0
-0.08
0
0
0
0
0
-0.02

> <PUBCHEM_SHAPE_SELFOVERLAP>
420.042

> <PUBCHEM_SHAPE_VOLUME>
130.7

> <PUBCHEM_COORDINATE_TYPE>
2
5
10

$$$$
