143315
  -OEChem-11012401043D

 22 24  0     0  0  0  0  0  0999 V2000
   -1.4897    1.2574    0.0001 O   0  0  0  0  0  0  0  0  0  0  0  0
    2.7011   -0.5954   -0.0001 O   0  0  0  0  0  0  0  0  0  0  0  0
    1.4657    1.3357    0.0000 N   0  0  0  0  0  0  0  0  0  0  0  0
   -2.7404   -0.6503    0.0003 N   0  0  0  0  0  0  0  0  0  0  0  0
    0.6725    0.2328   -0.0001 C   0  0  0  0  0  0  0  0  0  0  0  0
   -0.6920    0.2073    0.0000 C   0  0  0  0  0  0  0  0  0  0  0  0
    1.3806   -0.9433   -0.0002 C   0  0  0  0  0  0  0  0  0  0  0  0
   -1.4066   -0.9701    0.0002 C   0  0  0  0  0  0  0  0  0  0  0  0
    0.7502   -2.1851   -0.0001 C   0  0  0  0  0  0  0  0  0  0  0  0
   -0.6788   -2.1847    0.0001 C   0  0  0  0  0  0  0  0  0  0  0  0
    2.6655    0.7797    0.0000 C   0  0  0  0  0  0  0  0  0  0  0  0
   -2.7298    0.6718   -0.0001 C   0  0  0  0  0  0  0  0  0  0  0  0
    3.9771    1.4486    0.0002 C   0  0  0  0  0  0  0  0  0  0  0  0
   -3.8753    1.5955   -0.0002 C   0  0  0  0  0  0  0  0  0  0  0  0
    1.3095   -3.1134   -0.0001 H   0  0  0  0  0  0  0  0  0  0  0  0
   -1.2080   -3.1342    0.0002 H   0  0  0  0  0  0  0  0  0  0  0  0
    3.8577    2.5362    0.0003 H   0  0  0  0  0  0  0  0  0  0  0  0
    4.5511    1.1681    0.8884 H   0  0  0  0  0  0  0  0  0  0  0  0
    4.5513    1.1683   -0.8878 H   0  0  0  0  0  0  0  0  0  0  0  0
   -3.8536    2.2344   -0.8880 H   0  0  0  0  0  0  0  0  0  0  0  0
   -4.8194    1.0425   -0.0006 H   0  0  0  0  0  0  0  0  0  0  0  0
   -3.8542    2.2339    0.8880 H   0  0  0  0  0  0  0  0  0  0  0  0
  1  6  1  0  0  0  0
  1 12  1  0  0  0  0
  2  7  1  0  0  0  0
  2 11  1  0  0  0  0
  3  5  1  0  0  0  0
  3 11  2  0  0  0  0
  4  8  1  0  0  0  0
  4 12  2  0  0  0  0
  5  6  1  0  0  0  0
  5  7  2  0  0  0  0
  6  8  2  0  0  0  0
  7  9  1  0  0  0  0
  8 10  1  0  0  0  0
  9 10  2  0  0  0  0
  9 15  1  0  0  0  0
 10 16  1  0  0  0  0
 11 13  1  0  0  0  0
 12 14  1  0  0  0  0
 13 17  1  0  0  0  0
 13 18  1  0  0  0  0
 13 19  1  0  0  0  0
 14 20  1  0  0  0  0
 14 21  1  0  0  0  0
 14 22  1  0  0  0  0
M  END
> <PUBCHEM_COMPOUND_CID>
143315

> <PUBCHEM_CONFORMER_RMSD>
0.4

> <PUBCHEM_CONFORMER_DIVERSEORDER>
1

> <PUBCHEM_MMFF94_PARTIAL_CHARGES>
16
1 -0.28
10 -0.15
11 0.3
12 0.3
13 0.18
14 0.18
15 0.15
16 0.15
2 -0.28
3 -0.57
4 -0.57
5 0.23
6 0.14
7 0.14
8 0.23
9 -0.15

> <PUBCHEM_EFFECTIVE_ROTOR_COUNT>
0

> <PUBCHEM_PHARMACOPHORE_FEATURES>
3
5 1 4 6 8 12 rings
5 2 3 5 7 11 rings
6 5 6 7 8 9 10 rings

> <PUBCHEM_HEAVY_ATOM_COUNT>
14

> <PUBCHEM_ATOM_DEF_STEREO_COUNT>
0

> <PUBCHEM_ATOM_UDEF_STEREO_COUNT>
0

> <PUBCHEM_BOND_DEF_STEREO_COUNT>
0

> <PUBCHEM_BOND_UDEF_STEREO_COUNT>
0

> <PUBCHEM_ISOTOPIC_ATOM_COUNT>
0

> <PUBCHEM_COMPONENT_COUNT>
1

> <PUBCHEM_CACTVS_TAUTO_COUNT>
1

> <PUBCHEM_CONFORMER_ID>
00022FD300000001

> <PUBCHEM_MMFF94_ENERGY>
27.7684

> <PUBCHEM_FEATURE_SELFOVERLAP>
15.461

> <PUBCHEM_SHAPE_FINGERPRINT>
10465860 228 18125448514199854001
10608611 8 18410854364927682849
10967382 1 18338798901187940677
11471102 20 18266455404489391917
11543360 7 15697708306964888065
12346645 44 18411138030427235953
13380535 76 18410571790428742947
13897977 150 18410008793657734997
14325111 11 18410855468718193824
14897335 6 18411695487017083445
15219456 202 18335710403554545291
15775835 57 18410577283691778117
16945 1 18266460004019668066
18186145 218 18272662216004902568
20510252 161 18199191861157262515
20645477 70 18196928869402680327
20871998 184 18055080010282097135
21501502 16 18410567388155940267
21524375 3 18410287021211986339
2334 1 18410855485903266307
23402539 116 18270388520363306333
23402655 69 18270668772139838789
23463225 33 18334570197064283826
23559900 14 18273218630094376228
25 1 18411136892186932549
2748010 2 18410302405821887455
305870 269 18334571326408652058
3071541 12 18196376913879955022
5104073 3 18409730655448569123
528886 8 18411132528473727664
53812653 166 18341890792404890424
6333449 129 18268427004551780174
7364860 26 18198060274824918166

> <PUBCHEM_SHAPE_MULTIPOLES>
266.41
5.64
2.15
0.59
0.2
0.81
0
-3.92
0
-0.07
0
0
0.01
0

> <PUBCHEM_SHAPE_SELFOVERLAP>
606.345

> <PUBCHEM_SHAPE_VOLUME>
143.2

> <PUBCHEM_COORDINATE_TYPE>
2
5
10

$$$$
