21620685
  -OEChem-10312420342D

 23 19  0     0  0  0  0  0  0999 V2000
    3.6111    0.4611    0.0000 Pt  0  0  0  0  0  0  0  0  0  0  0  0
    3.5066   -0.5334    0.0000 C   0  5  0  0  0  0  0  0  0  0  0  0
    3.7156    1.4556    0.0000 C   0  5  0  0  0  0  0  0  0  0  0  0
    2.6166    0.5656    0.0000 C   0  5  0  0  0  0  0  0  0  0  0  0
    4.6056    0.3566    0.0000 C   0  5  0  0  0  0  0  0  0  0  0  0
    2.6976   -1.1212    0.0000 C   0  0  0  0  0  0  0  0  0  0  0  0
    4.3156   -1.1212    0.0000 C   0  0  0  0  0  0  0  0  0  0  0  0
    3.0066   -2.0722    0.0000 C   0  0  0  0  0  0  0  0  0  0  0  0
    4.0066   -2.0722    0.0000 C   0  0  0  0  0  0  0  0  0  0  0  0
    2.9402   -0.2812    0.0000 H   0  0  0  0  0  0  0  0  0  0  0  0
    3.7805    2.0722    0.0000 H   0  0  0  0  0  0  0  0  0  0  0  0
    4.3323    1.3908    0.0000 H   0  0  0  0  0  0  0  0  0  0  0  0
    3.1584    1.7274    0.0000 H   0  0  0  0  0  0  0  0  0  0  0  0
    2.0000    0.6305    0.0000 H   0  0  0  0  0  0  0  0  0  0  0  0
    2.6814    1.1822    0.0000 H   0  0  0  0  0  0  0  0  0  0  0  0
    2.2522    0.0640    0.0000 H   0  0  0  0  0  0  0  0  0  0  0  0
    5.2222    0.2918    0.0000 H   0  0  0  0  0  0  0  0  0  0  0  0
    4.8774    0.9138    0.0000 H   0  0  0  0  0  0  0  0  0  0  0  0
    4.5408   -0.2600    0.0000 H   0  0  0  0  0  0  0  0  0  0  0  0
    2.1079   -0.9296    0.0000 H   0  0  0  0  0  0  0  0  0  0  0  0
    4.9053   -0.9296    0.0000 H   0  0  0  0  0  0  0  0  0  0  0  0
    2.6422   -2.5738    0.0000 H   0  0  0  0  0  0  0  0  0  0  0  0
    4.3710   -2.5738    0.0000 H   0  0  0  0  0  0  0  0  0  0  0  0
  2  6  1  0  0  0  0
  2  7  1  0  0  0  0
  2 10  1  0  0  0  0
  3 11  1  0  0  0  0
  3 12  1  0  0  0  0
  3 13  1  0  0  0  0
  4 14  1  0  0  0  0
  4 15  1  0  0  0  0
  4 16  1  0  0  0  0
  5 17  1  0  0  0  0
  5 18  1  0  0  0  0
  5 19  1  0  0  0  0
  6  8  2  0  0  0  0
  6 20  1  0  0  0  0
  7  9  2  0  0  0  0
  7 21  1  0  0  0  0
  8  9  1  0  0  0  0
  8 22  1  0  0  0  0
  9 23  1  0  0  0  0
M  CHG  5   1   4   2  -1   3  -1   4  -1   5  -1
M  END
> <PUBCHEM_COMPOUND_CID>
21620685

> <PUBCHEM_COMPOUND_CANONICALIZED>
1

> <PUBCHEM_CACTVS_COMPLEXITY>
23.7

> <PUBCHEM_CACTVS_HBOND_ACCEPTOR>
4

> <PUBCHEM_CACTVS_HBOND_DONOR>
0

> <PUBCHEM_CACTVS_ROTATABLE_BOND>
0

> <PUBCHEM_CACTVS_SUBSKEYS>
AAADccBwAAAAAAAAAAAABAAAAAAAAYAAAAAAAAAAAAAAAAABAAAAGAAAAAAACACAEAAyAIAAAACAACBCAAACAAAgAAAIiAAAAIgIICKAERCAIAAggAAIiAYAAAAAAAAAAAAAAAAAAAAAAAAAAAAAAAAAAA==

> <PUBCHEM_IUPAC_OPENEYE_NAME>
carbanide;cyclopenta-1,3-diene;platinum(4+)

> <PUBCHEM_IUPAC_CAS_NAME>
carbanide;cyclopenta-1,3-diene;platinum(4+)

> <PUBCHEM_IUPAC_NAME_MARKUP>
carbanide;cyclopenta-1,3-diene;platinum(4+)

> <PUBCHEM_IUPAC_NAME>
carbanide;cyclopenta-1,3-diene;platinum(4+)

> <PUBCHEM_IUPAC_SYSTEMATIC_NAME>
carbanide;cyclopenta-1,3-diene;platinum(4+)

> <PUBCHEM_IUPAC_TRADITIONAL_NAME>
carbanide;cyclopenta-1,3-diene;platinum(4+)

> <PUBCHEM_IUPAC_INCHI>
InChI=1S/C5H5.3CH3.Pt/c1-2-4-5-3-1;;;;/h1-5H;3*1H3;/q4*-1;+4

> <PUBCHEM_IUPAC_INCHIKEY>
KQNGEZAUPWGBOJ-UHFFFAOYSA-N

> <PUBCHEM_EXACT_MASS>
305.074345

> <PUBCHEM_MOLECULAR_FORMULA>
C8H14Pt

> <PUBCHEM_MOLECULAR_WEIGHT>
305.28

> <PUBCHEM_OPENEYE_CAN_SMILES>
[CH3-].[CH3-].[CH3-].[CH-]1C=CC=C1.[Pt+4]

> <PUBCHEM_OPENEYE_ISO_SMILES>
[CH3-].[CH3-].[CH3-].[CH-]1C=CC=C1.[Pt+4]

> <PUBCHEM_CACTVS_TPSA>
0

> <PUBCHEM_MONOISOTOPIC_WEIGHT>
305.074345

> <PUBCHEM_TOTAL_CHARGE>
0

> <PUBCHEM_HEAVY_ATOM_COUNT>
9

> <PUBCHEM_ATOM_DEF_STEREO_COUNT>
0

> <PUBCHEM_ATOM_UDEF_STEREO_COUNT>
0

> <PUBCHEM_BOND_DEF_STEREO_COUNT>
0

> <PUBCHEM_BOND_UDEF_STEREO_COUNT>
0

> <PUBCHEM_ISOTOPIC_ATOM_COUNT>
0

> <PUBCHEM_COMPONENT_COUNT>
5

> <PUBCHEM_CACTVS_TAUTO_COUNT>
-1

> <PUBCHEM_NONSTANDARDBOND>
1  2  6
1  3  6
1  4  6
1  5  6

> <PUBCHEM_COORDINATE_TYPE>
1
5
255

> <PUBCHEM_BONDANNOTATIONS>
2  6  8
2  7  8
6  8  8
7  9  8
8  9  8

$$$$
