28025
  -OEChem-11012400343D

 29 28  0     1  0  0  0  0  0999 V2000
    0.8090    0.3912    0.1601 C   0  0  0  0  0  0  0  0  0  0  0  0
   -0.6547    0.1867   -0.4033 C   0  0  1  0  0  0  0  0  0  0  0  0
    1.4996   -0.9590    0.5346 C   0  0  0  0  0  0  0  0  0  0  0  0
   -1.5553   -0.6501    0.5437 C   0  0  0  0  0  0  0  0  0  0  0  0
    1.6915    1.1078   -0.8905 C   0  0  0  0  0  0  0  0  0  0  0  0
    0.8073    1.2649    1.4356 C   0  0  0  0  0  0  0  0  0  0  0  0
   -1.3536    1.5108   -0.7594 C   0  0  0  0  0  0  0  0  0  0  0  0
    1.7094   -1.9390   -0.6141 C   0  0  0  0  0  0  0  0  0  0  0  0
   -2.9533   -0.9134   -0.0066 C   0  0  0  0  0  0  0  0  0  0  0  0
   -0.5669   -0.3735   -1.3440 H   0  0  0  0  0  0  0  0  0  0  0  0
    2.4895   -0.7441    0.9609 H   0  0  0  0  0  0  0  0  0  0  0  0
    0.9497   -1.4617    1.3382 H   0  0  0  0  0  0  0  0  0  0  0  0
   -1.6558   -0.1565    1.5162 H   0  0  0  0  0  0  0  0  0  0  0  0
   -1.0976   -1.6276    0.7237 H   0  0  0  0  0  0  0  0  0  0  0  0
    1.4185    2.1624   -1.0012 H   0  0  0  0  0  0  0  0  0  0  0  0
    1.6058    0.6387   -1.8763 H   0  0  0  0  0  0  0  0  0  0  0  0
    2.7484    1.0875   -0.5997 H   0  0  0  0  0  0  0  0  0  0  0  0
    0.2439    0.7966    2.2485 H   0  0  0  0  0  0  0  0  0  0  0  0
    1.8288    1.4235    1.8018 H   0  0  0  0  0  0  0  0  0  0  0  0
    0.3788    2.2552    1.2522 H   0  0  0  0  0  0  0  0  0  0  0  0
   -1.6314    2.0748    0.1364 H   0  0  0  0  0  0  0  0  0  0  0  0
   -2.2677    1.3292   -1.3342 H   0  0  0  0  0  0  0  0  0  0  0  0
   -0.7285    2.1496   -1.3883 H   0  0  0  0  0  0  0  0  0  0  0  0
    2.1979   -2.8455   -0.2412 H   0  0  0  0  0  0  0  0  0  0  0  0
    0.7604   -2.2400   -1.0659 H   0  0  0  0  0  0  0  0  0  0  0  0
    2.3512   -1.5202   -1.3941 H   0  0  0  0  0  0  0  0  0  0  0  0
   -3.4769   -1.6301    0.6347 H   0  0  0  0  0  0  0  0  0  0  0  0
   -2.9071   -1.3344   -1.0158 H   0  0  0  0  0  0  0  0  0  0  0  0
   -3.5564   -0.0012   -0.0323 H   0  0  0  0  0  0  0  0  0  0  0  0
  1  2  1  0  0  0  0
  1  3  1  0  0  0  0
  1  5  1  0  0  0  0
  1  6  1  0  0  0  0
  2  4  1  0  0  0  0
  2  7  1  0  0  0  0
  2 10  1  0  0  0  0
  3  8  1  0  0  0  0
  3 11  1  0  0  0  0
  3 12  1  0  0  0  0
  4  9  1  0  0  0  0
  4 13  1  0  0  0  0
  4 14  1  0  0  0  0
  5 15  1  0  0  0  0
  5 16  1  0  0  0  0
  5 17  1  0  0  0  0
  6 18  1  0  0  0  0
  6 19  1  0  0  0  0
  6 20  1  0  0  0  0
  7 21  1  0  0  0  0
  7 22  1  0  0  0  0
  7 23  1  0  0  0  0
  8 24  1  0  0  0  0
  8 25  1  0  0  0  0
  8 26  1  0  0  0  0
  9 27  1  0  0  0  0
  9 28  1  0  0  0  0
  9 29  1  0  0  0  0
M  END
> <PUBCHEM_COMPOUND_CID>
28025

> <PUBCHEM_CONFORMER_RMSD>
0.6

> <PUBCHEM_CONFORMER_DIVERSEORDER>
3
6
11
4
2
5
1
7
8
10
9

> <PUBCHEM_MMFF94_PARTIAL_CHARGES>
0

> <PUBCHEM_EFFECTIVE_ROTOR_COUNT>
3

> <PUBCHEM_PHARMACOPHORE_FEATURES>
5
1 7 hydrophobe
1 8 hydrophobe
1 9 hydrophobe
3 1 5 6 hydrophobe
4 1 2 3 4 hydrophobe

> <PUBCHEM_HEAVY_ATOM_COUNT>
9

> <PUBCHEM_ATOM_DEF_STEREO_COUNT>
0

> <PUBCHEM_ATOM_UDEF_STEREO_COUNT>
1

> <PUBCHEM_BOND_DEF_STEREO_COUNT>
0

> <PUBCHEM_BOND_UDEF_STEREO_COUNT>
0

> <PUBCHEM_ISOTOPIC_ATOM_COUNT>
0

> <PUBCHEM_COMPONENT_COUNT>
1

> <PUBCHEM_CACTVS_TAUTO_COUNT>
1

> <PUBCHEM_CONFORMER_ID>
00006D7900000003

> <PUBCHEM_MMFF94_ENERGY>
20.8706

> <PUBCHEM_FEATURE_SELFOVERLAP>
26.217

> <PUBCHEM_SHAPE_FINGERPRINT>
12423570 1 10850588077049575929
12897270 3 18115036323441069125
12932764 1 17988647462540426071
137420 1 14154279674533899074
14128692 85 18337685109068439686
16945 1 18265072373105841420
20653091 64 18335701611408285418
20711978 78 18201990045341100655
21040471 1 17835238226669738730
21922407 69 17058910325170215267
23211744 25 17387152917436304290
23552423 10 18113338578951571663
24536 1 18042103445238651269
29004967 10 17987504940614360418
5084963 1 18408317770348769067

> <PUBCHEM_SHAPE_MULTIPOLES>
185.22
3.14
1.86
1.13
2
0.26
0.2
1.14
-0.27
-0.56
-0.23
-0.31
-0.36
0.36

> <PUBCHEM_SHAPE_SELFOVERLAP>
332.12

> <PUBCHEM_SHAPE_VOLUME>
123.7

> <PUBCHEM_COORDINATE_TYPE>
2
5
10

$$$$
