12175834
  -OEChem-11012401053D

 20 20  0     1  0  0  0  0  0999 V2000
    0.6903   -0.3565    0.3428 C   0  0  1  0  0  0  0  0  0  0  0  0
   -0.6920   -0.3544   -0.3427 C   0  0  1  0  0  0  0  0  0  0  0  0
    0.7681   -1.8609    0.0088 C   0  0  0  0  0  0  0  0  0  0  0  0
   -0.7746   -1.8584   -0.0092 C   0  0  0  0  0  0  0  0  0  0  0  0
    1.7160    0.4935   -0.2981 C   0  0  0  0  0  0  0  0  0  0  0  0
   -1.7150    0.4988    0.2991 C   0  0  0  0  0  0  0  0  0  0  0  0
    2.0487    1.7157    0.1309 C   0  0  0  0  0  0  0  0  0  0  0  0
   -2.0415    1.7221   -0.1316 C   0  0  0  0  0  0  0  0  0  0  0  0
    0.6449   -0.1931    1.4304 H   0  0  0  0  0  0  0  0  0  0  0  0
   -0.6463   -0.1908   -1.4302 H   0  0  0  0  0  0  0  0  0  0  0  0
    1.2260   -2.4946    0.7734 H   0  0  0  0  0  0  0  0  0  0  0  0
    1.2115   -2.1063   -0.9640 H   0  0  0  0  0  0  0  0  0  0  0  0
   -1.2345   -2.4905   -0.7740 H   0  0  0  0  0  0  0  0  0  0  0  0
   -1.2188   -2.1027    0.9636 H   0  0  0  0  0  0  0  0  0  0  0  0
    2.2269    0.1036   -1.1747 H   0  0  0  0  0  0  0  0  0  0  0  0
   -2.2276    0.1111    1.1757 H   0  0  0  0  0  0  0  0  0  0  0  0
    2.8086    2.2922   -0.3850 H   0  0  0  0  0  0  0  0  0  0  0  0
    1.5711    2.1602    0.9972 H   0  0  0  0  0  0  0  0  0  0  0  0
   -2.7990    2.3028    0.3830 H   0  0  0  0  0  0  0  0  0  0  0  0
   -1.5612    2.1635   -0.9980 H   0  0  0  0  0  0  0  0  0  0  0  0
  1  2  1  0  0  0  0
  1  3  1  0  0  0  0
  1  5  1  0  0  0  0
  1  9  1  0  0  0  0
  2  4  1  0  0  0  0
  2  6  1  0  0  0  0
  2 10  1  0  0  0  0
  3  4  1  0  0  0  0
  3 11  1  0  0  0  0
  3 12  1  0  0  0  0
  4 13  1  0  0  0  0
  4 14  1  0  0  0  0
  5  7  2  0  0  0  0
  5 15  1  0  0  0  0
  6  8  2  0  0  0  0
  6 16  1  0  0  0  0
  7 17  1  0  0  0  0
  7 18  1  0  0  0  0
  8 19  1  0  0  0  0
  8 20  1  0  0  0  0
M  END
> <PUBCHEM_COMPOUND_CID>
12175834

> <PUBCHEM_CONFORMER_RMSD>
0.6

> <PUBCHEM_CONFORMER_DIVERSEORDER>
2
5
4
1
3

> <PUBCHEM_MMFF94_PARTIAL_CHARGES>
12
1 0.12
15 0.15
16 0.15
17 0.15
18 0.15
19 0.15
2 0.12
20 0.15
5 -0.27
6 -0.27
7 -0.3
8 -0.3

> <PUBCHEM_EFFECTIVE_ROTOR_COUNT>
2.8

> <PUBCHEM_PHARMACOPHORE_FEATURES>
3
1 7 hydrophobe
1 8 hydrophobe
4 1 2 3 4 rings

> <PUBCHEM_HEAVY_ATOM_COUNT>
8

> <PUBCHEM_ATOM_DEF_STEREO_COUNT>
2

> <PUBCHEM_ATOM_UDEF_STEREO_COUNT>
0

> <PUBCHEM_BOND_DEF_STEREO_COUNT>
0

> <PUBCHEM_BOND_UDEF_STEREO_COUNT>
0

> <PUBCHEM_ISOTOPIC_ATOM_COUNT>
0

> <PUBCHEM_COMPONENT_COUNT>
1

> <PUBCHEM_CACTVS_TAUTO_COUNT>
1

> <PUBCHEM_CONFORMER_ID>
00B9C9DA00000002

> <PUBCHEM_MMFF94_ENERGY>
16.9239

> <PUBCHEM_FEATURE_SELFOVERLAP>
15.223

> <PUBCHEM_SHAPE_FINGERPRINT>
18185500 45 17621317931633037753
20096714 4 18411138000262043108
21040471 1 18410575089100529476
23552449 1 17618782900238012444
29004967 10 17544199272724764219
5084963 1 18202280264860611403
54338 74 17615113816835022248

> <PUBCHEM_SHAPE_MULTIPOLES>
164.64
2.67
2.31
0.67
0.01
0.32
0
-1.84
0
-0.01
0
0
-0.01
0.03

> <PUBCHEM_SHAPE_SELFOVERLAP>
319.411

> <PUBCHEM_SHAPE_VOLUME>
102

> <PUBCHEM_COORDINATE_TYPE>
2
5
10

$$$$
