141631
  -OEChem-11012401213D

 17 18  0     1  0  0  0  0  0999 V2000
    2.8252   -0.2633    0.3829 N   0  0  0  0  0  0  0  0  0  0  0  0
    0.3191   -0.0167   -0.2514 C   0  0  2  0  0  0  0  0  0  0  0  0
   -0.5235    0.9928    0.4525 C   0  0  1  0  0  0  0  0  0  0  0  0
   -0.0840    1.2469   -0.9654 C   0  0  0  0  0  0  0  0  0  0  0  0
   -0.4699   -1.2885   -0.3685 C   0  0  0  0  0  0  0  0  0  0  0  0
   -1.8442    0.3579    0.7791 C   0  0  0  0  0  0  0  0  0  0  0  0
   -1.9282   -0.8761   -0.1287 C   0  0  0  0  0  0  0  0  0  0  0  0
    1.7055   -0.1531    0.0995 C   0  0  0  0  0  0  0  0  0  0  0  0
   -0.1157    1.6054    1.2431 H   0  0  0  0  0  0  0  0  0  0  0  0
   -0.8197    1.1871   -1.7585 H   0  0  0  0  0  0  0  0  0  0  0  0
    0.6576    2.0223   -1.1244 H   0  0  0  0  0  0  0  0  0  0  0  0
   -0.1646   -2.0075    0.4017 H   0  0  0  0  0  0  0  0  0  0  0  0
   -0.3471   -1.7612   -1.3484 H   0  0  0  0  0  0  0  0  0  0  0  0
   -2.6809    1.0417    0.6093 H   0  0  0  0  0  0  0  0  0  0  0  0
   -1.8530    0.0517    1.8311 H   0  0  0  0  0  0  0  0  0  0  0  0
   -2.5274   -1.6802    0.3084 H   0  0  0  0  0  0  0  0  0  0  0  0
   -2.3924   -0.5983   -1.0831 H   0  0  0  0  0  0  0  0  0  0  0  0
  1  8  3  0  0  0  0
  2  3  1  0  0  0  0
  2  4  1  0  0  0  0
  2  5  1  0  0  0  0
  2  8  1  0  0  0  0
  3  4  1  0  0  0  0
  3  6  1  0  0  0  0
  3  9  1  0  0  0  0
  4 10  1  0  0  0  0
  4 11  1  0  0  0  0
  5  7  1  0  0  0  0
  5 12  1  0  0  0  0
  5 13  1  0  0  0  0
  6  7  1  0  0  0  0
  6 14  1  0  0  0  0
  6 15  1  0  0  0  0
  7 16  1  0  0  0  0
  7 17  1  0  0  0  0
M  END
> <PUBCHEM_COMPOUND_CID>
141631

> <PUBCHEM_CONFORMER_RMSD>
0.4

> <PUBCHEM_CONFORMER_DIVERSEORDER>
2
3
1

> <PUBCHEM_MMFF94_PARTIAL_CHARGES>
10
1 -0.56
10 0.1
11 0.1
2 0.01
3 -0.19
4 -0.2
5 0.09
6 0.09
8 0.45
9 0.1

> <PUBCHEM_EFFECTIVE_ROTOR_COUNT>
0.8

> <PUBCHEM_PHARMACOPHORE_FEATURES>
2
1 1 acceptor
6 2 3 4 5 6 7 rings

> <PUBCHEM_HEAVY_ATOM_COUNT>
8

> <PUBCHEM_ATOM_DEF_STEREO_COUNT>
0

> <PUBCHEM_ATOM_UDEF_STEREO_COUNT>
2

> <PUBCHEM_BOND_DEF_STEREO_COUNT>
0

> <PUBCHEM_BOND_UDEF_STEREO_COUNT>
0

> <PUBCHEM_ISOTOPIC_ATOM_COUNT>
0

> <PUBCHEM_COMPONENT_COUNT>
1

> <PUBCHEM_CACTVS_TAUTO_COUNT>
1

> <PUBCHEM_CONFORMER_ID>
0002293F00000002

> <PUBCHEM_MMFF94_ENERGY>
17.6713

> <PUBCHEM_FEATURE_SELFOVERLAP>
10.148

> <PUBCHEM_SHAPE_FINGERPRINT>
12423570 1 18262533480651352541
13024252 1 15719390586207032408
137420 1 14616336224549964247
18185500 45 18265053728626604654
20645464 45 17704064071884409850
20653085 51 11026068007050364526
21040471 1 18056503671934415473
23552423 10 17974573799002826708
29004967 10 17240486939471827960
369184 2 18342727495178795018

> <PUBCHEM_SHAPE_MULTIPOLES>
159.66
2.75
1.27
0.87
1.5
0.02
-0.06
-0.56
0.67
-0.33
-0.21
-0.11
0.17
-0.2

> <PUBCHEM_SHAPE_SELFOVERLAP>
332.859

> <PUBCHEM_SHAPE_VOLUME>
91.8

> <PUBCHEM_COORDINATE_TYPE>
2
5
10

$$$$
