137439
  -OEChem-11012401023D

 51 50  0     0  0  0  0  0  0999 V2000
   -3.6499   -1.4161    0.1576 O   0  0  0  0  0  0  0  0  0  0  0  0
   -3.0942   -0.3134   -0.6171 O   0  0  0  0  0  0  0  0  0  0  0  0
   -4.5819    0.8926    0.6781 O   0  0  0  0  0  0  0  0  0  0  0  0
    2.2105    1.1521   -0.3237 C   0  0  0  0  0  0  0  0  0  0  0  0
    1.0554    1.5697    0.5909 C   0  0  0  0  0  0  0  0  0  0  0  0
    3.4207    0.6053    0.4399 C   0  0  0  0  0  0  0  0  0  0  0  0
   -0.1570    2.1059   -0.1788 C   0  0  0  0  0  0  0  0  0  0  0  0
    4.5664    0.1653   -0.4739 C   0  0  0  0  0  0  0  0  0  0  0  0
   -1.3204    2.5029    0.7333 C   0  0  0  0  0  0  0  0  0  0  0  0
    5.7748   -0.3038    0.3395 C   0  0  0  0  0  0  0  0  0  0  0  0
   -2.5415    3.0288   -0.0315 C   0  0  0  0  0  0  0  0  0  0  0  0
    6.9345   -0.7081   -0.5705 C   0  0  0  0  0  0  0  0  0  0  0  0
   -3.2039    2.0129   -0.9581 C   0  0  0  0  0  0  0  0  0  0  0  0
    8.1254   -1.2064    0.2328 C   0  0  0  0  0  0  0  0  0  0  0  0
   -2.6911   -2.4606    0.0650 C   0  0  0  0  0  0  0  0  0  0  0  0
   -3.7288    0.8204   -0.1971 C   0  0  0  0  0  0  0  0  0  0  0  0
   -1.3706   -1.9615    0.6498 C   0  0  0  0  0  0  0  0  0  0  0  0
   -3.2218   -3.6449    0.8698 C   0  0  0  0  0  0  0  0  0  0  0  0
   -2.5265   -2.8409   -1.4058 C   0  0  0  0  0  0  0  0  0  0  0  0
    2.5237    2.0138   -0.9258 H   0  0  0  0  0  0  0  0  0  0  0  0
    1.8545    0.3875   -1.0254 H   0  0  0  0  0  0  0  0  0  0  0  0
    1.4075    2.3385    1.2894 H   0  0  0  0  0  0  0  0  0  0  0  0
    0.7459    0.7085    1.1958 H   0  0  0  0  0  0  0  0  0  0  0  0
    3.1037   -0.2456    1.0556 H   0  0  0  0  0  0  0  0  0  0  0  0
    3.7824    1.3779    1.1298 H   0  0  0  0  0  0  0  0  0  0  0  0
    0.1479    2.9737   -0.7763 H   0  0  0  0  0  0  0  0  0  0  0  0
   -0.4821    1.3324   -0.8832 H   0  0  0  0  0  0  0  0  0  0  0  0
    4.2230   -0.6432   -1.1304 H   0  0  0  0  0  0  0  0  0  0  0  0
    4.8607    1.0027   -1.1181 H   0  0  0  0  0  0  0  0  0  0  0  0
   -1.6090    1.6485    1.3569 H   0  0  0  0  0  0  0  0  0  0  0  0
   -0.9796    3.2873    1.4205 H   0  0  0  0  0  0  0  0  0  0  0  0
    6.1012    0.4985    1.0124 H   0  0  0  0  0  0  0  0  0  0  0  0
    5.4847   -1.1547    0.9680 H   0  0  0  0  0  0  0  0  0  0  0  0
   -3.2781    3.3793    0.7025 H   0  0  0  0  0  0  0  0  0  0  0  0
   -2.2471    3.9056   -0.6208 H   0  0  0  0  0  0  0  0  0  0  0  0
    6.6103   -1.4978   -1.2583 H   0  0  0  0  0  0  0  0  0  0  0  0
    7.2442    0.1476   -1.1817 H   0  0  0  0  0  0  0  0  0  0  0  0
   -4.0576    2.4716   -1.4707 H   0  0  0  0  0  0  0  0  0  0  0  0
   -2.5163    1.6896   -1.7465 H   0  0  0  0  0  0  0  0  0  0  0  0
    8.4943   -0.4295    0.9101 H   0  0  0  0  0  0  0  0  0  0  0  0
    8.9431   -1.4891   -0.4375 H   0  0  0  0  0  0  0  0  0  0  0  0
    7.8566   -2.0839    0.8297 H   0  0  0  0  0  0  0  0  0  0  0  0
   -0.9195   -1.1665    0.0461 H   0  0  0  0  0  0  0  0  0  0  0  0
   -1.5200   -1.5469    1.6535 H   0  0  0  0  0  0  0  0  0  0  0  0
   -0.6372   -2.7724    0.7179 H   0  0  0  0  0  0  0  0  0  0  0  0
   -4.1928   -3.9751    0.4830 H   0  0  0  0  0  0  0  0  0  0  0  0
   -3.3856   -3.3625    1.9161 H   0  0  0  0  0  0  0  0  0  0  0  0
   -2.5316   -4.4945    0.8442 H   0  0  0  0  0  0  0  0  0  0  0  0
   -3.4977   -3.0680   -1.8602 H   0  0  0  0  0  0  0  0  0  0  0  0
   -2.0835   -2.0342   -2.0001 H   0  0  0  0  0  0  0  0  0  0  0  0
   -1.8812   -3.7193   -1.5163 H   0  0  0  0  0  0  0  0  0  0  0  0
  1  2  1  0  0  0  0
  1 15  1  0  0  0  0
  2 16  1  0  0  0  0
  3 16  2  0  0  0  0
  4  5  1  0  0  0  0
  4  6  1  0  0  0  0
  4 20  1  0  0  0  0
  4 21  1  0  0  0  0
  5  7  1  0  0  0  0
  5 22  1  0  0  0  0
  5 23  1  0  0  0  0
  6  8  1  0  0  0  0
  6 24  1  0  0  0  0
  6 25  1  0  0  0  0
  7  9  1  0  0  0  0
  7 26  1  0  0  0  0
  7 27  1  0  0  0  0
  8 10  1  0  0  0  0
  8 28  1  0  0  0  0
  8 29  1  0  0  0  0
  9 11  1  0  0  0  0
  9 30  1  0  0  0  0
  9 31  1  0  0  0  0
 10 12  1  0  0  0  0
 10 32  1  0  0  0  0
 10 33  1  0  0  0  0
 11 13  1  0  0  0  0
 11 34  1  0  0  0  0
 11 35  1  0  0  0  0
 12 14  1  0  0  0  0
 12 36  1  0  0  0  0
 12 37  1  0  0  0  0
 13 16  1  0  0  0  0
 13 38  1  0  0  0  0
 13 39  1  0  0  0  0
 14 40  1  0  0  0  0
 14 41  1  0  0  0  0
 14 42  1  0  0  0  0
 15 17  1  0  0  0  0
 15 18  1  0  0  0  0
 15 19  1  0  0  0  0
 17 43  1  0  0  0  0
 17 44  1  0  0  0  0
 17 45  1  0  0  0  0
 18 46  1  0  0  0  0
 18 47  1  0  0  0  0
 18 48  1  0  0  0  0
 19 49  1  0  0  0  0
 19 50  1  0  0  0  0
 19 51  1  0  0  0  0
M  END
> <PUBCHEM_COMPOUND_CID>
137439

> <PUBCHEM_CONFORMER_RMSD>
1.2

> <PUBCHEM_CONFORMER_DIVERSEORDER>
1
39
10
2
72
13
78
62
54
19
75
59
7
73
25
26
41
42
34
45
68
35
56
37
8
61
28
36
51
70
15
47
63
31
46
12
74
64
60
20
22
66
4
76
23
16
77
38
9
40
18
49
44
58
11
5
14
71
32
33
21
27
17
50
53
43
6
52
57
65
24
69
55
48
30
29
3
67

> <PUBCHEM_MMFF94_PARTIAL_CHARGES>
6
1 -0.28
13 0.06
15 0.28
16 0.66
2 -0.15
3 -0.57

> <PUBCHEM_EFFECTIVE_ROTOR_COUNT>
13

> <PUBCHEM_PHARMACOPHORE_FEATURES>
3
1 14 hydrophobe
1 3 acceptor
4 15 17 18 19 hydrophobe

> <PUBCHEM_HEAVY_ATOM_COUNT>
19

> <PUBCHEM_ATOM_DEF_STEREO_COUNT>
0

> <PUBCHEM_ATOM_UDEF_STEREO_COUNT>
0

> <PUBCHEM_BOND_DEF_STEREO_COUNT>
0

> <PUBCHEM_BOND_UDEF_STEREO_COUNT>
0

> <PUBCHEM_ISOTOPIC_ATOM_COUNT>
0

> <PUBCHEM_COMPONENT_COUNT>
1

> <PUBCHEM_CACTVS_TAUTO_COUNT>
1

> <PUBCHEM_CONFORMER_ID>
000218DF00000001

> <PUBCHEM_MMFF94_ENERGY>
11.4472

> <PUBCHEM_FEATURE_SELFOVERLAP>
15.223

> <PUBCHEM_SHAPE_FINGERPRINT>
10803635 8 18188204299912144492
11524674 6 17703784786866156764
12757275 245 18410292505948903637
12821665 9 18189345731164638628
12990986 174 18338800138207269230
14251740 79 18408042905368983808
14251751 18 18412828010591833936
14251757 5 18408039623903316642
14461889 52 18201144509217037474
14866123 147 18339085990673760459
15042514 8 18336831995862404089
15183329 4 17312814984255412506
15880784 105 16343122723623163004
16719943 64 18409166584915494746
20621476 30 18410296870426694430
21403212 168 18129675102139387777
23428019 142 17821730555015040658
23466295 7 18189625006642787907
23559900 14 18341040917520644680
25122255 55 18131079195451213638
445580 160 18343026558663995422
5282940 2 17896869959258617427
559249 180 18410291397778217319
56633871 153 18124325062873276315
57583515 52 18410855447386061596
6138700 20 18411978083977310183
6437827 68 18339642218750129630
9862886 166 18341613699006900032

> <PUBCHEM_SHAPE_MULTIPOLES>
373.4
15.76
4.14
0.97
42.28
1.86
0.12
7.15
0.54
-7.1
-0.27
-0.48
0.29
0.31

> <PUBCHEM_SHAPE_SELFOVERLAP>
689.302

> <PUBCHEM_SHAPE_VOLUME>
237.2

> <PUBCHEM_COORDINATE_TYPE>
2
5
10

$$$$
