5374689
  -OEChem-11012401203D

 41 43  0     1  0  0  0  0  0999 V2000
   -1.7748    0.2375   -2.5378 O   0  0  0  0  0  0  0  0  0  0  0  0
    0.4581    0.2306   -0.5180 N   0  0  0  0  0  0  0  0  0  0  0  0
    1.6173   -0.2457   -0.0361 N   0  0  0  0  0  0  0  0  0  0  0  0
   -1.9575   -0.1305   -1.1787 C   0  0  1  0  0  0  0  0  0  0  0  0
   -0.5837   -0.5714   -0.6080 C   0  0  0  0  0  0  0  0  0  0  0  0
   -2.6174    0.9598   -0.3509 C   0  0  0  0  0  0  0  0  0  0  0  0
   -0.4302   -1.9516   -0.1770 C   0  0  0  0  0  0  0  0  0  0  0  0
   -3.4565    0.5984    0.6848 C   0  0  0  0  0  0  0  0  0  0  0  0
   -2.3593    2.2815   -0.6571 C   0  0  0  0  0  0  0  0  0  0  0  0
    0.0065   -2.9202   -1.0809 C   0  0  0  0  0  0  0  0  0  0  0  0
   -0.7190   -2.3073    1.1406 C   0  0  0  0  0  0  0  0  0  0  0  0
   -4.0621    1.5990    1.4448 C   0  0  0  0  0  0  0  0  0  0  0  0
   -2.9649    3.2821    0.1030 C   0  0  0  0  0  0  0  0  0  0  0  0
   -3.8163    2.9408    1.1540 C   0  0  0  0  0  0  0  0  0  0  0  0
    0.1540   -4.2442   -0.6675 C   0  0  0  0  0  0  0  0  0  0  0  0
   -0.5711   -3.6313    1.5540 C   0  0  0  0  0  0  0  0  0  0  0  0
    2.7440    0.5837    0.0719 C   0  0  0  0  0  0  0  0  0  0  0  0
   -0.1347   -4.5997    0.6499 C   0  0  0  0  0  0  0  0  0  0  0  0
    3.9772    0.0505    0.4600 C   0  0  0  0  0  0  0  0  0  0  0  0
    2.6421    1.9503   -0.2075 C   0  0  0  0  0  0  0  0  0  0  0  0
    5.0970    0.8751    0.5679 C   0  0  0  0  0  0  0  0  0  0  0  0
    3.7620    2.7750   -0.0997 C   0  0  0  0  0  0  0  0  0  0  0  0
    4.9893    2.2373    0.2881 C   0  0  0  0  0  0  0  0  0  0  0  0
   -2.6278   -0.9998   -1.1909 H   0  0  0  0  0  0  0  0  0  0  0  0
   -3.6520   -0.4435    0.9194 H   0  0  0  0  0  0  0  0  0  0  0  0
   -1.6923    2.5645   -1.4656 H   0  0  0  0  0  0  0  0  0  0  0  0
    0.2342   -2.6544   -2.1100 H   0  0  0  0  0  0  0  0  0  0  0  0
   -1.0585   -1.5610    1.8542 H   0  0  0  0  0  0  0  0  0  0  0  0
   -4.7244    1.3333    2.2636 H   0  0  0  0  0  0  0  0  0  0  0  0
   -2.7718    4.3270   -0.1217 H   0  0  0  0  0  0  0  0  0  0  0  0
   -1.4950   -0.5580   -3.0224 H   0  0  0  0  0  0  0  0  0  0  0  0
   -4.2870    3.7199    1.7463 H   0  0  0  0  0  0  0  0  0  0  0  0
    0.4939   -4.9982   -1.3713 H   0  0  0  0  0  0  0  0  0  0  0  0
   -0.7955   -3.9081    2.5800 H   0  0  0  0  0  0  0  0  0  0  0  0
    1.7442   -1.2191    0.2115 H   0  0  0  0  0  0  0  0  0  0  0  0
   -0.0196   -5.6305    0.9719 H   0  0  0  0  0  0  0  0  0  0  0  0
    4.0757   -1.0095    0.6811 H   0  0  0  0  0  0  0  0  0  0  0  0
    1.7015    2.4037   -0.5092 H   0  0  0  0  0  0  0  0  0  0  0  0
    6.0527    0.4568    0.8699 H   0  0  0  0  0  0  0  0  0  0  0  0
    3.6786    3.8359   -0.3167 H   0  0  0  0  0  0  0  0  0  0  0  0
    5.8612    2.8795    0.3722 H   0  0  0  0  0  0  0  0  0  0  0  0
  1  4  1  0  0  0  0
  1 31  1  0  0  0  0
  2  3  1  0  0  0  0
  2  5  2  0  0  0  0
  3 17  1  0  0  0  0
  3 35  1  0  0  0  0
  4  5  1  0  0  0  0
  4  6  1  0  0  0  0
  4 24  1  0  0  0  0
  5  7  1  0  0  0  0
  6  8  2  0  0  0  0
  6  9  1  0  0  0  0
  7 10  2  0  0  0  0
  7 11  1  0  0  0  0
  8 12  1  0  0  0  0
  8 25  1  0  0  0  0
  9 13  2  0  0  0  0
  9 26  1  0  0  0  0
 10 15  1  0  0  0  0
 10 27  1  0  0  0  0
 11 16  2  0  0  0  0
 11 28  1  0  0  0  0
 12 14  2  0  0  0  0
 12 29  1  0  0  0  0
 13 14  1  0  0  0  0
 13 30  1  0  0  0  0
 14 32  1  0  0  0  0
 15 18  2  0  0  0  0
 15 33  1  0  0  0  0
 16 18  1  0  0  0  0
 16 34  1  0  0  0  0
 17 19  2  0  0  0  0
 17 20  1  0  0  0  0
 18 36  1  0  0  0  0
 19 21  1  0  0  0  0
 19 37  1  0  0  0  0
 20 22  2  0  0  0  0
 20 38  1  0  0  0  0
 21 23  2  0  0  0  0
 21 39  1  0  0  0  0
 22 23  1  0  0  0  0
 22 40  1  0  0  0  0
 23 41  1  0  0  0  0
M  END
> <PUBCHEM_COMPOUND_CID>
5374689

> <PUBCHEM_CONFORMER_RMSD>
0.8

> <PUBCHEM_CONFORMER_DIVERSEORDER>
1
11
15
9
17
13
6
7
16
3
12
18
4
10
2
5
14
8

> <PUBCHEM_MMFF94_PARTIAL_CHARGES>
40
1 -0.68
10 -0.15
11 -0.15
12 -0.15
13 -0.15
14 -0.15
15 -0.15
16 -0.15
17 0.1
18 -0.15
19 -0.15
2 -0.49
20 -0.15
21 -0.15
22 -0.15
23 -0.15
25 0.15
26 0.15
27 0.15
28 0.15
29 0.15
3 -0.46
30 0.15
31 0.4
32 0.15
33 0.15
34 0.15
35 0.4
36 0.15
37 0.15
38 0.15
39 0.15
4 0.48
40 0.15
41 0.15
5 0.3
6 -0.14
7 0.09
8 -0.15
9 -0.15

> <PUBCHEM_EFFECTIVE_ROTOR_COUNT>
5

> <PUBCHEM_PHARMACOPHORE_FEATURES>
7
1 1 acceptor
1 1 donor
1 2 acceptor
1 3 donor
6 17 19 20 21 22 23 rings
6 6 8 9 12 13 14 rings
6 7 10 11 15 16 18 rings

> <PUBCHEM_HEAVY_ATOM_COUNT>
23

> <PUBCHEM_ATOM_DEF_STEREO_COUNT>
0

> <PUBCHEM_ATOM_UDEF_STEREO_COUNT>
1

> <PUBCHEM_BOND_DEF_STEREO_COUNT>
1

> <PUBCHEM_BOND_UDEF_STEREO_COUNT>
0

> <PUBCHEM_ISOTOPIC_ATOM_COUNT>
0

> <PUBCHEM_COMPONENT_COUNT>
1

> <PUBCHEM_CACTVS_TAUTO_COUNT>
1

> <PUBCHEM_CONFORMER_ID>
005202E100000001

> <PUBCHEM_MMFF94_ENERGY>
81.2432

> <PUBCHEM_FEATURE_SELFOVERLAP>
35.523

> <PUBCHEM_SHAPE_FINGERPRINT>
10291535 26 18055060223747449192
11036077 51 18410284843979994106
11405975 8 18264480849721632176
11552529 35 18048311447345955926
12160290 23 17976511095604949234
12173636 292 18412261778534403484
12293681 160 17979322538611352343
12788726 201 18124012787952732822
12930653 34 18338245869047183641
13004483 165 17762617691216291362
13135754 10 17460055061122453514
13140716 1 18337674096561023136
133893 2 17760334757384793247
13583140 156 16805867555439690696
138480 1 17546446678718047896
14713325 29 18122913289784228520
14955137 171 17620763781947072975
15230672 131 18335714806782884150
15475509 84 17324102797943079347
18785283 64 18193000318076987098
20101258 96 17691974078011378408
20739085 24 18045508521613681564
21033650 10 17774459255818094124
21120745 212 17615707548951059516
21304303 172 17765166346669669971
21524375 3 18343578530016181253
21731228 192 18408889520474025361
21756936 100 18342737451119144144
22182937 141 18338236093316775320
23419403 2 16908967661206336879
23558518 356 18411419539827378678
23845131 108 18335141960533144427
283562 15 18340195401889839343
3091708 16 9266715330867363554
392239 28 18266191680965781697
394222 165 17985833618684339403
469060 322 15865182679723278626
474 4 18268987600894856265
5104073 3 18118951728458406520
633830 44 18200875058956830396
79837 15 18410013264365535410
81228 2 17899974121181144238
9981440 41 18410012113693952729

> <PUBCHEM_SHAPE_MULTIPOLES>
457.5
8.22
5.85
1.39
8.24
6.58
0.3
-11.57
-2.52
-1.72
-1.15
-1.16
0.41
-0.38

> <PUBCHEM_SHAPE_SELFOVERLAP>
989.664

> <PUBCHEM_SHAPE_VOLUME>
248.4

> <PUBCHEM_COORDINATE_TYPE>
2
5
10

$$$$
