21944253
  -OEChem-10312420092D

 25 24  0     0  0  0  0  0  0999 V2000
    3.4078   -0.0358    0.0000 Mo  0  0  0  0  0  0  0  0  0  0  0  0
    3.8285   -0.3228    0.0000 C   0  0  0  0  0  0  0  0  0  0  0  0
    3.0228   -0.3228    0.0000 C   0  0  0  0  0  0  0  0  0  0  0  0
    2.6200   -1.0205    0.0000 C   0  0  0  0  0  0  0  0  0  0  0  0
    4.2314   -1.0205    0.0000 C   0  0  0  0  0  0  0  0  0  0  0  0
    3.0228   -1.7183    0.0000 C   0  0  0  0  0  0  0  0  0  0  0  0
    3.8285   -1.7183    0.0000 C   0  0  0  0  0  0  0  0  0  0  0  0
    3.0407    0.3228    0.0000 C   0  0  0  0  0  0  0  0  0  0  0  0
    2.6379    1.0205    0.0000 C   0  0  0  0  0  0  0  0  0  0  0  0
    3.0407    1.7183    0.0000 C   0  0  0  0  0  0  0  0  0  0  0  0
    3.8464    0.3228    0.0000 C   0  0  0  0  0  0  0  0  0  0  0  0
    3.8464    1.7183    0.0000 C   0  0  0  0  0  0  0  0  0  0  0  0
    4.2493    1.0205    0.0000 C   0  0  0  0  0  0  0  0  0  0  0  0
    4.4478   -0.2919    0.0000 H   0  0  0  0  0  0  0  0  0  0  0  0
    2.4031   -0.3050    0.0000 H   0  0  0  0  0  0  0  0  0  0  0  0
    2.0000   -1.0205    0.0000 H   0  0  0  0  0  0  0  0  0  0  0  0
    4.8514   -1.0205    0.0000 H   0  0  0  0  0  0  0  0  0  0  0  0
    2.7128   -2.2552    0.0000 H   0  0  0  0  0  0  0  0  0  0  0  0
    4.1385   -2.2552    0.0000 H   0  0  0  0  0  0  0  0  0  0  0  0
    2.4212    0.3463    0.0000 H   0  0  0  0  0  0  0  0  0  0  0  0
    2.0179    1.0205    0.0000 H   0  0  0  0  0  0  0  0  0  0  0  0
    2.7307    2.2552    0.0000 H   0  0  0  0  0  0  0  0  0  0  0  0
    4.4664    0.3188    0.0000 H   0  0  0  0  0  0  0  0  0  0  0  0
    4.1564    2.2552    0.0000 H   0  0  0  0  0  0  0  0  0  0  0  0
    4.8693    1.0205    0.0000 H   0  0  0  0  0  0  0  0  0  0  0  0
  2  3  2  0  0  0  0
  2  5  1  0  0  0  0
  2 14  1  0  0  0  0
  3  4  1  0  0  0  0
  3 15  1  0  0  0  0
  4  6  2  0  0  0  0
  4 16  1  0  0  0  0
  5  7  2  0  0  0  0
  5 17  1  0  0  0  0
  6  7  1  0  0  0  0
  6 18  1  0  0  0  0
  7 19  1  0  0  0  0
  8  9  1  0  0  0  0
  8 11  2  0  0  0  0
  8 20  1  0  0  0  0
  9 10  2  0  0  0  0
  9 21  1  0  0  0  0
 10 12  1  0  0  0  0
 10 22  1  0  0  0  0
 11 13  1  0  0  0  0
 11 23  1  0  0  0  0
 12 13  2  0  0  0  0
 12 24  1  0  0  0  0
 13 25  1  0  0  0  0
M  END
> <PUBCHEM_COMPOUND_CID>
21944253

> <PUBCHEM_COMPOUND_CANONICALIZED>
1

> <PUBCHEM_CACTVS_COMPLEXITY>
152

> <PUBCHEM_CACTVS_HBOND_ACCEPTOR>
0

> <PUBCHEM_CACTVS_HBOND_DONOR>
0

> <PUBCHEM_CACTVS_ROTATABLE_BOND>
0

> <PUBCHEM_CACTVS_SUBSKEYS>
AAADccBwAAAAAAAAAEAAAAAAEiRAgQIECBAAAAAAAAAAAAAAAAAAGAAAAAAACACAAAAAAAAAAACAACBCAAAAAAAAAAAICAAAAAAIAAAAAQAAAAAAAAAAgAAAAAAAAAAAAAAAAAAAAAAAAAAAAAAAAAAAAA==

> <PUBCHEM_IUPAC_OPENEYE_NAME>
benzene;molybdenum

> <PUBCHEM_IUPAC_CAS_NAME>
benzene;molybdenum

> <PUBCHEM_IUPAC_NAME_MARKUP>
benzene;molybdenum

> <PUBCHEM_IUPAC_NAME>
benzene;molybdenum

> <PUBCHEM_IUPAC_SYSTEMATIC_NAME>
benzene;molybdenum

> <PUBCHEM_IUPAC_TRADITIONAL_NAME>
benzene;molybdenum

> <PUBCHEM_IUPAC_INCHI>
InChI=1S/2C6H6.Mo/c2*1-2-4-6-5-3-1;/h2*1-6H;

> <PUBCHEM_IUPAC_INCHIKEY>
KXKURNTZDRVLAJ-UHFFFAOYSA-N

> <PUBCHEM_EXACT_MASS>
253.999304

> <PUBCHEM_MOLECULAR_FORMULA>
C12H12Mo

> <PUBCHEM_MOLECULAR_WEIGHT>
252.17

> <PUBCHEM_OPENEYE_CAN_SMILES>
C1=CC=CC=C1.C1=CC=CC=C1.[Mo]

> <PUBCHEM_OPENEYE_ISO_SMILES>
C1=CC=CC=C1.C1=CC=CC=C1.[Mo]

> <PUBCHEM_CACTVS_TPSA>
0

> <PUBCHEM_MONOISOTOPIC_WEIGHT>
253.999304

> <PUBCHEM_TOTAL_CHARGE>
0

> <PUBCHEM_HEAVY_ATOM_COUNT>
13

> <PUBCHEM_ATOM_DEF_STEREO_COUNT>
0

> <PUBCHEM_ATOM_UDEF_STEREO_COUNT>
0

> <PUBCHEM_BOND_DEF_STEREO_COUNT>
0

> <PUBCHEM_BOND_UDEF_STEREO_COUNT>
0

> <PUBCHEM_ISOTOPIC_ATOM_COUNT>
0

> <PUBCHEM_COMPONENT_COUNT>
3

> <PUBCHEM_CACTVS_TAUTO_COUNT>
-1

> <PUBCHEM_NONSTANDARDBOND>
1  10  6
1  11  6
1  12  6
1  13  6
1  2  6
1  3  6
1  4  6
1  5  6
1  6  6
1  7  6
1  8  6
1  9  6

> <PUBCHEM_COORDINATE_TYPE>
1
5
255

> <PUBCHEM_BONDANNOTATIONS>
10  12  8
11  13  8
12  13  8
2  3  8
2  5  8
3  4  8
4  6  8
5  7  8
6  7  8
8  11  8
8  9  8
9  10  8

$$$$
