61233
  -OEChem-11012400493D

 15 14  0     0  0  0  0  0  0999 V2000
    2.1042    0.3144    1.4281 O   0  0  0  0  0  0  0  0  0  0  0  0
    1.5053   -1.7943   -0.2583 O   0  5  0  0  0  0  0  0  0  0  0  0
   -0.3488    2.3228    0.1773 O   0  5  0  0  0  0  0  0  0  0  0  0
   -1.8060   -1.0649    1.3467 O   0  5  0  0  0  0  0  0  0  0  0  0
    0.0866   -1.2033   -1.8224 O   0  0  0  0  0  0  0  0  0  0  0  0
    0.7684    1.4346   -1.4891 O   0  0  0  0  0  0  0  0  0  0  0  0
   -2.2614    0.0774   -0.4699 O   0  0  0  0  0  0  0  0  0  0  0  0
    0.5714   -1.1000   -0.6874 N   0  3  0  0  0  0  0  0  0  0  0  0
    0.1342    1.3543   -0.4275 N   0  3  0  0  0  0  0  0  0  0  0  0
   -1.4756   -0.3565    0.3861 N   0  3  0  0  0  0  0  0  0  0  0  0
    0.0064   -0.0188    0.2294 C   0  0  0  0  0  0  0  0  0  0  0  0
    0.7156    0.0341    1.5869 C   0  0  0  0  0  0  0  0  0  0  0  0
    0.6353   -0.9133    2.1335 H   0  0  0  0  0  0  0  0  0  0  0  0
    0.2932    0.8099    2.2360 H   0  0  0  0  0  0  0  0  0  0  0  0
    2.5121   -0.4446    0.9788 H   0  0  0  0  0  0  0  0  0  0  0  0
  1 12  1  0  0  0  0
  1 15  1  0  0  0  0
  2  8  1  0  0  0  0
  3  9  1  0  0  0  0
  4 10  1  0  0  0  0
  5  8  2  0  0  0  0
  6  9  2  0  0  0  0
  7 10  2  0  0  0  0
  8 11  1  0  0  0  0
  9 11  1  0  0  0  0
 10 11  1  0  0  0  0
 11 12  1  0  0  0  0
 12 13  1  0  0  0  0
 12 14  1  0  0  0  0
M  CHG  6   2  -1   3  -1   4  -1   8   1   9   1  10   1
M  END
> <PUBCHEM_COMPOUND_CID>
61233

> <PUBCHEM_CONFORMER_RMSD>
0.6

> <PUBCHEM_CONFORMER_DIVERSEORDER>
1
5
6
2
7
4
3

> <PUBCHEM_MMFF94_PARTIAL_CHARGES>
13
1 -0.68
10 0.8
11 0.72
12 0.28
15 0.4
2 -0.52
3 -0.52
4 -0.52
5 -0.52
6 -0.52
7 -0.52
8 0.8
9 0.8

> <PUBCHEM_EFFECTIVE_ROTOR_COUNT>
4

> <PUBCHEM_PHARMACOPHORE_FEATURES>
11
1 1 acceptor
1 1 donor
1 2 acceptor
1 2 anion
1 3 acceptor
1 3 anion
1 4 acceptor
1 4 anion
1 5 acceptor
1 6 acceptor
1 7 acceptor

> <PUBCHEM_HEAVY_ATOM_COUNT>
12

> <PUBCHEM_ATOM_DEF_STEREO_COUNT>
0

> <PUBCHEM_ATOM_UDEF_STEREO_COUNT>
0

> <PUBCHEM_BOND_DEF_STEREO_COUNT>
0

> <PUBCHEM_BOND_UDEF_STEREO_COUNT>
0

> <PUBCHEM_ISOTOPIC_ATOM_COUNT>
0

> <PUBCHEM_COMPONENT_COUNT>
1

> <PUBCHEM_CACTVS_TAUTO_COUNT>
1

> <PUBCHEM_CONFORMER_ID>
0000EF3100000001

> <PUBCHEM_MMFF94_ENERGY>
32.6379

> <PUBCHEM_FEATURE_SELFOVERLAP>
56.085

> <PUBCHEM_SHAPE_FINGERPRINT>
12423570 1 12597258835809842104
13024252 1 16522102205713259656
137420 1 13644975438644919179
16945 1 18268694052712205848
5084963 1 17698740420802166455
5943 1 12187728833637910858

> <PUBCHEM_SHAPE_MULTIPOLES>
190.93
2
1.81
1.61
0.46
0.6
0.09
-0.39
-0.7
-0.24
0.51
-0.28
-0.22
0.27

> <PUBCHEM_SHAPE_SELFOVERLAP>
373.656

> <PUBCHEM_SHAPE_VOLUME>
111.7

> <PUBCHEM_COORDINATE_TYPE>
2
5
10

$$$$
