138464
  -OEChem-11012400453D

 28 27  0     0  0  0  0  0  0999 V2000
    1.7246   -1.6717   -0.1378 O   0  0  0  0  0  0  0  0  0  0  0  0
   -1.7300    1.5993   -0.1556 O   0  0  0  0  0  0  0  0  0  0  0  0
    6.6060   -0.5918   -0.4266 O   0  0  0  0  0  0  0  0  0  0  0  0
   -6.5870    0.6665   -0.4181 O   0  0  0  0  0  0  0  0  0  0  0  0
    5.6710    1.3967    0.1436 O   0  0  0  0  0  0  0  0  0  0  0  0
   -5.7022   -1.3579    0.1070 O   0  0  0  0  0  0  0  0  0  0  0  0
    0.6392    0.2997    0.4344 N   0  0  0  0  0  0  0  0  0  0  0  0
   -0.6001   -0.2876    0.4590 N   0  0  0  0  0  0  0  0  0  0  0  0
    3.0374    0.3174    0.1543 C   0  0  0  0  0  0  0  0  0  0  0  0
   -3.0637   -0.3552    0.1862 C   0  0  0  0  0  0  0  0  0  0  0  0
    4.2448   -0.5516   -0.1891 C   0  0  0  0  0  0  0  0  0  0  0  0
   -4.2300    0.5596   -0.1721 C   0  0  0  0  0  0  0  0  0  0  0  0
    1.7427   -0.4710    0.1260 C   0  0  0  0  0  0  0  0  0  0  0  0
   -1.7505    0.4060    0.1560 C   0  0  0  0  0  0  0  0  0  0  0  0
    5.5504    0.2107   -0.1287 C   0  0  0  0  0  0  0  0  0  0  0  0
   -5.5526   -0.1691   -0.1387 C   0  0  0  0  0  0  0  0  0  0  0  0
    2.9551    1.1477   -0.5575 H   0  0  0  0  0  0  0  0  0  0  0  0
    3.1560    0.7512    1.1546 H   0  0  0  0  0  0  0  0  0  0  0  0
   -3.1958   -0.7764    1.1896 H   0  0  0  0  0  0  0  0  0  0  0  0
   -2.9953   -1.1906   -0.5200 H   0  0  0  0  0  0  0  0  0  0  0  0
    4.3121   -1.3889    0.5155 H   0  0  0  0  0  0  0  0  0  0  0  0
    4.1347   -0.9566   -1.2018 H   0  0  0  0  0  0  0  0  0  0  0  0
   -4.0940    0.9666   -1.1807 H   0  0  0  0  0  0  0  0  0  0  0  0
   -4.2848    1.3923    0.5388 H   0  0  0  0  0  0  0  0  0  0  0  0
    0.6895    1.2872    0.6625 H   0  0  0  0  0  0  0  0  0  0  0  0
   -0.6252   -1.2672    0.7253 H   0  0  0  0  0  0  0  0  0  0  0  0
    7.4566   -0.1042   -0.3927 H   0  0  0  0  0  0  0  0  0  0  0  0
   -7.4496    0.1998   -0.3974 H   0  0  0  0  0  0  0  0  0  0  0  0
  1 13  2  0  0  0  0
  2 14  2  0  0  0  0
  3 15  1  0  0  0  0
  3 27  1  0  0  0  0
  4 16  1  0  0  0  0
  4 28  1  0  0  0  0
  5 15  2  0  0  0  0
  6 16  2  0  0  0  0
  7  8  1  0  0  0  0
  7 13  1  0  0  0  0
  7 25  1  0  0  0  0
  8 14  1  0  0  0  0
  8 26  1  0  0  0  0
  9 11  1  0  0  0  0
  9 13  1  0  0  0  0
  9 17  1  0  0  0  0
  9 18  1  0  0  0  0
 10 12  1  0  0  0  0
 10 14  1  0  0  0  0
 10 19  1  0  0  0  0
 10 20  1  0  0  0  0
 11 15  1  0  0  0  0
 11 21  1  0  0  0  0
 11 22  1  0  0  0  0
 12 16  1  0  0  0  0
 12 23  1  0  0  0  0
 12 24  1  0  0  0  0
M  END
> <PUBCHEM_COMPOUND_CID>
138464

> <PUBCHEM_CONFORMER_RMSD>
0.8

> <PUBCHEM_CONFORMER_DIVERSEORDER>
1
13
18
8
23
4
41
28
7
14
29
36
26
11
31
37
39
38
25
2
17
24
5
22
10
21
16
27
20
40
34
30
32
33
3
6
15
9
12
35
19

> <PUBCHEM_MMFF94_PARTIAL_CHARGES>
20
1 -0.57
10 0.06
11 0.06
12 0.06
13 0.57
14 0.57
15 0.66
16 0.66
2 -0.57
25 0.37
26 0.37
27 0.5
28 0.5
3 -0.65
4 -0.65
5 -0.57
6 -0.57
7 -0.43
8 -0.43
9 0.06

> <PUBCHEM_EFFECTIVE_ROTOR_COUNT>
9

> <PUBCHEM_PHARMACOPHORE_FEATURES>
10
1 1 acceptor
1 2 acceptor
1 3 acceptor
1 4 acceptor
1 5 acceptor
1 6 acceptor
1 7 donor
1 8 donor
3 3 5 15 anion
3 4 6 16 anion

> <PUBCHEM_HEAVY_ATOM_COUNT>
16

> <PUBCHEM_ATOM_DEF_STEREO_COUNT>
0

> <PUBCHEM_ATOM_UDEF_STEREO_COUNT>
0

> <PUBCHEM_BOND_DEF_STEREO_COUNT>
0

> <PUBCHEM_BOND_UDEF_STEREO_COUNT>
0

> <PUBCHEM_ISOTOPIC_ATOM_COUNT>
0

> <PUBCHEM_COMPONENT_COUNT>
1

> <PUBCHEM_CACTVS_TAUTO_COUNT>
3

> <PUBCHEM_CONFORMER_ID>
00021CE000000001

> <PUBCHEM_MMFF94_ENERGY>
19.2329

> <PUBCHEM_FEATURE_SELFOVERLAP>
52.412

> <PUBCHEM_SHAPE_FINGERPRINT>
10968037 39 18410012143964275991
11287383 113 18410293631229783112
12091667 2 17749111089212832537
12714333 28 17748826310852415665
12815109 37 18261110772871546725
13533116 47 16950552247857496736
14123256 10 18410575080368111658
1420 363 18343305872359500219
14251718 22 18409729569154197139
14251732 16 18410574032411915795
14251764 46 17988924461955421026
167882 2 17533793846782993261
17834072 33 17775564260149183840
17834076 25 18410292505879779687
19489759 90 16081087074079305245
200 152 18130787850017138321
20645477 70 18340487738485757798
20767249 213 15285361721253864156
22896161 15 18339079392923225603
23035841 295 16845573114650974462
23402539 116 17967812773144264879
23557571 272 18339645546621894477
23559900 14 18340480175343482665
3545911 37 18259987067677310986
42788 4 18411700984838998896
4325135 7 18410855451538227550
4463277 17 18412544310410750273
474229 33 18412546517681256886
57583515 80 17676490544725637217
59755656 520 17167577211127825219
8209 1 18410573980861758605

> <PUBCHEM_SHAPE_MULTIPOLES>
284.09
17.63
1.19
0.63
0.03
0.02
0
-0.26
-2.33
-0.02
-0.03
0
0
0.38

> <PUBCHEM_SHAPE_SELFOVERLAP>
551.622

> <PUBCHEM_SHAPE_VOLUME>
169.3

> <PUBCHEM_COORDINATE_TYPE>
2
5
10

$$$$
