15109
  -OEChem-11012400333D

 23 23  0     0  0  0  0  0  0999 V2000
    2.3994    0.3104   -0.0237 O   0  0  0  0  0  0  0  0  0  0  0  0
   -2.3995    0.3101   -0.0238 O   0  0  0  0  0  0  0  0  0  0  0  0
   -0.0002    2.3401    1.2028 O   0  0  0  0  0  0  0  0  0  0  0  0
    0.0001    2.5003   -1.0646 O   0  0  0  0  0  0  0  0  0  0  0  0
   -0.0002    0.3459   -0.0241 C   0  0  0  0  0  0  0  0  0  0  0  0
    1.2079   -0.3513   -0.0138 C   0  0  0  0  0  0  0  0  0  0  0  0
   -1.2081   -0.3517   -0.0137 C   0  0  0  0  0  0  0  0  0  0  0  0
    1.2081   -1.7461    0.0070 C   0  0  0  0  0  0  0  0  0  0  0  0
   -1.2077   -1.7465    0.0069 C   0  0  0  0  0  0  0  0  0  0  0  0
    0.0003   -2.4437    0.0174 C   0  0  0  0  0  0  0  0  0  0  0  0
    0.0003    1.8042   -0.0468 C   0  0  0  0  0  0  0  0  0  0  0  0
    3.5822   -0.4860   -0.0118 C   0  0  0  0  0  0  0  0  0  0  0  0
   -3.5826   -0.4858   -0.0119 C   0  0  0  0  0  0  0  0  0  0  0  0
    2.1048   -2.3558    0.0161 H   0  0  0  0  0  0  0  0  0  0  0  0
   -2.1044   -2.3563    0.0159 H   0  0  0  0  0  0  0  0  0  0  0  0
    0.0006   -3.5299    0.0335 H   0  0  0  0  0  0  0  0  0  0  0  0
    4.4336    0.2028   -0.0221 H   0  0  0  0  0  0  0  0  0  0  0  0
    3.6637   -1.1028   -0.9133 H   0  0  0  0  0  0  0  0  0  0  0  0
    3.6637   -1.0756    0.9077 H   0  0  0  0  0  0  0  0  0  0  0  0
   -3.6641   -1.0755    0.9076 H   0  0  0  0  0  0  0  0  0  0  0  0
   -3.6641   -1.1027   -0.9133 H   0  0  0  0  0  0  0  0  0  0  0  0
   -4.4337    0.2033   -0.0221 H   0  0  0  0  0  0  0  0  0  0  0  0
   -0.0004    3.3208    1.1797 H   0  0  0  0  0  0  0  0  0  0  0  0
  1  6  1  0  0  0  0
  1 12  1  0  0  0  0
  2  7  1  0  0  0  0
  2 13  1  0  0  0  0
  3 11  1  0  0  0  0
  3 23  1  0  0  0  0
  4 11  2  0  0  0  0
  5  6  2  0  0  0  0
  5  7  1  0  0  0  0
  5 11  1  0  0  0  0
  6  8  1  0  0  0  0
  7  9  2  0  0  0  0
  8 10  2  0  0  0  0
  8 14  1  0  0  0  0
  9 10  1  0  0  0  0
  9 15  1  0  0  0  0
 10 16  1  0  0  0  0
 12 17  1  0  0  0  0
 12 18  1  0  0  0  0
 12 19  1  0  0  0  0
 13 20  1  0  0  0  0
 13 21  1  0  0  0  0
 13 22  1  0  0  0  0
M  END
> <PUBCHEM_COMPOUND_CID>
15109

> <PUBCHEM_CONFORMER_RMSD>
0.6

> <PUBCHEM_CONFORMER_DIVERSEORDER>
6
2
3
4
5
1

> <PUBCHEM_MMFF94_PARTIAL_CHARGES>
17
1 -0.36
10 -0.15
11 0.63
12 0.28
13 0.28
14 0.15
15 0.15
16 0.15
2 -0.36
23 0.5
3 -0.65
4 -0.57
5 0.09
6 0.08
7 0.08
8 -0.15
9 -0.15

> <PUBCHEM_EFFECTIVE_ROTOR_COUNT>
3

> <PUBCHEM_PHARMACOPHORE_FEATURES>
6
1 1 acceptor
1 2 acceptor
1 3 acceptor
1 4 acceptor
3 3 4 11 anion
6 5 6 7 8 9 10 rings

> <PUBCHEM_HEAVY_ATOM_COUNT>
13

> <PUBCHEM_ATOM_DEF_STEREO_COUNT>
0

> <PUBCHEM_ATOM_UDEF_STEREO_COUNT>
0

> <PUBCHEM_BOND_DEF_STEREO_COUNT>
0

> <PUBCHEM_BOND_UDEF_STEREO_COUNT>
0

> <PUBCHEM_ISOTOPIC_ATOM_COUNT>
0

> <PUBCHEM_COMPONENT_COUNT>
1

> <PUBCHEM_CACTVS_TAUTO_COUNT>
1

> <PUBCHEM_CONFORMER_ID>
00003B0500000006

> <PUBCHEM_MMFF94_ENERGY>
58.3408

> <PUBCHEM_FEATURE_SELFOVERLAP>
30.506

> <PUBCHEM_SHAPE_FINGERPRINT>
10219947 1 18409732867567897579
108231 29 18342457058035978600
11206711 2 17905617600839135478
11680986 33 18050564350359860835
12032990 46 18410582785540012303
12423570 1 13375013504170726838
13380535 220 18120935263490695599
13380535 239 18052260591990632230
14614273 12 18118963581618180788
14993402 34 18410292540366372159
161256 15 18125168125522886558
16945 1 18259984872611458159
193761 8 17761773961975551710
20510252 161 18270957930559483552
20511035 2 17910112747912584967
20588541 1 18411139134149616798
21040471 1 17546164568223398881
21501502 16 17905892478920048386
2334 1 17978510067736293750
23402539 116 18342728607544040158
23419403 2 15613475885281676891
23559900 14 18342461487281429844
2748010 2 18122060068154477854
353137 74 18264486187516648170
528886 8 18410851070671955714
53812653 166 18341608269413955067

> <PUBCHEM_SHAPE_MULTIPOLES>
244.06
3.94
2.65
0.74
0
0.74
-0.03
-0.96
0.04
0
0
0
0.35
0

> <PUBCHEM_SHAPE_SELFOVERLAP>
509.858

> <PUBCHEM_SHAPE_VOLUME>
139.3

> <PUBCHEM_COORDINATE_TYPE>
2
5
10

$$$$
