135421834
  -OEChem-11012400423D

 13 12  0     0  0  0  0  0  0999 V2000
    2.0726    0.0574   -1.0702 O   0  5  0  0  0  0  0  0  0  0  0  0
    2.0167    0.3272    1.0911 O   0  0  0  0  0  0  0  0  0  0  0  0
   -2.0622   -0.2322   -0.0645 N   0  0  0  0  0  0  0  0  0  0  0  0
   -0.3600   -1.7266    0.1496 N   0  0  0  0  0  0  0  0  0  0  0  0
    0.1490    0.6146   -0.0914 N   0  0  0  0  0  0  0  0  0  0  0  0
   -2.5913    1.0405    0.0084 N   0  0  0  0  0  0  0  0  0  0  0  0
    1.4635    0.3113   -0.0194 N   0  3  0  0  0  0  0  0  0  0  0  0
   -0.6884   -0.3921   -0.0034 C   0  0  0  0  0  0  0  0  0  0  0  0
   -2.6863   -1.0169    0.0928 H   0  0  0  0  0  0  0  0  0  0  0  0
    0.6018   -2.0418    0.2115 H   0  0  0  0  0  0  0  0  0  0  0  0
   -1.0796   -2.4393    0.2048 H   0  0  0  0  0  0  0  0  0  0  0  0
   -3.5707    0.9991   -0.2704 H   0  0  0  0  0  0  0  0  0  0  0  0
   -2.1310    1.6306   -0.6841 H   0  0  0  0  0  0  0  0  0  0  0  0
  1  7  1  0  0  0  0
  2  7  2  0  0  0  0
  3  6  1  0  0  0  0
  3  8  1  0  0  0  0
  3  9  1  0  0  0  0
  4  8  1  0  0  0  0
  4 10  1  0  0  0  0
  4 11  1  0  0  0  0
  5  7  1  0  0  0  0
  5  8  2  0  0  0  0
  6 12  1  0  0  0  0
  6 13  1  0  0  0  0
M  CHG  2   1  -1   7   1
M  END
> <PUBCHEM_COMPOUND_CID>
135421834

> <PUBCHEM_CONFORMER_RMSD>
0.4

> <PUBCHEM_CONFORMER_DIVERSEORDER>
1
6
9
7
2
8
3
4
5

> <PUBCHEM_MMFF94_PARTIAL_CHARGES>
13
1 -0.52
10 0.4
11 0.4
12 0.36
13 0.36
2 -0.52
3 -0.46
4 -0.85
5 -0.5
6 -0.71
7 1.09
8 0.55
9 0.4

> <PUBCHEM_EFFECTIVE_ROTOR_COUNT>
2

> <PUBCHEM_PHARMACOPHORE_FEATURES>
6
1 1 acceptor
1 2 acceptor
1 3 donor
1 4 donor
1 6 donor
4 3 4 5 8 cation

> <PUBCHEM_HEAVY_ATOM_COUNT>
8

> <PUBCHEM_ATOM_DEF_STEREO_COUNT>
0

> <PUBCHEM_ATOM_UDEF_STEREO_COUNT>
0

> <PUBCHEM_BOND_DEF_STEREO_COUNT>
1

> <PUBCHEM_BOND_UDEF_STEREO_COUNT>
0

> <PUBCHEM_ISOTOPIC_ATOM_COUNT>
0

> <PUBCHEM_COMPONENT_COUNT>
1

> <PUBCHEM_CACTVS_TAUTO_COUNT>
-1

> <PUBCHEM_CONFORMER_ID>
08125F8A00000001

> <PUBCHEM_MMFF94_ENERGY>
25.3147

> <PUBCHEM_FEATURE_SELFOVERLAP>
32.103

> <PUBCHEM_SHAPE_FINGERPRINT>
14390081 3 18130219372615133625
16714656 1 18261120685392373957
20096714 4 18261393377229470877
21040471 1 18409449184835526467
24536 1 18198622335688090452
29004967 10 16343705464579811562
5460574 1 9151179748537473061

> <PUBCHEM_SHAPE_MULTIPOLES>
127.99
3.18
1.12
0.8
0.51
0.45
0.01
-0.98
-0.04
0.45
0.06
-0.54
-0.05
0.06

> <PUBCHEM_SHAPE_SELFOVERLAP>
240.82

> <PUBCHEM_SHAPE_VOLUME>
78.6

> <PUBCHEM_COORDINATE_TYPE>
2
5
10

$$$$
