720895
  -OEChem-11012400343D

 24 24  0     1  0  0  0  0  0999 V2000
   -2.0193   -2.1462    0.0198 O   0  0  0  0  0  0  0  0  0  0  0  0
    2.7214   -1.3437   -0.6357 O   0  0  0  0  0  0  0  0  0  0  0  0
   -2.6783   -0.0301   -0.5129 O   0  0  0  0  0  0  0  0  0  0  0  0
    2.2086   -0.2095    1.2740 O   0  0  0  0  0  0  0  0  0  0  0  0
   -0.5526   -0.3967    0.5846 C   0  0  1  0  0  0  0  0  0  0  0  0
    0.5534   -0.4400   -0.4799 C   0  0  1  0  0  0  0  0  0  0  0  0
   -0.6813    0.9584    1.2868 C   0  0  0  0  0  0  0  0  0  0  0  0
    0.5720    0.7924   -1.3905 C   0  0  0  0  0  0  0  0  0  0  0  0
   -0.6778    2.1453    0.3272 C   0  0  0  0  0  0  0  0  0  0  0  0
    0.5192    2.1041   -0.6130 C   0  0  0  0  0  0  0  0  0  0  0  0
   -1.8613   -0.8010   -0.0316 C   0  0  0  0  0  0  0  0  0  0  0  0
    1.8959   -0.6331    0.1712 C   0  0  0  0  0  0  0  0  0  0  0  0
   -0.3431   -1.1333    1.3739 H   0  0  0  0  0  0  0  0  0  0  0  0
    0.3868   -1.3251   -1.1106 H   0  0  0  0  0  0  0  0  0  0  0  0
    0.1452    1.0828    1.9967 H   0  0  0  0  0  0  0  0  0  0  0  0
   -1.6000    0.9895    1.8860 H   0  0  0  0  0  0  0  0  0  0  0  0
   -0.2889    0.7489   -2.0695 H   0  0  0  0  0  0  0  0  0  0  0  0
    1.4681    0.7877   -2.0229 H   0  0  0  0  0  0  0  0  0  0  0  0
   -0.6510    3.0759    0.9065 H   0  0  0  0  0  0  0  0  0  0  0  0
   -1.6035    2.1765   -0.2568 H   0  0  0  0  0  0  0  0  0  0  0  0
    0.4616    2.9432   -1.3158 H   0  0  0  0  0  0  0  0  0  0  0  0
    1.4444    2.2367   -0.0396 H   0  0  0  0  0  0  0  0  0  0  0  0
   -2.8698   -2.4305   -0.3778 H   0  0  0  0  0  0  0  0  0  0  0  0
    3.6038   -1.4790   -0.2290 H   0  0  0  0  0  0  0  0  0  0  0  0
  1 11  1  0  0  0  0
  1 23  1  0  0  0  0
  2 12  1  0  0  0  0
  2 24  1  0  0  0  0
  3 11  2  0  0  0  0
  4 12  2  0  0  0  0
  5  6  1  0  0  0  0
  5  7  1  0  0  0  0
  5 11  1  0  0  0  0
  5 13  1  0  0  0  0
  6  8  1  0  0  0  0
  6 12  1  0  0  0  0
  6 14  1  0  0  0  0
  7  9  1  0  0  0  0
  7 15  1  0  0  0  0
  7 16  1  0  0  0  0
  8 10  1  0  0  0  0
  8 17  1  0  0  0  0
  8 18  1  0  0  0  0
  9 10  1  0  0  0  0
  9 19  1  0  0  0  0
  9 20  1  0  0  0  0
 10 21  1  0  0  0  0
 10 22  1  0  0  0  0
M  END
> <PUBCHEM_COMPOUND_CID>
720895

> <PUBCHEM_CONFORMER_RMSD>
0.6

> <PUBCHEM_CONFORMER_DIVERSEORDER>
1
4
5
2
3
6
7

> <PUBCHEM_MMFF94_PARTIAL_CHARGES>
10
1 -0.65
11 0.66
12 0.66
2 -0.65
23 0.5
24 0.5
3 -0.57
4 -0.57
5 0.06
6 0.06

> <PUBCHEM_EFFECTIVE_ROTOR_COUNT>
3.2

> <PUBCHEM_PHARMACOPHORE_FEATURES>
7
1 1 acceptor
1 2 acceptor
1 3 acceptor
1 4 acceptor
3 1 3 11 anion
3 2 4 12 anion
6 5 6 7 8 9 10 rings

> <PUBCHEM_HEAVY_ATOM_COUNT>
12

> <PUBCHEM_ATOM_DEF_STEREO_COUNT>
2

> <PUBCHEM_ATOM_UDEF_STEREO_COUNT>
0

> <PUBCHEM_BOND_DEF_STEREO_COUNT>
0

> <PUBCHEM_BOND_UDEF_STEREO_COUNT>
0

> <PUBCHEM_ISOTOPIC_ATOM_COUNT>
0

> <PUBCHEM_COMPONENT_COUNT>
1

> <PUBCHEM_CACTVS_TAUTO_COUNT>
1

> <PUBCHEM_CONFORMER_ID>
000AFFFF00000001

> <PUBCHEM_MMFF94_ENERGY>
13.2573

> <PUBCHEM_FEATURE_SELFOVERLAP>
35.634

> <PUBCHEM_SHAPE_FINGERPRINT>
1 1 17545320138724123069
12423570 1 15507964258224927076
13024252 1 15142107352008949444
137420 1 14021920812600865233
14128692 85 18263367043414059727
14817 1 12735126616044153385
16945 1 18337382743164864921
18185500 45 18335998526692204595
20653091 64 18117558650512769291
20871998 184 17831322513502355824
23419403 2 17615633735595929620
23552423 10 18044658830705251151
241688 4 18337398132154044960
5084963 1 17986392191992135152
528862 383 17760913439676617736
535629 181 17824289027992880798
54338 74 18334857164876859096
81228 2 18338514114786254833

> <PUBCHEM_SHAPE_MULTIPOLES>
223.48
2.98
2.1
1.16
0.32
0.65
0.09
-1.77
-0.1
-0.43
-0.15
0.26
0.26
-0.2

> <PUBCHEM_SHAPE_SELFOVERLAP>
452.847

> <PUBCHEM_SHAPE_VOLUME>
127.7

> <PUBCHEM_COORDINATE_TYPE>
2
5
10

$$$$
