69627
  -OEChem-11012401023D

 45 44  0     0  0  0  0  0  0999 V2000
   -0.0006    0.0015    0.0004 Si  0  0  0  0  0  0  0  0  0  0  0  0
   -0.9554   -0.9697   -0.9724 O   0  0  0  0  0  0  0  0  0  0  0  0
    0.9704   -0.9537    0.9732 O   0  0  0  0  0  0  0  0  0  0  0  0
    0.9549    0.9725   -0.9721 O   0  0  0  0  0  0  0  0  0  0  0  0
   -0.9721    0.9571    0.9727 O   0  0  0  0  0  0  0  0  0  0  0  0
   -1.8565   -1.8904   -0.3734 C   0  0  0  0  0  0  0  0  0  0  0  0
    1.8887   -1.8570    0.3740 C   0  0  0  0  0  0  0  0  0  0  0  0
    1.8606    1.8885   -0.3728 C   0  0  0  0  0  0  0  0  0  0  0  0
   -1.8924    1.8578    0.3725 C   0  0  0  0  0  0  0  0  0  0  0  0
   -2.5949   -2.6407   -1.4712 C   0  0  0  0  0  0  0  0  0  0  0  0
    2.6393   -2.5954    1.4714 C   0  0  0  0  0  0  0  0  0  0  0  0
    2.5987    2.6394   -1.4702 C   0  0  0  0  0  0  0  0  0  0  0  0
   -2.6431    2.5972    1.4694 C   0  0  0  0  0  0  0  0  0  0  0  0
   -3.5908   -3.6361   -0.9035 C   0  0  0  0  0  0  0  0  0  0  0  0
    3.6536   -3.5718    0.9036 C   0  0  0  0  0  0  0  0  0  0  0  0
    3.5992    3.6300   -0.9023 C   0  0  0  0  0  0  0  0  0  0  0  0
   -3.6596    3.5708    0.9006 C   0  0  0  0  0  0  0  0  0  0  0  0
   -2.5800   -1.3557    0.2555 H   0  0  0  0  0  0  0  0  0  0  0  0
   -1.3072   -2.6049    0.2530 H   0  0  0  0  0  0  0  0  0  0  0  0
    2.6031   -1.3084   -0.2533 H   0  0  0  0  0  0  0  0  0  0  0  0
    1.3530   -2.5803   -0.2541 H   0  0  0  0  0  0  0  0  0  0  0  0
    2.5838    1.3497    0.2529 H   0  0  0  0  0  0  0  0  0  0  0  0
    1.3149    2.6030    0.2570 H   0  0  0  0  0  0  0  0  0  0  0  0
   -2.6066    1.3069   -0.2530 H   0  0  0  0  0  0  0  0  0  0  0  0
   -1.3584    2.5808   -0.2575 H   0  0  0  0  0  0  0  0  0  0  0  0
   -3.1137   -1.9256   -2.1209 H   0  0  0  0  0  0  0  0  0  0  0  0
   -1.8724   -3.1606   -2.1116 H   0  0  0  0  0  0  0  0  0  0  0  0
    3.1444   -1.8720    2.1228 H   0  0  0  0  0  0  0  0  0  0  0  0
    1.9256   -3.1293    2.1103 H   0  0  0  0  0  0  0  0  0  0  0  0
    3.1136    1.9245   -2.1232 H   0  0  0  0  0  0  0  0  0  0  0  0
    1.8763    3.1636   -2.1074 H   0  0  0  0  0  0  0  0  0  0  0  0
   -3.1463    1.8742    2.1227 H   0  0  0  0  0  0  0  0  0  0  0  0
   -1.9295    3.1336    2.1064 H   0  0  0  0  0  0  0  0  0  0  0  0
   -4.3455   -3.1312   -0.2921 H   0  0  0  0  0  0  0  0  0  0  0  0
   -4.1063   -4.1609   -1.7138 H   0  0  0  0  0  0  0  0  0  0  0  0
   -3.0876   -4.3830   -0.2813 H   0  0  0  0  0  0  0  0  0  0  0  0
    4.3997   -3.0525    0.2938 H   0  0  0  0  0  0  0  0  0  0  0  0
    4.1776   -4.0885    1.7138 H   0  0  0  0  0  0  0  0  0  0  0  0
    3.1648   -4.3268    0.2796 H   0  0  0  0  0  0  0  0  0  0  0  0
    4.3537    3.1208   -0.2942 H   0  0  0  0  0  0  0  0  0  0  0  0
    4.1143    4.1555   -1.7125 H   0  0  0  0  0  0  0  0  0  0  0  0
    3.1000    4.3768   -0.2767 H   0  0  0  0  0  0  0  0  0  0  0  0
   -4.4055    3.0489    0.2926 H   0  0  0  0  0  0  0  0  0  0  0  0
   -4.1835    4.0883    1.7103 H   0  0  0  0  0  0  0  0  0  0  0  0
   -3.1725    4.3253    0.2746 H   0  0  0  0  0  0  0  0  0  0  0  0
  1  2  1  0  0  0  0
  1  3  1  0  0  0  0
  1  4  1  0  0  0  0
  1  5  1  0  0  0  0
  2  6  1  0  0  0  0
  3  7  1  0  0  0  0
  4  8  1  0  0  0  0
  5  9  1  0  0  0  0
  6 10  1  0  0  0  0
  6 18  1  0  0  0  0
  6 19  1  0  0  0  0
  7 11  1  0  0  0  0
  7 20  1  0  0  0  0
  7 21  1  0  0  0  0
  8 12  1  0  0  0  0
  8 22  1  0  0  0  0
  8 23  1  0  0  0  0
  9 13  1  0  0  0  0
  9 24  1  0  0  0  0
  9 25  1  0  0  0  0
 10 14  1  0  0  0  0
 10 26  1  0  0  0  0
 10 27  1  0  0  0  0
 11 15  1  0  0  0  0
 11 28  1  0  0  0  0
 11 29  1  0  0  0  0
 12 16  1  0  0  0  0
 12 30  1  0  0  0  0
 12 31  1  0  0  0  0
 13 17  1  0  0  0  0
 13 32  1  0  0  0  0
 13 33  1  0  0  0  0
 14 34  1  0  0  0  0
 14 35  1  0  0  0  0
 14 36  1  0  0  0  0
 15 37  1  0  0  0  0
 15 38  1  0  0  0  0
 15 39  1  0  0  0  0
 16 40  1  0  0  0  0
 16 41  1  0  0  0  0
 16 42  1  0  0  0  0
 17 43  1  0  0  0  0
 17 44  1  0  0  0  0
 17 45  1  0  0  0  0
M  END
> <PUBCHEM_COMPOUND_CID>
69627

> <PUBCHEM_CONFORMER_RMSD>
1

> <PUBCHEM_CONFORMER_DIVERSEORDER>
1
15
14
3
2
12
10
13
7
6
11
9
5
8
4

> <PUBCHEM_MMFF94_PARTIAL_CHARGES>
9
1 1.19
2 -0.58
3 -0.58
4 -0.58
5 -0.58
6 0.28
7 0.28
8 0.28
9 0.28

> <PUBCHEM_EFFECTIVE_ROTOR_COUNT>
12

> <PUBCHEM_PHARMACOPHORE_FEATURES>
4
1 14 hydrophobe
1 15 hydrophobe
1 16 hydrophobe
1 17 hydrophobe

> <PUBCHEM_HEAVY_ATOM_COUNT>
17

> <PUBCHEM_ATOM_DEF_STEREO_COUNT>
0

> <PUBCHEM_ATOM_UDEF_STEREO_COUNT>
0

> <PUBCHEM_BOND_DEF_STEREO_COUNT>
0

> <PUBCHEM_BOND_UDEF_STEREO_COUNT>
0

> <PUBCHEM_ISOTOPIC_ATOM_COUNT>
0

> <PUBCHEM_COMPONENT_COUNT>
1

> <PUBCHEM_CACTVS_TAUTO_COUNT>
1

> <PUBCHEM_CONFORMER_ID>
00010FFB00000001

> <PUBCHEM_MMFF94_ENERGY>
3.5393

> <PUBCHEM_FEATURE_SELFOVERLAP>
20.3

> <PUBCHEM_SHAPE_FINGERPRINT>
10756046 70 18192437372207179277
12293681 160 17834957855389275513
12788726 201 17908150124374536780
13134695 92 17754187379031105956
13757389 114 17982740662510978126
14943834 7 18410573989446418434
187816 3 17690002657799429540
20600515 1 18055066558897868846
20671657 1 18263940859862034816
21524375 3 18122661372156056393
23402539 116 17838632401880007332
23558518 356 18266194987658517820
266924 1 18338797917629841543
283562 15 18050573133552540044
3060560 45 17837232388850097821
59554788 191 18194404382052321689
6992083 37 18122334688384613042
7164475 11 18198914788659635076
81228 2 17906697398546293707

> <PUBCHEM_SHAPE_MULTIPOLES>
344.59
6.41
6.37
1.54
0
0.02
0
-0.03
-0.09
-0.01
0.09
0
0
-5.69

> <PUBCHEM_SHAPE_SELFOVERLAP>
619.569

> <PUBCHEM_SHAPE_VOLUME>
222.5

> <PUBCHEM_COORDINATE_TYPE>
2
5
10

$$$$
