10458
  -OEChem-11012400353D

 41 40  0     0  0  0  0  0  0999 V2000
   -8.7532   -0.4882   -0.1688 O   0  0  0  0  0  0  0  0  0  0  0  0
    8.7012   -0.5202   -0.2537 O   0  0  0  0  0  0  0  0  0  0  0  0
   -7.5957    1.4671   -0.1064 O   0  0  0  0  0  0  0  0  0  0  0  0
    7.6563    1.4839    0.0089 O   0  0  0  0  0  0  0  0  0  0  0  0
    0.0256    0.2111    0.1979 C   0  0  0  0  0  0  0  0  0  0  0  0
   -1.2672   -0.6073    0.1183 C   0  0  0  0  0  0  0  0  0  0  0  0
    1.2915   -0.6443    0.1088 C   0  0  0  0  0  0  0  0  0  0  0  0
   -2.5314    0.2554    0.1343 C   0  0  0  0  0  0  0  0  0  0  0  0
    2.5504    0.2259    0.1206 C   0  0  0  0  0  0  0  0  0  0  0  0
   -3.8249   -0.5638    0.0682 C   0  0  0  0  0  0  0  0  0  0  0  0
    3.8158   -0.6246   -0.0059 C   0  0  0  0  0  0  0  0  0  0  0  0
   -5.1213    0.2473   -0.0060 C   0  0  0  0  0  0  0  0  0  0  0  0
    5.0761    0.2450    0.0405 C   0  0  0  0  0  0  0  0  0  0  0  0
   -6.3776   -0.6161   -0.0145 C   0  0  0  0  0  0  0  0  0  0  0  0
    6.3589   -0.5806   -0.0549 C   0  0  0  0  0  0  0  0  0  0  0  0
   -7.6126    0.2431   -0.1064 C   0  0  0  0  0  0  0  0  0  0  0  0
    7.6080    0.2664   -0.0810 C   0  0  0  0  0  0  0  0  0  0  0  0
    0.0303    0.9456   -0.6173 H   0  0  0  0  0  0  0  0  0  0  0  0
    0.0353    0.7795    1.1361 H   0  0  0  0  0  0  0  0  0  0  0  0
   -1.2564   -1.2085   -0.7992 H   0  0  0  0  0  0  0  0  0  0  0  0
   -1.2980   -1.3119    0.9584 H   0  0  0  0  0  0  0  0  0  0  0  0
    1.2658   -1.2388   -0.8125 H   0  0  0  0  0  0  0  0  0  0  0  0
    1.3180   -1.3490    0.9485 H   0  0  0  0  0  0  0  0  0  0  0  0
   -2.5427    0.8691    1.0432 H   0  0  0  0  0  0  0  0  0  0  0  0
   -2.5038    0.9483   -0.7156 H   0  0  0  0  0  0  0  0  0  0  0  0
    2.5857    0.8045    1.0517 H   0  0  0  0  0  0  0  0  0  0  0  0
    2.5099    0.9454   -0.7062 H   0  0  0  0  0  0  0  0  0  0  0  0
   -3.8674   -1.2187    0.9477 H   0  0  0  0  0  0  0  0  0  0  0  0
   -3.7788   -1.2246   -0.8068 H   0  0  0  0  0  0  0  0  0  0  0  0
    3.8490   -1.3583    0.8087 H   0  0  0  0  0  0  0  0  0  0  0  0
    3.7914   -1.1863   -0.9475 H   0  0  0  0  0  0  0  0  0  0  0  0
   -5.1560    0.9361    0.8480 H   0  0  0  0  0  0  0  0  0  0  0  0
   -5.0963    0.8737   -0.9069 H   0  0  0  0  0  0  0  0  0  0  0  0
    5.0888    0.8273    0.9705 H   0  0  0  0  0  0  0  0  0  0  0  0
    5.0472    0.9720   -0.7810 H   0  0  0  0  0  0  0  0  0  0  0  0
   -6.4349   -1.2075    0.9052 H   0  0  0  0  0  0  0  0  0  0  0  0
   -6.3608   -1.2907   -0.8771 H   0  0  0  0  0  0  0  0  0  0  0  0
    6.4251   -1.2580    0.8039 H   0  0  0  0  0  0  0  0  0  0  0  0
    6.3376   -1.1770   -0.9743 H   0  0  0  0  0  0  0  0  0  0  0  0
   -9.5507    0.0809   -0.2189 H   0  0  0  0  0  0  0  0  0  0  0  0
    9.5285    0.0059   -0.2886 H   0  0  0  0  0  0  0  0  0  0  0  0
  1 16  1  0  0  0  0
  1 40  1  0  0  0  0
  2 17  1  0  0  0  0
  2 41  1  0  0  0  0
  3 16  2  0  0  0  0
  4 17  2  0  0  0  0
  5  6  1  0  0  0  0
  5  7  1  0  0  0  0
  5 18  1  0  0  0  0
  5 19  1  0  0  0  0
  6  8  1  0  0  0  0
  6 20  1  0  0  0  0
  6 21  1  0  0  0  0
  7  9  1  0  0  0  0
  7 22  1  0  0  0  0
  7 23  1  0  0  0  0
  8 10  1  0  0  0  0
  8 24  1  0  0  0  0
  8 25  1  0  0  0  0
  9 11  1  0  0  0  0
  9 26  1  0  0  0  0
  9 27  1  0  0  0  0
 10 12  1  0  0  0  0
 10 28  1  0  0  0  0
 10 29  1  0  0  0  0
 11 13  1  0  0  0  0
 11 30  1  0  0  0  0
 11 31  1  0  0  0  0
 12 14  1  0  0  0  0
 12 32  1  0  0  0  0
 12 33  1  0  0  0  0
 13 15  1  0  0  0  0
 13 34  1  0  0  0  0
 13 35  1  0  0  0  0
 14 16  1  0  0  0  0
 14 36  1  0  0  0  0
 14 37  1  0  0  0  0
 15 17  1  0  0  0  0
 15 38  1  0  0  0  0
 15 39  1  0  0  0  0
M  END
> <PUBCHEM_COMPOUND_CID>
10458

> <PUBCHEM_CONFORMER_RMSD>
1

> <PUBCHEM_CONFORMER_DIVERSEORDER>
1
40
107
30
62
133
94
48
140
34
38
141
52
11
73
27
137
108
7
69
104
123
24
56
51
118
17
130
19
110
3
25
93
99
122
4
135
64
112
139
63
44
119
121
28
61
124
42
79
9
131
126
113
92
26
142
47
82
97
20
54
41
70
59
36
125
68
23
43
50
128
138
90
84
117
13
85
37
72
86
45
16
134
32
12
106
116
14
103
10
136
98
66
105
96
132
83
77
129
2
95
75
109
115
58
87
114
71
88
22
35
74
5
127
60
65
33
39
55
101
100
18
120
91
57
21
67
53
6
80
78
89
8
81
15
31
46
102
76
111
29
49

> <PUBCHEM_MMFF94_PARTIAL_CHARGES>
10
1 -0.65
14 0.06
15 0.06
16 0.66
17 0.66
2 -0.65
3 -0.57
4 -0.57
40 0.5
41 0.5

> <PUBCHEM_EFFECTIVE_ROTOR_COUNT>
12

> <PUBCHEM_PHARMACOPHORE_FEATURES>
6
1 1 acceptor
1 2 acceptor
1 3 acceptor
1 4 acceptor
3 1 3 16 anion
3 2 4 17 anion

> <PUBCHEM_HEAVY_ATOM_COUNT>
17

> <PUBCHEM_ATOM_DEF_STEREO_COUNT>
0

> <PUBCHEM_ATOM_UDEF_STEREO_COUNT>
0

> <PUBCHEM_BOND_DEF_STEREO_COUNT>
0

> <PUBCHEM_BOND_UDEF_STEREO_COUNT>
0

> <PUBCHEM_ISOTOPIC_ATOM_COUNT>
0

> <PUBCHEM_COMPONENT_COUNT>
1

> <PUBCHEM_CACTVS_TAUTO_COUNT>
1

> <PUBCHEM_CONFORMER_ID>
000028DA00000001

> <PUBCHEM_MMFF94_ENERGY>
4.128

> <PUBCHEM_FEATURE_SELFOVERLAP>
30.563

> <PUBCHEM_SHAPE_FINGERPRINT>
11315181 36 18059860580266838059
11638347 137 15791724188588192424
12091667 2 18411419515033000851
14123256 10 18410856559639789574
14251764 18 16298382448590024253
14251764 46 14201397179753062011
14428016 248 17385732391468568300
155225 1 18188212100728106740
15690457 1 9439399121094002153
16120349 18 18334856160445654588
18006028 8 16128656349153400849
20621476 8 18335138683161860982
21095086 128 11240001148350182596
21150785 3 17703791418179622931
22224240 67 17095522907023822074
232437 2 18411700984596769551
23521765 1 18341895190351070555
246663 6 13110964231982204679
28498 318 18131071511469910142
33684 2 18411981356135825474
4325135 7 18342458140362449412
59567204 34 18339360757080937665
59682541 35 17676490570585274225
67123 10 18410855477814589103
8209 1 18413671313775794426

> <PUBCHEM_SHAPE_MULTIPOLES>
326.37
31.26
0.98
0.61
0.45
0.21
-0.01
3.92
2.6
-0.04
0.01
-0.01
-0.01
0.1

> <PUBCHEM_SHAPE_SELFOVERLAP>
605.187

> <PUBCHEM_SHAPE_VOLUME>
204.1

> <PUBCHEM_COORDINATE_TYPE>
2
5
10

$$$$
