15658
  -OEChem-11012400533D

 16 16  0     0  0  0  0  0  0999 V2000
   -0.7852    0.0000   -0.3850 C   0  0  0  0  0  0  0  0  0  0  0  0
    0.0486    1.2218    0.0251 C   0  0  0  0  0  0  0  0  0  0  0  0
    0.0485   -1.2218    0.0251 C   0  0  0  0  0  0  0  0  0  0  0  0
   -2.1812    0.0000    0.2171 C   0  0  0  0  0  0  0  0  0  0  0  0
    1.4346    0.6682    0.0588 C   0  0  0  0  0  0  0  0  0  0  0  0
    1.4347   -0.6683    0.0588 C   0  0  0  0  0  0  0  0  0  0  0  0
   -0.8859    0.0001   -1.4802 H   0  0  0  0  0  0  0  0  0  0  0  0
   -0.2266    1.6127    1.0104 H   0  0  0  0  0  0  0  0  0  0  0  0
   -0.0454    2.0241   -0.7132 H   0  0  0  0  0  0  0  0  0  0  0  0
   -0.0454   -2.0239   -0.7133 H   0  0  0  0  0  0  0  0  0  0  0  0
   -0.2267   -1.6127    1.0103 H   0  0  0  0  0  0  0  0  0  0  0  0
   -2.1440    0.0000    1.3117 H   0  0  0  0  0  0  0  0  0  0  0  0
   -2.7393    0.8862   -0.1020 H   0  0  0  0  0  0  0  0  0  0  0  0
   -2.7393   -0.8863   -0.1020 H   0  0  0  0  0  0  0  0  0  0  0  0
    2.3251    1.2774    0.1128 H   0  0  0  0  0  0  0  0  0  0  0  0
    2.3252   -1.2775    0.1127 H   0  0  0  0  0  0  0  0  0  0  0  0
  1  2  1  0  0  0  0
  1  3  1  0  0  0  0
  1  4  1  0  0  0  0
  1  7  1  0  0  0  0
  2  5  1  0  0  0  0
  2  8  1  0  0  0  0
  2  9  1  0  0  0  0
  3  6  1  0  0  0  0
  3 10  1  0  0  0  0
  3 11  1  0  0  0  0
  4 12  1  0  0  0  0
  4 13  1  0  0  0  0
  4 14  1  0  0  0  0
  5  6  2  0  0  0  0
  5 15  1  0  0  0  0
  6 16  1  0  0  0  0
M  END
> <PUBCHEM_COMPOUND_CID>
15658

> <PUBCHEM_CONFORMER_RMSD>
0.4

> <PUBCHEM_CONFORMER_DIVERSEORDER>
1

> <PUBCHEM_MMFF94_PARTIAL_CHARGES>
6
15 0.15
16 0.15
2 0.14
3 0.14
5 -0.29
6 -0.29

> <PUBCHEM_EFFECTIVE_ROTOR_COUNT>
0.6

> <PUBCHEM_PHARMACOPHORE_FEATURES>
1
5 1 2 3 5 6 rings

> <PUBCHEM_HEAVY_ATOM_COUNT>
6

> <PUBCHEM_ATOM_DEF_STEREO_COUNT>
0

> <PUBCHEM_ATOM_UDEF_STEREO_COUNT>
0

> <PUBCHEM_BOND_DEF_STEREO_COUNT>
0

> <PUBCHEM_BOND_UDEF_STEREO_COUNT>
0

> <PUBCHEM_ISOTOPIC_ATOM_COUNT>
0

> <PUBCHEM_COMPONENT_COUNT>
1

> <PUBCHEM_CACTVS_TAUTO_COUNT>
1

> <PUBCHEM_CONFORMER_ID>
00003D2A00000001

> <PUBCHEM_MMFF94_ENERGY>
6.3731

> <PUBCHEM_FEATURE_SELFOVERLAP>
5.074

> <PUBCHEM_SHAPE_FINGERPRINT>
139733 1 9511164261928348629
16714656 1 18410863165631800382
20096714 4 18341049738928977601
21015797 1 9221784913479540510
21040471 1 18266740358004477332
29004967 10 18260270737144816321
5943 1 15872506707090667446

> <PUBCHEM_SHAPE_MULTIPOLES>
123.48
2.2
1.26
0.65
0.83
0
0.01
0
-0.17
-0.24
-0.02
0.03
0
0

> <PUBCHEM_SHAPE_SELFOVERLAP>
240.433

> <PUBCHEM_SHAPE_VOLUME>
75.3

> <PUBCHEM_COORDINATE_TYPE>
2
5
10

$$$$
