141046
  -OEChem-11012401103D

 42 41  0     0  0  0  0  0  0999 V2000
    1.1360    0.1266   -0.1222 O   0  0  0  0  0  0  0  0  0  0  0  0
   -3.2328   -0.8114   -1.0628 O   0  0  0  0  0  0  0  0  0  0  0  0
    2.5301    0.4922    0.0823 O   0  0  0  0  0  0  0  0  0  0  0  0
   -2.4146   -2.0069   -0.9791 O   0  0  0  0  0  0  0  0  0  0  0  0
    0.4291    1.3682   -0.1560 C   0  0  0  0  0  0  0  0  0  0  0  0
   -1.0605    1.0732   -0.4359 C   0  0  0  0  0  0  0  0  0  0  0  0
   -1.7199    0.1144    0.5722 C   0  0  0  0  0  0  0  0  0  0  0  0
   -3.1867   -0.2433    0.2477 C   0  0  0  0  0  0  0  0  0  0  0  0
    0.6458    2.0867    1.1778 C   0  0  0  0  0  0  0  0  0  0  0  0
    1.0087    2.2084   -1.2996 C   0  0  0  0  0  0  0  0  0  0  0  0
   -4.0350    1.0333    0.2371 C   0  0  0  0  0  0  0  0  0  0  0  0
   -3.7782   -1.2521    1.2350 C   0  0  0  0  0  0  0  0  0  0  0  0
    3.2366   -0.7394    0.1166 C   0  0  0  0  0  0  0  0  0  0  0  0
    3.0240   -1.4591   -1.2144 C   0  0  0  0  0  0  0  0  0  0  0  0
    4.7150   -0.4161    0.3224 C   0  0  0  0  0  0  0  0  0  0  0  0
    2.7024   -1.5746    1.2791 C   0  0  0  0  0  0  0  0  0  0  0  0
   -1.6038    2.0243   -0.4618 H   0  0  0  0  0  0  0  0  0  0  0  0
   -1.1410    0.6289   -1.4359 H   0  0  0  0  0  0  0  0  0  0  0  0
   -1.6881    0.5677    1.5710 H   0  0  0  0  0  0  0  0  0  0  0  0
   -1.1154   -0.7980    0.6409 H   0  0  0  0  0  0  0  0  0  0  0  0
    1.6783    2.4327    1.3010 H   0  0  0  0  0  0  0  0  0  0  0  0
   -0.0033    2.9649    1.2624 H   0  0  0  0  0  0  0  0  0  0  0  0
    0.4438    1.4212    2.0242 H   0  0  0  0  0  0  0  0  0  0  0  0
    2.0453    2.5131   -1.1182 H   0  0  0  0  0  0  0  0  0  0  0  0
    1.0098    1.6408   -2.2375 H   0  0  0  0  0  0  0  0  0  0  0  0
    0.4246    3.1228   -1.4514 H   0  0  0  0  0  0  0  0  0  0  0  0
   -5.0933    0.7848    0.0915 H   0  0  0  0  0  0  0  0  0  0  0  0
   -3.9445    1.5903    1.1752 H   0  0  0  0  0  0  0  0  0  0  0  0
   -3.7750    1.6916   -0.5980 H   0  0  0  0  0  0  0  0  0  0  0  0
   -4.7649   -1.5936    0.9019 H   0  0  0  0  0  0  0  0  0  0  0  0
   -3.8828   -0.8115    2.2324 H   0  0  0  0  0  0  0  0  0  0  0  0
   -3.1532   -2.1458    1.3376 H   0  0  0  0  0  0  0  0  0  0  0  0
    3.2760   -0.8034   -2.0559 H   0  0  0  0  0  0  0  0  0  0  0  0
    3.6463   -2.3583   -1.2805 H   0  0  0  0  0  0  0  0  0  0  0  0
    1.9841   -1.7714   -1.3612 H   0  0  0  0  0  0  0  0  0  0  0  0
    4.8654    0.1427    1.2533 H   0  0  0  0  0  0  0  0  0  0  0  0
    5.0899    0.2228   -0.4854 H   0  0  0  0  0  0  0  0  0  0  0  0
    5.3272   -1.3230    0.3596 H   0  0  0  0  0  0  0  0  0  0  0  0
    1.6615   -1.8825    1.1305 H   0  0  0  0  0  0  0  0  0  0  0  0
    3.2955   -2.4853    1.4164 H   0  0  0  0  0  0  0  0  0  0  0  0
    2.7288   -1.0023    2.2136 H   0  0  0  0  0  0  0  0  0  0  0  0
   -1.6926   -1.6752   -1.5395 H   0  0  0  0  0  0  0  0  0  0  0  0
  1  3  1  0  0  0  0
  1  5  1  0  0  0  0
  2  4  1  0  0  0  0
  2  8  1  0  0  0  0
  3 13  1  0  0  0  0
  4 42  1  0  0  0  0
  5  6  1  0  0  0  0
  5  9  1  0  0  0  0
  5 10  1  0  0  0  0
  6  7  1  0  0  0  0
  6 17  1  0  0  0  0
  6 18  1  0  0  0  0
  7  8  1  0  0  0  0
  7 19  1  0  0  0  0
  7 20  1  0  0  0  0
  8 11  1  0  0  0  0
  8 12  1  0  0  0  0
  9 21  1  0  0  0  0
  9 22  1  0  0  0  0
  9 23  1  0  0  0  0
 10 24  1  0  0  0  0
 10 25  1  0  0  0  0
 10 26  1  0  0  0  0
 11 27  1  0  0  0  0
 11 28  1  0  0  0  0
 11 29  1  0  0  0  0
 12 30  1  0  0  0  0
 12 31  1  0  0  0  0
 12 32  1  0  0  0  0
 13 14  1  0  0  0  0
 13 15  1  0  0  0  0
 13 16  1  0  0  0  0
 14 33  1  0  0  0  0
 14 34  1  0  0  0  0
 14 35  1  0  0  0  0
 15 36  1  0  0  0  0
 15 37  1  0  0  0  0
 15 38  1  0  0  0  0
 16 39  1  0  0  0  0
 16 40  1  0  0  0  0
 16 41  1  0  0  0  0
M  END
> <PUBCHEM_COMPOUND_CID>
141046

> <PUBCHEM_CONFORMER_RMSD>
0.8

> <PUBCHEM_CONFORMER_DIVERSEORDER>
3
33
27
31
10
30
12
22
14
8
25
32
29
19
17
4
5
6
20
2
23
18
26
1
21
13
24
9
28
11
7
16
15

> <PUBCHEM_MMFF94_PARTIAL_CHARGES>
8
1 -0.28
13 0.28
2 -0.28
3 -0.28
4 -0.4
42 0.4
5 0.28
8 0.28

> <PUBCHEM_EFFECTIVE_ROTOR_COUNT>
7

> <PUBCHEM_PHARMACOPHORE_FEATURES>
3
3 5 9 10 hydrophobe
3 8 11 12 hydrophobe
4 13 14 15 16 hydrophobe

> <PUBCHEM_HEAVY_ATOM_COUNT>
16

> <PUBCHEM_ATOM_DEF_STEREO_COUNT>
0

> <PUBCHEM_ATOM_UDEF_STEREO_COUNT>
0

> <PUBCHEM_BOND_DEF_STEREO_COUNT>
0

> <PUBCHEM_BOND_UDEF_STEREO_COUNT>
0

> <PUBCHEM_ISOTOPIC_ATOM_COUNT>
0

> <PUBCHEM_COMPONENT_COUNT>
1

> <PUBCHEM_CACTVS_TAUTO_COUNT>
1

> <PUBCHEM_CONFORMER_ID>
000226F600000003

> <PUBCHEM_MMFF94_ENERGY>
41.2313

> <PUBCHEM_FEATURE_SELFOVERLAP>
15.223

> <PUBCHEM_SHAPE_FINGERPRINT>
10366900 7 15841548552782968306
10618630 7 18270402685524241862
11132069 177 18201996612399077486
11543360 7 15213314052748441106
11715629 250 12035732045513919255
12251169 10 17917994988027015633
12346645 44 9007062365622656621
124424 183 18343300345343492105
12553582 1 18333727992321078938
12633257 1 15554170263862445254
12932764 1 17985840452246631017
13296908 3 18187365471450544881
13533116 47 16056320506018176983
13705890 14 16588027917976750496
14252887 29 18273221872140375114
14787075 74 18339357587067304728
15375462 189 18410572894477820994
15502722 9 17751376181386413988
1813 80 18262252035823841924
18186145 218 12035454930102950958
18511873 20 18411141316483457721
19107657 46 18260269637586177107
200 152 17241047600819460794
20281407 28 18260831466542311728
20281475 54 18040156205813852433
20291156 8 18408605833710613090
20300324 65 11963397340418077387
20339313 130 18261119598755442757
20361792 2 18259983764567866228
20442098 301 18201434766183647038
20645477 70 18338512053650313215
20671657 53 17894918425130246620
20871998 22 18341620261352821132
21069387 34 17560218315697116573
21250096 35 18411980230495600544
21524375 3 16408715404054509881
22485316 2 18409163286153186400
2255824 54 18188778382383516412
231179 274 11167952346115279144
232386 152 18130793386066595493
23382010 3 14635165558834125984
23402539 116 17749387027892322048
23557571 272 18263643953542219820
23598291 2 18338239383293204021
449060 23 18340489971894508326
58051976 100 18260269638118680141
5902787 121 18407757040867098592
6333272 397 11743824881093745749
7364860 26 18267588094518489968
81228 2 18120667824657343592
83771 10 18335419054194969328

> <PUBCHEM_SHAPE_MULTIPOLES>
305.8
8.18
2.19
1.26
0.04
0.51
0.05
-3.89
-0.77
-0.07
0.16
-0.07
-0.15
-0.17

> <PUBCHEM_SHAPE_SELFOVERLAP>
577.036

> <PUBCHEM_SHAPE_VOLUME>
194.3

> <PUBCHEM_COORDINATE_TYPE>
2
5
10

$$$$
