5716856
  -OEChem-10312420092D

 38 40  0     0  0  0  0  0  0999 V2000
    4.6783    0.8047    0.0000 N   0  0  0  0  0  0  0  0  0  0  0  0
   10.7619   -0.8660    0.0000 N   0  0  0  0  0  0  0  0  0  0  0  0
    4.6783   -0.8047    0.0000 N   0  0  0  0  0  0  0  0  0  0  0  0
    7.2619    1.7320    0.0000 N   0  0  0  0  0  0  0  0  0  0  0  0
    3.7320    0.5000    0.0000 C   0  0  0  0  0  0  0  0  0  0  0  0
    3.7320   -0.5000    0.0000 C   0  0  0  0  0  0  0  0  0  0  0  0
    5.2619    0.0000    0.0000 C   0  0  0  0  0  0  0  0  0  0  0  0
    9.7619   -0.8660    0.0000 C   0  0  0  0  0  0  0  0  0  0  0  0
    7.7619   -0.8660    0.0000 C   0  0  0  0  0  0  0  0  0  0  0  0
    6.2619    0.0000    0.0000 C   0  0  0  0  0  0  0  0  0  0  0  0
    6.7619   -0.8660    0.0000 C   0  0  0  0  0  0  0  0  0  0  0  0
    9.2619   -1.7320    0.0000 C   0  0  0  0  0  0  0  0  0  0  0  0
    9.2619   -0.0000    0.0000 C   0  0  0  0  0  0  0  0  0  0  0  0
    8.2619   -1.7320    0.0000 C   0  0  0  0  0  0  0  0  0  0  0  0
    8.2619    0.0000    0.0000 C   0  0  0  0  0  0  0  0  0  0  0  0
    2.8660    1.0000    0.0000 C   0  0  0  0  0  0  0  0  0  0  0  0
    2.8660   -1.0000    0.0000 C   0  0  0  0  0  0  0  0  0  0  0  0
    2.0000    0.5000    0.0000 C   0  0  0  0  0  0  0  0  0  0  0  0
    2.0000   -0.5000    0.0000 C   0  0  0  0  0  0  0  0  0  0  0  0
   11.2619   -1.7320    0.0000 C   0  0  0  0  0  0  0  0  0  0  0  0
   11.2619   -0.0000    0.0000 C   0  0  0  0  0  0  0  0  0  0  0  0
    6.7619    0.8660    0.0000 C   0  0  0  0  0  0  0  0  0  0  0  0
    4.8709    1.3940    0.0000 H   0  0  0  0  0  0  0  0  0  0  0  0
    6.4519   -1.4030    0.0000 H   0  0  0  0  0  0  0  0  0  0  0  0
    9.5719   -2.2690    0.0000 H   0  0  0  0  0  0  0  0  0  0  0  0
    9.5719    0.5369    0.0000 H   0  0  0  0  0  0  0  0  0  0  0  0
    7.9519   -2.2690    0.0000 H   0  0  0  0  0  0  0  0  0  0  0  0
    7.9519    0.5369    0.0000 H   0  0  0  0  0  0  0  0  0  0  0  0
    2.8660    1.6200    0.0000 H   0  0  0  0  0  0  0  0  0  0  0  0
    2.8660   -1.6200    0.0000 H   0  0  0  0  0  0  0  0  0  0  0  0
    1.4631    0.8100    0.0000 H   0  0  0  0  0  0  0  0  0  0  0  0
    1.4631   -0.8100    0.0000 H   0  0  0  0  0  0  0  0  0  0  0  0
   10.7249   -2.0420    0.0000 H   0  0  0  0  0  0  0  0  0  0  0  0
   11.5719   -2.2690    0.0000 H   0  0  0  0  0  0  0  0  0  0  0  0
   11.7988   -1.4220    0.0000 H   0  0  0  0  0  0  0  0  0  0  0  0
   11.7988   -0.3100    0.0000 H   0  0  0  0  0  0  0  0  0  0  0  0
   11.5719    0.5369    0.0000 H   0  0  0  0  0  0  0  0  0  0  0  0
   10.7249    0.3100    0.0000 H   0  0  0  0  0  0  0  0  0  0  0  0
  1  5  1  0  0  0  0
  1  7  1  0  0  0  0
  1 23  1  0  0  0  0
  2  8  1  0  0  0  0
  2 20  1  0  0  0  0
  2 21  1  0  0  0  0
  3  6  1  0  0  0  0
  3  7  2  0  0  0  0
  4 22  3  0  0  0  0
  5  6  1  0  0  0  0
  5 16  2  0  0  0  0
  6 17  2  0  0  0  0
  7 10  1  0  0  0  0
  8 12  2  0  0  0  0
  8 13  1  0  0  0  0
  9 11  1  0  0  0  0
  9 14  2  0  0  0  0
  9 15  1  0  0  0  0
 10 11  2  0  0  0  0
 10 22  1  0  0  0  0
 11 24  1  0  0  0  0
 12 14  1  0  0  0  0
 12 25  1  0  0  0  0
 13 15  2  0  0  0  0
 13 26  1  0  0  0  0
 14 27  1  0  0  0  0
 15 28  1  0  0  0  0
 16 18  1  0  0  0  0
 16 29  1  0  0  0  0
 17 19  1  0  0  0  0
 17 30  1  0  0  0  0
 18 19  2  0  0  0  0
 18 31  1  0  0  0  0
 19 32  1  0  0  0  0
 20 33  1  0  0  0  0
 20 34  1  0  0  0  0
 20 35  1  0  0  0  0
 21 36  1  0  0  0  0
 21 37  1  0  0  0  0
 21 38  1  0  0  0  0
M  END
> <PUBCHEM_COMPOUND_CID>
5716856

> <PUBCHEM_COMPOUND_CANONICALIZED>
1

> <PUBCHEM_CACTVS_COMPLEXITY>
453

> <PUBCHEM_CACTVS_HBOND_ACCEPTOR>
3

> <PUBCHEM_CACTVS_HBOND_DONOR>
1

> <PUBCHEM_CACTVS_ROTATABLE_BOND>
3

> <PUBCHEM_CACTVS_SUBSKEYS>
AAADceB7gAAAAAAAAAAAAAAAAAAAAWAAAAAwYAAAAAAAAFgB9AAAHAAQAAAADAiBHwQz0LfJkACwByZiZACigC2hEqAJmSA4dJiI6KLAmZGUIAhokALIyCcQgAAOCAAAAAAAACAQAAAAAAAAQAAAAAAAAA==

> <PUBCHEM_IUPAC_OPENEYE_NAME>
(E)-2-(1H-benzimidazol-2-yl)-3-[4-(dimethylamino)phenyl]prop-2-enenitrile

> <PUBCHEM_IUPAC_CAS_NAME>
(E)-2-(1H-benzimidazol-2-yl)-3-[4-(dimethylamino)phenyl]-2-propenenitrile

> <PUBCHEM_IUPAC_NAME_MARKUP>
(<I>E</I>)-2-(1<I>H</I>-benzimidazol-2-yl)-3-[4-(dimethylamino)phenyl]prop-2-enenitrile

> <PUBCHEM_IUPAC_NAME>
(E)-2-(1H-benzimidazol-2-yl)-3-[4-(dimethylamino)phenyl]prop-2-enenitrile

> <PUBCHEM_IUPAC_SYSTEMATIC_NAME>
(E)-2-(1H-benzimidazol-2-yl)-3-[4-(dimethylamino)phenyl]prop-2-enenitrile

> <PUBCHEM_IUPAC_TRADITIONAL_NAME>
(E)-2-(1H-benzimidazol-2-yl)-3-[4-(dimethylamino)phenyl]acrylonitrile

> <PUBCHEM_IUPAC_INCHI>
InChI=1S/C18H16N4/c1-22(2)15-9-7-13(8-10-15)11-14(12-19)18-20-16-5-3-4-6-17(16)21-18/h3-11H,1-2H3,(H,20,21)/b14-11+

> <PUBCHEM_IUPAC_INCHIKEY>
SHZAKAMMDOHBMT-SDNWHVSQSA-N

> <PUBCHEM_XLOGP3_AA>
3.4

> <PUBCHEM_EXACT_MASS>
288.137496527

> <PUBCHEM_MOLECULAR_FORMULA>
C18H16N4

> <PUBCHEM_MOLECULAR_WEIGHT>
288.3

> <PUBCHEM_OPENEYE_CAN_SMILES>
CN(C)C1=CC=C(C=C1)C=C(C#N)C2=NC3=CC=CC=C3N2

> <PUBCHEM_OPENEYE_ISO_SMILES>
CN(C)C1=CC=C(C=C1)/C=C(\C#N)/C2=NC3=CC=CC=C3N2

> <PUBCHEM_CACTVS_TPSA>
55.7

> <PUBCHEM_MONOISOTOPIC_WEIGHT>
288.137496527

> <PUBCHEM_TOTAL_CHARGE>
0

> <PUBCHEM_HEAVY_ATOM_COUNT>
22

> <PUBCHEM_ATOM_DEF_STEREO_COUNT>
0

> <PUBCHEM_ATOM_UDEF_STEREO_COUNT>
0

> <PUBCHEM_BOND_DEF_STEREO_COUNT>
1

> <PUBCHEM_BOND_UDEF_STEREO_COUNT>
0

> <PUBCHEM_ISOTOPIC_ATOM_COUNT>
0

> <PUBCHEM_COMPONENT_COUNT>
1

> <PUBCHEM_CACTVS_TAUTO_COUNT>
-1

> <PUBCHEM_COORDINATE_TYPE>
1
5
255

> <PUBCHEM_BONDANNOTATIONS>
1  5  8
1  7  8
12  14  8
13  15  8
16  18  8
17  19  8
18  19  8
3  6  8
3  7  8
5  16  8
5  6  8
6  17  8
8  12  8
8  13  8
9  14  8
9  15  8

$$$$
