5372934
  -OEChem-11012400543D

 19 19  0     0  0  0  0  0  0999 V2000
   -0.6566   -2.8668    0.0364 I   0  0  0  0  0  0  0  0  0  0  0  0
    3.8924    0.2708   -1.1492 O   0  0  0  0  0  0  0  0  0  0  0  0
    3.5578    0.0549    1.0972 O   0  0  0  0  0  0  0  0  0  0  0  0
   -0.6933    0.2094    0.2427 C   0  0  0  0  0  0  0  0  0  0  0  0
   -1.4663   -0.9303    0.0207 C   0  0  0  0  0  0  0  0  0  0  0  0
   -1.2881    1.4709    0.2191 C   0  0  0  0  0  0  0  0  0  0  0  0
    0.7404    0.1567    0.5052 C   0  0  0  0  0  0  0  0  0  0  0  0
   -2.8341   -0.8084   -0.2248 C   0  0  0  0  0  0  0  0  0  0  0  0
   -2.6559    1.5927   -0.0265 C   0  0  0  0  0  0  0  0  0  0  0  0
   -3.4288    0.4531   -0.2484 C   0  0  0  0  0  0  0  0  0  0  0  0
    1.7057    0.2258   -0.4349 C   0  0  0  0  0  0  0  0  0  0  0  0
    3.1268    0.1712   -0.0375 C   0  0  0  0  0  0  0  0  0  0  0  0
   -0.7032    2.3718    0.3907 H   0  0  0  0  0  0  0  0  0  0  0  0
    1.0017    0.0607    1.5568 H   0  0  0  0  0  0  0  0  0  0  0  0
   -3.4585   -1.6807   -0.4009 H   0  0  0  0  0  0  0  0  0  0  0  0
   -3.1192    2.5748   -0.0447 H   0  0  0  0  0  0  0  0  0  0  0  0
   -4.4937    0.5483   -0.4396 H   0  0  0  0  0  0  0  0  0  0  0  0
    1.4628    0.3256   -1.4879 H   0  0  0  0  0  0  0  0  0  0  0  0
    4.8502    0.2391   -0.9397 H   0  0  0  0  0  0  0  0  0  0  0  0
  1  5  1  0  0  0  0
  2 12  1  0  0  0  0
  2 19  1  0  0  0  0
  3 12  2  0  0  0  0
  4  5  1  0  0  0  0
  4  6  2  0  0  0  0
  4  7  1  0  0  0  0
  5  8  2  0  0  0  0
  6  9  1  0  0  0  0
  6 13  1  0  0  0  0
  7 11  2  0  0  0  0
  7 14  1  0  0  0  0
  8 10  1  0  0  0  0
  8 15  1  0  0  0  0
  9 10  2  0  0  0  0
  9 16  1  0  0  0  0
 10 17  1  0  0  0  0
 11 12  1  0  0  0  0
 11 18  1  0  0  0  0
M  END
> <PUBCHEM_COMPOUND_CID>
5372934

> <PUBCHEM_CONFORMER_RMSD>
0.6

> <PUBCHEM_CONFORMER_DIVERSEORDER>
1
3
2

> <PUBCHEM_MMFF94_PARTIAL_CHARGES>
19
1 -0.08
10 -0.15
11 -0.14
12 0.71
13 0.15
14 0.15
15 0.15
16 0.15
17 0.15
18 0.15
19 0.5
2 -0.65
3 -0.57
4 0.03
5 0.08
6 -0.15
7 -0.18
8 -0.15
9 -0.15

> <PUBCHEM_EFFECTIVE_ROTOR_COUNT>
2

> <PUBCHEM_PHARMACOPHORE_FEATURES>
5
1 1 hydrophobe
1 2 acceptor
1 3 acceptor
3 2 3 12 anion
6 4 5 6 8 9 10 rings

> <PUBCHEM_HEAVY_ATOM_COUNT>
12

> <PUBCHEM_ATOM_DEF_STEREO_COUNT>
0

> <PUBCHEM_ATOM_UDEF_STEREO_COUNT>
0

> <PUBCHEM_BOND_DEF_STEREO_COUNT>
1

> <PUBCHEM_BOND_UDEF_STEREO_COUNT>
0

> <PUBCHEM_ISOTOPIC_ATOM_COUNT>
0

> <PUBCHEM_COMPONENT_COUNT>
1

> <PUBCHEM_CACTVS_TAUTO_COUNT>
1

> <PUBCHEM_CONFORMER_ID>
0051FC0600000001

> <PUBCHEM_MMFF94_ENERGY>
32.5306

> <PUBCHEM_FEATURE_SELFOVERLAP>
25.427

> <PUBCHEM_SHAPE_FINGERPRINT>
10726558 24 18338803303803784287
12500047 106 18412541020613351646
12716758 59 18341891926186520787
12932764 1 17749102318515321076
13024252 1 13406792233872225701
13380535 76 18410571751911362755
14144814 61 18334293162914880712
14325111 11 18410855421510457400
14614273 12 18189609454613889565
14993402 34 18259703410683127997
15279307 12 18186235130595465514
15669948 3 18335983185369931022
15775835 57 18040718043360272500
16945 1 18410855498957090267
18186145 218 18060703857770866712
20201158 50 17846784004999583726
20279233 1 17775283876642695118
20510252 161 18272934925074714393
20645476 183 18040442126124289262
20645477 56 18410857685280242112
20871998 184 18198911485919532895
20871999 31 18267586982084641207
23402539 116 18341880914206696733
23463225 33 18189327974994071370
23552423 10 18050001091728041163
23559900 14 18272932726768597280
2748010 2 18266750086406362615
305870 269 18191022305227245555
4175511 318 17967525783635093079
43471831 8 18336542720866959475
6333449 129 18342172276129661073
7364860 26 17981884138362859539
77492 1 17749382672294363104
81228 2 18123180479394076115
81539 233 18116147771310669567

> <PUBCHEM_SHAPE_MULTIPOLES>
247.15
5.99
2.24
0.84
5.06
2.1
0.01
-1.86
0.71
-1.56
-0.06
0.54
0.02
-0.09

> <PUBCHEM_SHAPE_SELFOVERLAP>
491.724

> <PUBCHEM_SHAPE_VOLUME>
149

> <PUBCHEM_COORDINATE_TYPE>
2
5
10

$$$$
