140200
  -OEChem-11012401123D

 26 26  0     1  0  0  0  0  0999 V2000
    0.1551   -1.2681   -0.0354 O   0  0  0  0  0  0  0  0  0  0  0  0
   -1.0015    0.7398   -0.7076 O   0  0  0  0  0  0  0  0  0  0  0  0
    1.4392    0.6833   -0.5910 C   0  0  0  0  0  0  0  0  0  0  0  0
    1.3195   -0.5284    0.3268 C   0  0  2  0  0  0  0  0  0  0  0  0
    0.1720    1.5354   -0.5511 C   0  0  2  0  0  0  0  0  0  0  0  0
   -1.0521   -0.4997    0.0091 C   0  0  0  0  0  0  0  0  0  0  0  0
    2.5217   -1.4518    0.1793 C   0  0  0  0  0  0  0  0  0  0  0  0
    0.0896    2.4503    0.6659 C   0  0  0  0  0  0  0  0  0  0  0  0
   -2.0921   -1.3423   -0.7414 C   0  0  0  0  0  0  0  0  0  0  0  0
   -1.5513   -0.3186    1.4455 C   0  0  0  0  0  0  0  0  0  0  0  0
    2.3245    1.2815   -0.3483 H   0  0  0  0  0  0  0  0  0  0  0  0
    1.5583    0.3220   -1.6216 H   0  0  0  0  0  0  0  0  0  0  0  0
    1.2518   -0.2229    1.3759 H   0  0  0  0  0  0  0  0  0  0  0  0
    0.1907    2.1972   -1.4257 H   0  0  0  0  0  0  0  0  0  0  0  0
    2.6044   -1.8314   -0.8451 H   0  0  0  0  0  0  0  0  0  0  0  0
    3.4519   -0.9383    0.4408 H   0  0  0  0  0  0  0  0  0  0  0  0
    2.4110   -2.3266    0.8293 H   0  0  0  0  0  0  0  0  0  0  0  0
   -0.8948    2.9259    0.7254 H   0  0  0  0  0  0  0  0  0  0  0  0
    0.2516    1.9176    1.6046 H   0  0  0  0  0  0  0  0  0  0  0  0
    0.8526    3.2337    0.6069 H   0  0  0  0  0  0  0  0  0  0  0  0
   -3.0677   -0.8444   -0.7698 H   0  0  0  0  0  0  0  0  0  0  0  0
   -1.7786   -1.4958   -1.7811 H   0  0  0  0  0  0  0  0  0  0  0  0
   -2.2074   -2.3347   -0.2918 H   0  0  0  0  0  0  0  0  0  0  0  0
   -0.8136    0.1639    2.0884 H   0  0  0  0  0  0  0  0  0  0  0  0
   -2.4575    0.2956    1.4745 H   0  0  0  0  0  0  0  0  0  0  0  0
   -1.7606   -1.2882    1.9116 H   0  0  0  0  0  0  0  0  0  0  0  0
  1  4  1  0  0  0  0
  1  6  1  0  0  0  0
  2  5  1  0  0  0  0
  2  6  1  0  0  0  0
  3  4  1  0  0  0  0
  3  5  1  0  0  0  0
  3 11  1  0  0  0  0
  3 12  1  0  0  0  0
  4  7  1  0  0  0  0
  4 13  1  0  0  0  0
  5  8  1  0  0  0  0
  5 14  1  0  0  0  0
  6  9  1  0  0  0  0
  6 10  1  0  0  0  0
  7 15  1  0  0  0  0
  7 16  1  0  0  0  0
  7 17  1  0  0  0  0
  8 18  1  0  0  0  0
  8 19  1  0  0  0  0
  8 20  1  0  0  0  0
  9 21  1  0  0  0  0
  9 22  1  0  0  0  0
  9 23  1  0  0  0  0
 10 24  1  0  0  0  0
 10 25  1  0  0  0  0
 10 26  1  0  0  0  0
M  END
> <PUBCHEM_COMPOUND_CID>
140200

> <PUBCHEM_CONFORMER_RMSD>
0.4

> <PUBCHEM_CONFORMER_DIVERSEORDER>
1
2
3
4

> <PUBCHEM_MMFF94_PARTIAL_CHARGES>
5
1 -0.56
2 -0.56
4 0.28
5 0.28
6 0.56

> <PUBCHEM_EFFECTIVE_ROTOR_COUNT>
1.2

> <PUBCHEM_PHARMACOPHORE_FEATURES>
4
1 1 acceptor
1 2 acceptor
3 6 9 10 hydrophobe
6 1 2 3 4 5 6 rings

> <PUBCHEM_HEAVY_ATOM_COUNT>
10

> <PUBCHEM_ATOM_DEF_STEREO_COUNT>
0

> <PUBCHEM_ATOM_UDEF_STEREO_COUNT>
2

> <PUBCHEM_BOND_DEF_STEREO_COUNT>
0

> <PUBCHEM_BOND_UDEF_STEREO_COUNT>
0

> <PUBCHEM_ISOTOPIC_ATOM_COUNT>
0

> <PUBCHEM_COMPONENT_COUNT>
1

> <PUBCHEM_CACTVS_TAUTO_COUNT>
1

> <PUBCHEM_CONFORMER_ID>
000223A800000001

> <PUBCHEM_MMFF94_ENERGY>
25.9928

> <PUBCHEM_FEATURE_SELFOVERLAP>
20.327

> <PUBCHEM_SHAPE_FINGERPRINT>
12423570 1 13110669601383737251
13024252 1 16011020575081686970
137420 1 16387810174520562709
14817 1 14888439500963849992
16945 1 18042978763937011220
18185500 45 18340774856748282278
21040471 1 16894830432421762052
21922407 69 17558282178303789643
23552333 60 17769939296448685887
23552423 10 18113618941727068006
241688 4 18411692167076026618
2748010 2 18408877430320357484
29004967 10 17896048800192278728

> <PUBCHEM_SHAPE_MULTIPOLES>
194.06
2.6
2.18
1.05
0.24
1.1
0.22
-1.62
-0.01
0.56
0.15
-0.41
0.07
-0.29

> <PUBCHEM_SHAPE_SELFOVERLAP>
376.34

> <PUBCHEM_SHAPE_VOLUME>
118.3

> <PUBCHEM_COORDINATE_TYPE>
2
5
10

$$$$
