138346
  -OEChem-11012401143D

 34 34  0     0  0  0  0  0  0999 V2000
    2.9027    0.2625   -0.1305 O   0  0  0  0  0  0  0  0  0  0  0  0
    2.2315   -1.9239    0.0386 O   0  0  0  0  0  0  0  0  0  0  0  0
    0.3682    1.1874    0.0964 N   0  0  0  0  0  0  0  0  0  0  0  0
   -1.5702    0.1782    0.3468 C   0  0  0  0  0  0  0  0  0  0  0  0
   -3.0407   -0.0640    0.5137 C   0  0  0  0  0  0  0  0  0  0  0  0
   -0.5780   -0.8129    0.2858 C   0  0  0  0  0  0  0  0  0  0  0  0
   -0.9788    1.4022    0.2297 C   0  0  0  0  0  0  0  0  0  0  0  0
    0.6240   -0.1587    0.1298 C   0  0  0  0  0  0  0  0  0  0  0  0
   -3.7596   -0.2208   -0.8286 C   0  0  0  0  0  0  0  0  0  0  0  0
   -0.7753   -2.2752    0.3722 C   0  0  0  0  0  0  0  0  0  0  0  0
   -1.5357    2.7685    0.2280 C   0  0  0  0  0  0  0  0  0  0  0  0
   -5.2425   -0.4960   -0.6374 C   0  0  0  0  0  0  0  0  0  0  0  0
    1.9370   -0.7129    0.0158 C   0  0  0  0  0  0  0  0  0  0  0  0
    4.2613   -0.1732   -0.2555 C   0  0  0  0  0  0  0  0  0  0  0  0
    5.1561    1.0388   -0.4048 C   0  0  0  0  0  0  0  0  0  0  0  0
   -3.2074   -0.9510    1.1364 H   0  0  0  0  0  0  0  0  0  0  0  0
   -3.4861    0.7725    1.0680 H   0  0  0  0  0  0  0  0  0  0  0  0
   -3.6358    0.6871   -1.4311 H   0  0  0  0  0  0  0  0  0  0  0  0
   -3.3135   -1.0433   -1.4009 H   0  0  0  0  0  0  0  0  0  0  0  0
    1.0675    1.9098   -0.0095 H   0  0  0  0  0  0  0  0  0  0  0  0
   -0.3593   -2.6621    1.3083 H   0  0  0  0  0  0  0  0  0  0  0  0
   -1.8303   -2.5601    0.3336 H   0  0  0  0  0  0  0  0  0  0  0  0
   -0.2800   -2.7837   -0.4617 H   0  0  0  0  0  0  0  0  0  0  0  0
   -0.7826    3.5163   -0.0413 H   0  0  0  0  0  0  0  0  0  0  0  0
   -2.3566    2.8503   -0.4916 H   0  0  0  0  0  0  0  0  0  0  0  0
   -1.9233    3.0233    1.2196 H   0  0  0  0  0  0  0  0  0  0  0  0
   -5.4003   -1.4200   -0.0720 H   0  0  0  0  0  0  0  0  0  0  0  0
   -5.7272    0.3243   -0.0987 H   0  0  0  0  0  0  0  0  0  0  0  0
   -5.7363   -0.6036   -1.6082 H   0  0  0  0  0  0  0  0  0  0  0  0
    4.5457   -0.7370    0.6396 H   0  0  0  0  0  0  0  0  0  0  0  0
    4.3567   -0.8164   -1.1370 H   0  0  0  0  0  0  0  0  0  0  0  0
    6.2039    0.7417   -0.5030 H   0  0  0  0  0  0  0  0  0  0  0  0
    4.8698    1.6228   -1.2858 H   0  0  0  0  0  0  0  0  0  0  0  0
    5.0556    1.7009    0.4616 H   0  0  0  0  0  0  0  0  0  0  0  0
  1 13  1  0  0  0  0
  1 14  1  0  0  0  0
  2 13  2  0  0  0  0
  3  7  1  0  0  0  0
  3  8  1  0  0  0  0
  3 20  1  0  0  0  0
  4  5  1  0  0  0  0
  4  6  1  0  0  0  0
  4  7  2  0  0  0  0
  5  9  1  0  0  0  0
  5 16  1  0  0  0  0
  5 17  1  0  0  0  0
  6  8  2  0  0  0  0
  6 10  1  0  0  0  0
  7 11  1  0  0  0  0
  8 13  1  0  0  0  0
  9 12  1  0  0  0  0
  9 18  1  0  0  0  0
  9 19  1  0  0  0  0
 10 21  1  0  0  0  0
 10 22  1  0  0  0  0
 10 23  1  0  0  0  0
 11 24  1  0  0  0  0
 11 25  1  0  0  0  0
 11 26  1  0  0  0  0
 12 27  1  0  0  0  0
 12 28  1  0  0  0  0
 12 29  1  0  0  0  0
 14 15  1  0  0  0  0
 14 30  1  0  0  0  0
 14 31  1  0  0  0  0
 15 32  1  0  0  0  0
 15 33  1  0  0  0  0
 15 34  1  0  0  0  0
M  END
> <PUBCHEM_COMPOUND_CID>
138346

> <PUBCHEM_CONFORMER_RMSD>
0.6

> <PUBCHEM_CONFORMER_DIVERSEORDER>
1
62
71
52
59
66
72
9
5
30
12
40
35
73
26
69
6
56
64
25
39
63
48
68
33
22
70
45
76
29
38
53
67
51
41
19
11
36
37
27
47
17
7
57
58
61
43
74
46
55
14
24
42
8
50
21
31
15
3
32
10
18
34
54
4
49
20
77
44
28
16
65
23
13
60
75
2

> <PUBCHEM_MMFF94_PARTIAL_CHARGES>
13
1 -0.43
10 0.18
11 0.18
13 0.81
14 0.28
2 -0.57
20 0.27
3 0.03
4 -0.18
5 0.18
6 -0.18
7 -0.33
8 -0.24

> <PUBCHEM_EFFECTIVE_ROTOR_COUNT>
5

> <PUBCHEM_PHARMACOPHORE_FEATURES>
5
1 12 hydrophobe
1 2 acceptor
1 3 cation
1 3 donor
5 3 4 6 7 8 rings

> <PUBCHEM_HEAVY_ATOM_COUNT>
15

> <PUBCHEM_ATOM_DEF_STEREO_COUNT>
0

> <PUBCHEM_ATOM_UDEF_STEREO_COUNT>
0

> <PUBCHEM_BOND_DEF_STEREO_COUNT>
0

> <PUBCHEM_BOND_UDEF_STEREO_COUNT>
0

> <PUBCHEM_ISOTOPIC_ATOM_COUNT>
0

> <PUBCHEM_COMPONENT_COUNT>
1

> <PUBCHEM_CACTVS_TAUTO_COUNT>
2

> <PUBCHEM_CONFORMER_ID>
00021C6A00000001

> <PUBCHEM_MMFF94_ENERGY>
10.2448

> <PUBCHEM_FEATURE_SELFOVERLAP>
25.371

> <PUBCHEM_SHAPE_FINGERPRINT>
11401426 45 18408881858457967743
11680986 33 17981601877649363441
12119455 92 13695582269489149851
13380535 76 18409733958758947450
14576447 43 18200299035576900487
14911166 2 18410008870814146063
14993402 34 18341610438678355439
15501527 24 18412259575342638367
16945 1 18336839648802996608
18769570 83 15574982949724398989
187816 3 18408884053291809479
193761 8 17762056949176149235
200 152 18413385436578970277
20344682 1 17846781814413249716
20510252 161 18270968938160106904
20645477 70 18335416807737715050
21029758 11 18342457066731875873
21501502 16 18195246611615530600
21637258 2 15554439687244780607
2334 1 17834120023412972800
23402539 116 18412822482267252317
23402655 69 18339916035720575773
23557571 272 17988932136645630988
23559900 14 18411139173684842314
2748010 2 18120946009646400636
34934 24 18336541702642978290
4340502 62 16370725924462616419
4463277 17 18413672409609834785
532947 4 17911233141819885352
57003041 33 18408323293618728540
57005193 9 18333729135040855410
58051976 378 18411423908114644830
9709674 26 18340779122099641966

> <PUBCHEM_SHAPE_MULTIPOLES>
291.97
8.77
2.09
0.74
3.5
0.56
-0.04
0.29
-2.72
-0.33
0.28
-0.36
-0.02
-0.32

> <PUBCHEM_SHAPE_SELFOVERLAP>
588.804

> <PUBCHEM_SHAPE_VOLUME>
174.3

> <PUBCHEM_COORDINATE_TYPE>
2
5
10

$$$$
