135401992
  -OEChem-10312420502D

 90 98  0     0  0  0  0  0  0999 V2000
    5.1047    0.0409    0.0000 N   0  0  0  0  0  0  0  0  0  0  0  0
    8.1099    0.0409    0.0000 N   0  0  0  0  0  0  0  0  0  0  0  0
    6.5746    1.4104    0.0000 N   0  0  0  0  0  0  0  0  0  0  0  0
    6.6081   -1.3286    0.0000 N   0  0  0  0  0  0  0  0  0  0  0  0
    4.5371    0.8093    0.0000 C   0  0  0  0  0  0  0  0  0  0  0  0
    4.5371   -0.7276    0.0000 C   0  0  0  0  0  0  0  0  0  0  0  0
    8.6774    0.8428    0.0000 C   0  0  0  0  0  0  0  0  0  0  0  0
    8.7109   -0.6941    0.0000 C   0  0  0  0  0  0  0  0  0  0  0  0
    4.8050    1.7770    0.0000 C   0  0  0  0  0  0  0  0  0  0  0  0
    4.8385   -1.6618    0.0000 C   0  0  0  0  0  0  0  0  0  0  0  0
    8.3778    1.7770    0.0000 C   0  0  0  0  0  0  0  0  0  0  0  0
    8.4112   -1.6618    0.0000 C   0  0  0  0  0  0  0  0  0  0  0  0
    5.7727    2.0449    0.0000 C   0  0  0  0  0  0  0  0  0  0  0  0
    5.8062   -1.9632    0.0000 C   0  0  0  0  0  0  0  0  0  0  0  0
    7.4101    2.0784    0.0000 C   0  0  0  0  0  0  0  0  0  0  0  0
    7.4101   -1.9297    0.0000 C   0  0  0  0  0  0  0  0  0  0  0  0
    3.5694    0.5414    0.0000 C   0  0  0  0  0  0  0  0  0  0  0  0
    3.5694   -0.4597    0.0000 C   0  0  0  0  0  0  0  0  0  0  0  0
    9.6468    0.5749    0.0000 C   0  0  0  0  0  0  0  0  0  0  0  0
    9.6468   -0.4262    0.0000 C   0  0  0  0  0  0  0  0  0  0  0  0
    4.1038    2.4899    0.0000 C   0  0  0  0  0  0  0  0  0  0  0  0
    4.1678   -2.4035    0.0000 C   0  0  0  0  0  0  0  0  0  0  0  0
    9.1126    2.4552    0.0000 C   0  0  0  0  0  0  0  0  0  0  0  0
    9.1181   -2.3692    0.0000 C   0  0  0  0  0  0  0  0  0  0  0  0
    6.0741    3.0126    0.0000 C   0  0  0  0  0  0  0  0  0  0  0  0
    6.1075   -2.8974    0.0000 C   0  0  0  0  0  0  0  0  0  0  0  0
    7.0752    3.0126    0.0000 C   0  0  0  0  0  0  0  0  0  0  0  0
    7.1087   -2.8974    0.0000 C   0  0  0  0  0  0  0  0  0  0  0  0
    3.1357    2.2391    0.0000 C   0  0  0  0  0  0  0  0  0  0  0  0
    4.4748   -3.3552    0.0000 C   0  0  0  0  0  0  0  0  0  0  0  0
    4.3705    3.4537    0.0000 C   0  0  0  0  0  0  0  0  0  0  0  0
    3.1901   -2.1935    0.0000 C   0  0  0  0  0  0  0  0  0  0  0  0
    8.8927    3.4307    0.0000 C   0  0  0  0  0  0  0  0  0  0  0  0
   10.0841   -2.1106    0.0000 C   0  0  0  0  0  0  0  0  0  0  0  0
   10.0674    2.1579    0.0000 C   0  0  0  0  0  0  0  0  0  0  0  0
    8.8590   -3.3350    0.0000 C   0  0  0  0  0  0  0  0  0  0  0  0
    2.7012    3.9157    0.0000 C   0  0  0  0  0  0  0  0  0  0  0  0
    2.8263   -3.8869    0.0000 C   0  0  0  0  0  0  0  0  0  0  0  0
   10.5824    3.8116    0.0000 C   0  0  0  0  0  0  0  0  0  0  0  0
   10.5319   -3.7838    0.0000 C   0  0  0  0  0  0  0  0  0  0  0  0
    2.4345    2.9520    0.0000 C   0  0  0  0  0  0  0  0  0  0  0  0
    3.8040   -4.0970    0.0000 C   0  0  0  0  0  0  0  0  0  0  0  0
    3.6693    4.1666    0.0000 C   0  0  0  0  0  0  0  0  0  0  0  0
    2.5194   -2.9352    0.0000 C   0  0  0  0  0  0  0  0  0  0  0  0
    9.6276    4.1089    0.0000 C   0  0  0  0  0  0  0  0  0  0  0  0
   10.7910   -2.8180    0.0000 C   0  0  0  0  0  0  0  0  0  0  0  0
   10.8023    2.8361    0.0000 C   0  0  0  0  0  0  0  0  0  0  0  0
    9.5659   -4.0423    0.0000 C   0  0  0  0  0  0  0  0  0  0  0  0
    2.0000    4.6287    0.0000 C   0  0  0  0  0  0  0  0  0  0  0  0
    2.1556   -4.6287    0.0000 C   0  0  0  0  0  0  0  0  0  0  0  0
   11.3172    4.4898    0.0000 C   0  0  0  0  0  0  0  0  0  0  0  0
   11.2387   -4.4912    0.0000 C   0  0  0  0  0  0  0  0  0  0  0  0
    5.7247    0.0409    0.0000 H   0  0  0  0  0  0  0  0  0  0  0  0
    7.4903    0.0193    0.0000 H   0  0  0  0  0  0  0  0  0  0  0  0
    3.0760    0.9168    0.0000 H   0  0  0  0  0  0  0  0  0  0  0  0
    3.0760   -0.8351    0.0000 H   0  0  0  0  0  0  0  0  0  0  0  0
   10.1402    0.9504    0.0000 H   0  0  0  0  0  0  0  0  0  0  0  0
   10.1419   -0.7995    0.0000 H   0  0  0  0  0  0  0  0  0  0  0  0
    5.7066    3.5119    0.0000 H   0  0  0  0  0  0  0  0  0  0  0  0
    5.7426   -3.3986    0.0000 H   0  0  0  0  0  0  0  0  0  0  0  0
    7.4321    3.5196    0.0000 H   0  0  0  0  0  0  0  0  0  0  0  0
    7.4762   -3.3967    0.0000 H   0  0  0  0  0  0  0  0  0  0  0  0
    2.9703    1.6415    0.0000 H   0  0  0  0  0  0  0  0  0  0  0  0
    5.0809   -3.4854    0.0000 H   0  0  0  0  0  0  0  0  0  0  0  0
    4.9707    3.6092    0.0000 H   0  0  0  0  0  0  0  0  0  0  0  0
    2.9997   -1.6034    0.0000 H   0  0  0  0  0  0  0  0  0  0  0  0
    8.3008    3.6151    0.0000 H   0  0  0  0  0  0  0  0  0  0  0  0
   10.2448   -1.5118    0.0000 H   0  0  0  0  0  0  0  0  0  0  0  0
   10.2038    1.5531    0.0000 H   0  0  0  0  0  0  0  0  0  0  0  0
    8.2601   -3.4953    0.0000 H   0  0  0  0  0  0  0  0  0  0  0  0
    1.8343    2.7964    0.0000 H   0  0  0  0  0  0  0  0  0  0  0  0
    3.9944   -4.6870    0.0000 H   0  0  0  0  0  0  0  0  0  0  0  0
    3.8347    4.7641    0.0000 H   0  0  0  0  0  0  0  0  0  0  0  0
    1.9132   -2.8050    0.0000 H   0  0  0  0  0  0  0  0  0  0  0  0
    9.4913    4.7138    0.0000 H   0  0  0  0  0  0  0  0  0  0  0  0
   11.3899   -2.6577    0.0000 H   0  0  0  0  0  0  0  0  0  0  0  0
   11.3942    2.6518    0.0000 H   0  0  0  0  0  0  0  0  0  0  0  0
    9.4052   -4.6412    0.0000 H   0  0  0  0  0  0  0  0  0  0  0  0
    2.4420    5.0634    0.0000 H   0  0  0  0  0  0  0  0  0  0  0  0
    1.5652    5.0707    0.0000 H   0  0  0  0  0  0  0  0  0  0  0  0
    1.5580    4.1939    0.0000 H   0  0  0  0  0  0  0  0  0  0  0  0
    1.6958   -4.2128    0.0000 H   0  0  0  0  0  0  0  0  0  0  0  0
    1.7398   -5.0885    0.0000 H   0  0  0  0  0  0  0  0  0  0  0  0
    2.6155   -5.0445    0.0000 H   0  0  0  0  0  0  0  0  0  0  0  0
   11.7377    4.0342    0.0000 H   0  0  0  0  0  0  0  0  0  0  0  0
   11.7729    4.9103    0.0000 H   0  0  0  0  0  0  0  0  0  0  0  0
   10.8968    4.9454    0.0000 H   0  0  0  0  0  0  0  0  0  0  0  0
   10.8002   -4.9294    0.0000 H   0  0  0  0  0  0  0  0  0  0  0  0
   11.6770   -4.9297    0.0000 H   0  0  0  0  0  0  0  0  0  0  0  0
   11.6773   -4.0529    0.0000 H   0  0  0  0  0  0  0  0  0  0  0  0
  1  5  1  0  0  0  0
  1  6  1  0  0  0  0
  1 53  1  0  0  0  0
  2  7  1  0  0  0  0
  2  8  1  0  0  0  0
  2 54  1  0  0  0  0
  3 13  2  0  0  0  0
  3 15  1  0  0  0  0
  4 14  2  0  0  0  0
  4 16  1  0  0  0  0
  5  9  2  0  0  0  0
  5 17  1  0  0  0  0
  6 10  2  0  0  0  0
  6 18  1  0  0  0  0
  7 11  1  0  0  0  0
  7 19  2  0  0  0  0
  8 12  1  0  0  0  0
  8 20  2  0  0  0  0
  9 13  1  0  0  0  0
  9 21  1  0  0  0  0
 10 14  1  0  0  0  0
 10 22  1  0  0  0  0
 11 15  2  0  0  0  0
 11 23  1  0  0  0  0
 12 16  2  0  0  0  0
 12 24  1  0  0  0  0
 13 25  1  0  0  0  0
 14 26  1  0  0  0  0
 15 27  1  0  0  0  0
 16 28  1  0  0  0  0
 17 18  2  0  0  0  0
 17 55  1  0  0  0  0
 18 56  1  0  0  0  0
 19 20  1  0  0  0  0
 19 57  1  0  0  0  0
 20 58  1  0  0  0  0
 21 29  2  0  0  0  0
 21 31  1  0  0  0  0
 22 30  2  0  0  0  0
 22 32  1  0  0  0  0
 23 33  2  0  0  0  0
 23 35  1  0  0  0  0
 24 34  2  0  0  0  0
 24 36  1  0  0  0  0
 25 27  2  0  0  0  0
 25 59  1  0  0  0  0
 26 28  2  0  0  0  0
 26 60  1  0  0  0  0
 27 61  1  0  0  0  0
 28 62  1  0  0  0  0
 29 41  1  0  0  0  0
 29 63  1  0  0  0  0
 30 42  1  0  0  0  0
 30 64  1  0  0  0  0
 31 43  2  0  0  0  0
 31 65  1  0  0  0  0
 32 44  2  0  0  0  0
 32 66  1  0  0  0  0
 33 45  1  0  0  0  0
 33 67  1  0  0  0  0
 34 46  1  0  0  0  0
 34 68  1  0  0  0  0
 35 47  2  0  0  0  0
 35 69  1  0  0  0  0
 36 48  2  0  0  0  0
 36 70  1  0  0  0  0
 37 41  2  0  0  0  0
 37 43  1  0  0  0  0
 37 49  1  0  0  0  0
 38 42  2  0  0  0  0
 38 44  1  0  0  0  0
 38 50  1  0  0  0  0
 39 45  2  0  0  0  0
 39 47  1  0  0  0  0
 39 51  1  0  0  0  0
 40 46  2  0  0  0  0
 40 48  1  0  0  0  0
 40 52  1  0  0  0  0
 41 71  1  0  0  0  0
 42 72  1  0  0  0  0
 43 73  1  0  0  0  0
 44 74  1  0  0  0  0
 45 75  1  0  0  0  0
 46 76  1  0  0  0  0
 47 77  1  0  0  0  0
 48 78  1  0  0  0  0
 49 79  1  0  0  0  0
 49 80  1  0  0  0  0
 49 81  1  0  0  0  0
 50 82  1  0  0  0  0
 50 83  1  0  0  0  0
 50 84  1  0  0  0  0
 51 85  1  0  0  0  0
 51 86  1  0  0  0  0
 51 87  1  0  0  0  0
 52 88  1  0  0  0  0
 52 89  1  0  0  0  0
 52 90  1  0  0  0  0
M  END
> <PUBCHEM_COMPOUND_CID>
135401992

> <PUBCHEM_COMPOUND_CANONICALIZED>
1

> <PUBCHEM_CACTVS_COMPLEXITY>
953

> <PUBCHEM_CACTVS_HBOND_ACCEPTOR>
2

> <PUBCHEM_CACTVS_HBOND_DONOR>
2

> <PUBCHEM_CACTVS_ROTATABLE_BOND>
4

> <PUBCHEM_CACTVS_SUBSKEYS>
AAADcfB/gAAAAAAAAAAAAAAAAAAAAWLFiwAwYMGAAAAAAAAB/gAAHAAQAAAADAiBHgAywLLJkACgAyRiRACCgCAhAiAImSAwZJgIIOLA0dGEJAhgkADIyAcQgMAOwAAAAAAAAACAAAAAAAAAAAAAAAAAAA==

> <PUBCHEM_IUPAC_OPENEYE_NAME>
5,10,15,20-tetrakis(p-tolyl)-21,23-dihydroporphyrin

> <PUBCHEM_IUPAC_CAS_NAME>
5,10,15,20-tetrakis(4-methylphenyl)-21,23-dihydroporphyrin

> <PUBCHEM_IUPAC_NAME_MARKUP>
5,10,15,20-tetrakis(4-methylphenyl)-21,23-dihydroporphyrin

> <PUBCHEM_IUPAC_NAME>
5,10,15,20-tetrakis(4-methylphenyl)-21,23-dihydroporphyrin

> <PUBCHEM_IUPAC_SYSTEMATIC_NAME>
5,10,15,20-tetrakis(4-methylphenyl)-21,23-dihydroporphyrin

> <PUBCHEM_IUPAC_TRADITIONAL_NAME>
5,10,15,20-tetrakis(p-tolyl)-21,23-dihydroporphine

> <PUBCHEM_IUPAC_INCHI>
InChI=1S/C48H38N4/c1-29-5-13-33(14-6-29)45-37-21-23-39(49-37)46(34-15-7-30(2)8-16-34)41-25-27-43(51-41)48(36-19-11-32(4)12-20-36)44-28-26-42(52-44)47(40-24-22-38(45)50-40)35-17-9-31(3)10-18-35/h5-28,49,52H,1-4H3

> <PUBCHEM_IUPAC_INCHIKEY>
SFQNUQLWBBZIOZ-UHFFFAOYSA-N

> <PUBCHEM_XLOGP3_AA>
11.9

> <PUBCHEM_EXACT_MASS>
670.30964723

> <PUBCHEM_MOLECULAR_FORMULA>
C48H38N4

> <PUBCHEM_MOLECULAR_WEIGHT>
670.8

> <PUBCHEM_OPENEYE_CAN_SMILES>
CC1=CC=C(C=C1)C2=C3C=CC(=C(C4=NC(=C(C5=CC=C(N5)C(=C6C=CC2=N6)C7=CC=C(C=C7)C)C8=CC=C(C=C8)C)C=C4)C9=CC=C(C=C9)C)N3

> <PUBCHEM_OPENEYE_ISO_SMILES>
CC1=CC=C(C=C1)C2=C3C=CC(=C(C4=NC(=C(C5=CC=C(N5)C(=C6C=CC2=N6)C7=CC=C(C=C7)C)C8=CC=C(C=C8)C)C=C4)C9=CC=C(C=C9)C)N3

> <PUBCHEM_CACTVS_TPSA>
57.4

> <PUBCHEM_MONOISOTOPIC_WEIGHT>
670.30964723

> <PUBCHEM_TOTAL_CHARGE>
0

> <PUBCHEM_HEAVY_ATOM_COUNT>
52

> <PUBCHEM_ATOM_DEF_STEREO_COUNT>
0

> <PUBCHEM_ATOM_UDEF_STEREO_COUNT>
0

> <PUBCHEM_BOND_DEF_STEREO_COUNT>
0

> <PUBCHEM_BOND_UDEF_STEREO_COUNT>
0

> <PUBCHEM_ISOTOPIC_ATOM_COUNT>
0

> <PUBCHEM_COMPONENT_COUNT>
1

> <PUBCHEM_CACTVS_TAUTO_COUNT>
-1

> <PUBCHEM_COORDINATE_TYPE>
1
5
255

> <PUBCHEM_BONDANNOTATIONS>
1  5  8
1  6  8
10  14  8
11  15  8
12  16  8
17  18  8
19  20  8
2  7  8
2  8  8
21  29  8
21  31  8
22  30  8
22  32  8
23  33  8
23  35  8
24  34  8
24  36  8
29  41  8
3  13  8
3  15  8
30  42  8
31  43  8
32  44  8
33  45  8
34  46  8
35  47  8
36  48  8
37  41  8
37  43  8
38  42  8
38  44  8
39  45  8
39  47  8
4  14  8
4  16  8
40  46  8
40  48  8
5  17  8
5  9  8
6  10  8
6  18  8
7  11  8
7  19  8
8  12  8
8  20  8
9  13  8

$$$$
