9016
  -OEChem-11012400593D

 20 20  0     0  0  0  0  0  0999 V2000
    2.6842    0.6249   -0.0003 O   0  0  0  0  0  0  0  0  0  0  0  0
   -2.6842   -0.6248   -0.0002 O   0  0  0  0  0  0  0  0  0  0  0  0
    1.3586    0.3160   -0.0001 C   0  0  0  0  0  0  0  0  0  0  0  0
   -1.3586   -0.3160    0.0010 C   0  0  0  0  0  0  0  0  0  0  0  0
    0.4055    1.3345    0.0003 C   0  0  0  0  0  0  0  0  0  0  0  0
   -0.9531    1.0186    0.0010 C   0  0  0  0  0  0  0  0  0  0  0  0
    0.9530   -1.0187    0.0000 C   0  0  0  0  0  0  0  0  0  0  0  0
   -0.4056   -1.3346    0.0005 C   0  0  0  0  0  0  0  0  0  0  0  0
    3.6049   -0.4651   -0.0007 C   0  0  0  0  0  0  0  0  0  0  0  0
   -3.6048    0.4652   -0.0015 C   0  0  0  0  0  0  0  0  0  0  0  0
    0.7166    2.3758    0.0003 H   0  0  0  0  0  0  0  0  0  0  0  0
   -1.6394    1.8585    0.0012 H   0  0  0  0  0  0  0  0  0  0  0  0
    1.6394   -1.8585   -0.0005 H   0  0  0  0  0  0  0  0  0  0  0  0
   -0.7168   -2.3758    0.0002 H   0  0  0  0  0  0  0  0  0  0  0  0
    3.5137   -1.0685   -0.9102 H   0  0  0  0  0  0  0  0  0  0  0  0
    3.5142   -1.0688    0.9088 H   0  0  0  0  0  0  0  0  0  0  0  0
    4.6126   -0.0370   -0.0009 H   0  0  0  0  0  0  0  0  0  0  0  0
   -3.5149    1.0689    0.9080 H   0  0  0  0  0  0  0  0  0  0  0  0
   -4.6126    0.0372   -0.0026 H   0  0  0  0  0  0  0  0  0  0  0  0
   -3.5128    1.0686   -0.9110 H   0  0  0  0  0  0  0  0  0  0  0  0
  1  3  1  0  0  0  0
  1  9  1  0  0  0  0
  2  4  1  0  0  0  0
  2 10  1  0  0  0  0
  3  5  2  0  0  0  0
  3  7  1  0  0  0  0
  4  6  2  0  0  0  0
  4  8  1  0  0  0  0
  5  6  1  0  0  0  0
  5 11  1  0  0  0  0
  6 12  1  0  0  0  0
  7  8  2  0  0  0  0
  7 13  1  0  0  0  0
  8 14  1  0  0  0  0
  9 15  1  0  0  0  0
  9 16  1  0  0  0  0
  9 17  1  0  0  0  0
 10 18  1  0  0  0  0
 10 19  1  0  0  0  0
 10 20  1  0  0  0  0
M  END
> <PUBCHEM_COMPOUND_CID>
9016

> <PUBCHEM_CONFORMER_RMSD>
0.4

> <PUBCHEM_CONFORMER_DIVERSEORDER>
1
2

> <PUBCHEM_MMFF94_PARTIAL_CHARGES>
14
1 -0.36
10 0.28
11 0.15
12 0.15
13 0.15
14 0.15
2 -0.36
3 0.08
4 0.08
5 -0.15
6 -0.15
7 -0.15
8 -0.15
9 0.28

> <PUBCHEM_EFFECTIVE_ROTOR_COUNT>
2

> <PUBCHEM_PHARMACOPHORE_FEATURES>
3
1 1 acceptor
1 2 acceptor
6 3 4 5 6 7 8 rings

> <PUBCHEM_HEAVY_ATOM_COUNT>
10

> <PUBCHEM_ATOM_DEF_STEREO_COUNT>
0

> <PUBCHEM_ATOM_UDEF_STEREO_COUNT>
0

> <PUBCHEM_BOND_DEF_STEREO_COUNT>
0

> <PUBCHEM_BOND_UDEF_STEREO_COUNT>
0

> <PUBCHEM_ISOTOPIC_ATOM_COUNT>
0

> <PUBCHEM_COMPONENT_COUNT>
1

> <PUBCHEM_CACTVS_TAUTO_COUNT>
1

> <PUBCHEM_CONFORMER_ID>
0000233800000001

> <PUBCHEM_MMFF94_ENERGY>
41.9695

> <PUBCHEM_FEATURE_SELFOVERLAP>
15.223

> <PUBCHEM_SHAPE_FINGERPRINT>
10219947 1 18410577292286825061
11062470 55 14261352457340151699
12032990 46 18410301314873826874
12932764 1 15647323190911303691
14325111 11 18410856598299821953
15310529 11 16370993092697418098
16945 1 18410856568229724166
193761 8 17690280404512145408
20645476 183 17750816504445920582
21040471 1 18266459995566636675
23235685 24 18410006641467611013
23402539 116 18130496470597923332
23402655 69 18268131078002292213
23463225 33 18335419028588604882
23552423 10 18044375156810663142
2748010 2 18050568735479038023
29004967 10 18260835907717642449
369184 2 15123509198951265670
5084963 1 18342176669791527704
528886 8 18412257337691057123
53655031 270 18339080389060102977

> <PUBCHEM_SHAPE_MULTIPOLES>
194.06
5.07
1.32
0.6
0
0
0
0
0
0
0
0
0
0

> <PUBCHEM_SHAPE_SELFOVERLAP>
396.935

> <PUBCHEM_SHAPE_VOLUME>
112.9

> <PUBCHEM_COORDINATE_TYPE>
2
5
10

$$$$
