222572
  -OEChem-11012400483D

 48 51  0     0  0  0  0  0  0999 V2000
   -0.0434    2.5137   -0.0180 O   0  0  0  0  0  0  0  0  0  0  0  0
   -1.2000    0.4732   -0.3144 N   0  0  0  0  0  0  0  0  0  0  0  0
    1.1490    0.5355    0.2799 N   0  0  0  0  0  0  0  0  0  0  0  0
   -0.0294    1.2756   -0.0237 C   0  0  0  0  0  0  0  0  0  0  0  0
   -1.0999   -0.7932   -0.8914 C   0  0  0  0  0  0  0  0  0  0  0  0
   -2.4962    1.0661    0.0315 C   0  0  0  0  0  0  0  0  0  0  0  0
    2.4359    1.1046   -0.0510 C   0  0  0  0  0  0  0  0  0  0  0  0
    1.1012   -0.7605    0.9054 C   0  0  0  0  0  0  0  0  0  0  0  0
   -2.0586   -1.7663   -0.6083 C   0  0  0  0  0  0  0  0  0  0  0  0
   -3.5688    0.7117   -0.7269 C   0  0  0  0  0  0  0  0  0  0  0  0
    3.5108    0.7727    0.7318 C   0  0  0  0  0  0  0  0  0  0  0  0
    2.1004   -1.6590    0.6224 C   0  0  0  0  0  0  0  0  0  0  0  0
   -0.0418   -1.0863   -1.7519 C   0  0  0  0  0  0  0  0  0  0  0  0
   -2.5302    1.9260    1.0853 C   0  0  0  0  0  0  0  0  0  0  0  0
    2.5138    1.9456   -1.1304 C   0  0  0  0  0  0  0  0  0  0  0  0
    0.0594   -1.0370    1.7561 C   0  0  0  0  0  0  0  0  0  0  0  0
   -1.9590   -3.0323   -1.1852 C   0  0  0  0  0  0  0  0  0  0  0  0
   -4.8017    1.2750   -0.3979 C   0  0  0  0  0  0  0  0  0  0  0  0
    4.7528    1.3214    0.4125 C   0  0  0  0  0  0  0  0  0  0  0  0
    2.0546   -2.9145    1.2286 C   0  0  0  0  0  0  0  0  0  0  0  0
    0.0576   -2.3524   -2.3289 C   0  0  0  0  0  0  0  0  0  0  0  0
   -3.7632    2.4893    1.4143 C   0  0  0  0  0  0  0  0  0  0  0  0
    3.7560    2.4941   -1.4496 C   0  0  0  0  0  0  0  0  0  0  0  0
    0.0138   -2.2925    2.3624 C   0  0  0  0  0  0  0  0  0  0  0  0
   -0.9011   -3.3252   -2.0456 C   0  0  0  0  0  0  0  0  0  0  0  0
   -4.8989    2.1637    0.6727 C   0  0  0  0  0  0  0  0  0  0  0  0
    4.8754    2.1820   -0.6782 C   0  0  0  0  0  0  0  0  0  0  0  0
    1.0115   -3.2312    2.0986 C   0  0  0  0  0  0  0  0  0  0  0  0
   -2.8620   -1.6115    0.1064 H   0  0  0  0  0  0  0  0  0  0  0  0
   -3.5233    0.0812   -1.6075 H   0  0  0  0  0  0  0  0  0  0  0  0
    3.4528    0.1817    1.6397 H   0  0  0  0  0  0  0  0  0  0  0  0
    2.8833   -1.4964   -0.1110 H   0  0  0  0  0  0  0  0  0  0  0  0
    0.6836   -0.3404   -2.0618 H   0  0  0  0  0  0  0  0  0  0  0  0
   -1.6816    2.1623    1.7167 H   0  0  0  0  0  0  0  0  0  0  0  0
    1.6728    2.1787   -1.7745 H   0  0  0  0  0  0  0  0  0  0  0  0
   -0.6910   -0.3107    2.0467 H   0  0  0  0  0  0  0  0  0  0  0  0
   -2.6964   -3.7951   -0.9529 H   0  0  0  0  0  0  0  0  0  0  0  0
   -5.6835    1.0339   -0.9845 H   0  0  0  0  0  0  0  0  0  0  0  0
    5.6211    1.0945    1.0245 H   0  0  0  0  0  0  0  0  0  0  0  0
    2.8201   -3.6528    1.0082 H   0  0  0  0  0  0  0  0  0  0  0  0
    0.8727   -2.5762   -3.0109 H   0  0  0  0  0  0  0  0  0  0  0  0
   -3.8418    3.1727    2.2550 H   0  0  0  0  0  0  0  0  0  0  0  0
    3.8536    3.1579   -2.3037 H   0  0  0  0  0  0  0  0  0  0  0  0
   -0.7899   -2.5340    3.0519 H   0  0  0  0  0  0  0  0  0  0  0  0
   -0.8232   -4.3110   -2.4945 H   0  0  0  0  0  0  0  0  0  0  0  0
   -5.8587    2.6031    0.9283 H   0  0  0  0  0  0  0  0  0  0  0  0
    5.8420    2.6113   -0.9253 H   0  0  0  0  0  0  0  0  0  0  0  0
    0.9751   -4.2091    2.5695 H   0  0  0  0  0  0  0  0  0  0  0  0
  1  4  2  0  0  0  0
  2  4  1  0  0  0  0
  2  5  1  0  0  0  0
  2  6  1  0  0  0  0
  3  4  1  0  0  0  0
  3  7  1  0  0  0  0
  3  8  1  0  0  0  0
  5  9  2  0  0  0  0
  5 13  1  0  0  0  0
  6 10  2  0  0  0  0
  6 14  1  0  0  0  0
  7 11  2  0  0  0  0
  7 15  1  0  0  0  0
  8 12  2  0  0  0  0
  8 16  1  0  0  0  0
  9 17  1  0  0  0  0
  9 29  1  0  0  0  0
 10 18  1  0  0  0  0
 10 30  1  0  0  0  0
 11 19  1  0  0  0  0
 11 31  1  0  0  0  0
 12 20  1  0  0  0  0
 12 32  1  0  0  0  0
 13 21  2  0  0  0  0
 13 33  1  0  0  0  0
 14 22  2  0  0  0  0
 14 34  1  0  0  0  0
 15 23  2  0  0  0  0
 15 35  1  0  0  0  0
 16 24  2  0  0  0  0
 16 36  1  0  0  0  0
 17 25  2  0  0  0  0
 17 37  1  0  0  0  0
 18 26  2  0  0  0  0
 18 38  1  0  0  0  0
 19 27  2  0  0  0  0
 19 39  1  0  0  0  0
 20 28  2  0  0  0  0
 20 40  1  0  0  0  0
 21 25  1  0  0  0  0
 21 41  1  0  0  0  0
 22 26  1  0  0  0  0
 22 42  1  0  0  0  0
 23 27  1  0  0  0  0
 23 43  1  0  0  0  0
 24 28  1  0  0  0  0
 24 44  1  0  0  0  0
 25 45  1  0  0  0  0
 26 46  1  0  0  0  0
 27 47  1  0  0  0  0
 28 48  1  0  0  0  0
M  END
> <PUBCHEM_COMPOUND_CID>
222572

> <PUBCHEM_CONFORMER_RMSD>
0.8

> <PUBCHEM_CONFORMER_DIVERSEORDER>
1
6
4
2
3
7
5
8

> <PUBCHEM_MMFF94_PARTIAL_CHARGES>
48
1 -0.57
10 -0.15
11 -0.15
12 -0.15
13 -0.15
14 -0.15
15 -0.15
16 -0.15
17 -0.15
18 -0.15
19 -0.15
2 -0.29
20 -0.15
21 -0.15
22 -0.15
23 -0.15
24 -0.15
25 -0.15
26 -0.15
27 -0.15
28 -0.15
29 0.15
3 -0.29
30 0.15
31 0.15
32 0.15
33 0.15
34 0.15
35 0.15
36 0.15
37 0.15
38 0.15
39 0.15
4 0.69
40 0.15
41 0.15
42 0.15
43 0.15
44 0.15
45 0.15
46 0.15
47 0.15
48 0.15
5 0.12
6 0.12
7 0.12
8 0.12
9 -0.15

> <PUBCHEM_EFFECTIVE_ROTOR_COUNT>
6

> <PUBCHEM_PHARMACOPHORE_FEATURES>
5
1 1 acceptor
6 5 9 13 17 21 25 rings
6 6 10 14 18 22 26 rings
6 7 11 15 19 23 27 rings
6 8 12 16 20 24 28 rings

> <PUBCHEM_HEAVY_ATOM_COUNT>
28

> <PUBCHEM_ATOM_DEF_STEREO_COUNT>
0

> <PUBCHEM_ATOM_UDEF_STEREO_COUNT>
0

> <PUBCHEM_BOND_DEF_STEREO_COUNT>
0

> <PUBCHEM_BOND_UDEF_STEREO_COUNT>
0

> <PUBCHEM_ISOTOPIC_ATOM_COUNT>
0

> <PUBCHEM_COMPONENT_COUNT>
1

> <PUBCHEM_CACTVS_TAUTO_COUNT>
1

> <PUBCHEM_CONFORMER_ID>
0003656C00000001

> <PUBCHEM_MMFF94_ENERGY>
168.8661

> <PUBCHEM_FEATURE_SELFOVERLAP>
25.374

> <PUBCHEM_SHAPE_FINGERPRINT>
107951 10 18044121088067916814
11421498 54 18193263325016532815
1200032 147 17770531675655741977
12293681 4 17904208379088294851
12788726 201 17906176505001597702
12930653 34 18041294243699285251
13583140 156 17533771607910884015
14713325 29 18057335082897596903
14787075 74 18044376256491492515
15664445 248 17619079330127440907
16752209 62 17986938833960255711
17349148 13 17913180111388822365
1813 80 17691128132304296283
19319366 153 18334569144396233672
20600515 1 16826144439245858409
20739085 24 17837207069616727114
21033650 10 18124616416300862332
21524375 3 18410577287981853941
21756936 100 18044104664355992012
229495 10 17752457942045834789
23419403 2 17330900798436385978
23558518 356 17978790438928216541
23559900 14 17483960376982702861
25222932 49 18187659003107415739
283562 15 17975409427834934603
298252 57 18201441397502180740
3380486 77 17254779328161217751
3411729 13 18265061245341995441
394222 165 18337113362768782544
4340502 62 17822297881513404993
474 4 18187363225061557296
8272917 22 18114180766156581569

> <PUBCHEM_SHAPE_MULTIPOLES>
560.4
7.76
4.35
2.08
0.27
2.36
0.04
-9.22
0.01
-0.02
-0.1
-0.08
1.92
-2.79

> <PUBCHEM_SHAPE_SELFOVERLAP>
1252.277

> <PUBCHEM_SHAPE_VOLUME>
294.3

> <PUBCHEM_COORDINATE_TYPE>
2
5
10

$$$$
