123192
  -OEChem-11012400303D

 14 14  0     0  0  0  0  0  0999 V2000
    0.1217   -2.2032    1.4682 Cl  0  0  0  0  0  0  0  0  0  0  0  0
    0.1225   -2.2030   -1.4668 Cl  0  0  0  0  0  0  0  0  0  0  0  0
    0.1241    2.2027   -1.4669 Cl  0  0  0  0  0  0  0  0  0  0  0  0
    0.1231    2.2026    1.4681 Cl  0  0  0  0  0  0  0  0  0  0  0  0
   -2.9291   -1.6774   -0.0012 Cl  0  0  0  0  0  0  0  0  0  0  0  0
   -2.9280    1.6792   -0.0016 Cl  0  0  0  0  0  0  0  0  0  0  0  0
    2.9912    1.4760   -0.0001 Cl  0  0  0  0  0  0  0  0  0  0  0  0
    2.9909   -1.4768   -0.0016 Cl  0  0  0  0  0  0  0  0  0  0  0  0
   -0.1599   -1.2332    0.0007 C   0  0  0  0  0  0  0  0  0  0  0  0
   -0.1591    1.2329    0.0004 C   0  0  0  0  0  0  0  0  0  0  0  0
    0.7317   -0.0004    0.0008 C   0  0  0  0  0  0  0  0  0  0  0  0
   -1.5518   -0.6683    0.0003 C   0  0  0  0  0  0  0  0  0  0  0  0
   -1.5514    0.6692    0.0001 C   0  0  0  0  0  0  0  0  0  0  0  0
    2.0741   -0.0004   -0.0003 C   0  0  0  0  0  0  0  0  0  0  0  0
  1  9  1  0  0  0  0
  2  9  1  0  0  0  0
  3 10  1  0  0  0  0
  4 10  1  0  0  0  0
  5 12  1  0  0  0  0
  6 13  1  0  0  0  0
  7 14  1  0  0  0  0
  8 14  1  0  0  0  0
  9 11  1  0  0  0  0
  9 12  1  0  0  0  0
 10 11  1  0  0  0  0
 10 13  1  0  0  0  0
 11 14  2  0  0  0  0
 12 13  2  0  0  0  0
M  END
> <PUBCHEM_COMPOUND_CID>
123192

> <PUBCHEM_CONFORMER_RMSD>
0.4

> <PUBCHEM_CONFORMER_DIVERSEORDER>
1

> <PUBCHEM_MMFF94_PARTIAL_CHARGES>
12
1 -0.29
10 0.86
11 -0.28
14 0.28
2 -0.29
3 -0.29
4 -0.29
5 -0.14
6 -0.14
7 -0.14
8 -0.14
9 0.86

> <PUBCHEM_EFFECTIVE_ROTOR_COUNT>
0.4

> <PUBCHEM_PHARMACOPHORE_FEATURES>
1
5 9 10 11 12 13 rings

> <PUBCHEM_HEAVY_ATOM_COUNT>
14

> <PUBCHEM_ATOM_DEF_STEREO_COUNT>
0

> <PUBCHEM_ATOM_UDEF_STEREO_COUNT>
0

> <PUBCHEM_BOND_DEF_STEREO_COUNT>
0

> <PUBCHEM_BOND_UDEF_STEREO_COUNT>
0

> <PUBCHEM_ISOTOPIC_ATOM_COUNT>
0

> <PUBCHEM_COMPONENT_COUNT>
1

> <PUBCHEM_CACTVS_TAUTO_COUNT>
1

> <PUBCHEM_CONFORMER_ID>
0001E13800000001

> <PUBCHEM_MMFF94_ENERGY>
20.2378

> <PUBCHEM_FEATURE_SELFOVERLAP>
5.074

> <PUBCHEM_SHAPE_FINGERPRINT>
11132069 177 18339918208499299770
12423570 1 8254656096416941231
12524768 44 18123477077039942823
13140716 1 18410855417262885296
13380535 220 18335703866377106357
13380535 76 18126280840185903607
15775835 57 18189342264592559302
16945 1 18410856572598537991
20511035 2 17690285232108296127
20588541 1 18196935465913199549
20645476 183 17968961758848379670
21501502 16 18411418414397649412
22344851 12 12877320862774805785
22344851 262 17169281325301202591
22344851 341 18335696113744710042
2334 1 18410575119049191044
23402539 116 18118949515732193974
23419403 2 17835475596632918988
23552423 10 18333449824569334954
23559900 14 18270961233832653270
241688 4 18334856095472064112
2748010 2 18411699885084674188
5084963 1 18263924521937621067
5255222 1 18046053870284468276
528886 8 17915450610572300663
53812654 25 18198897200905447694
68250623 7 18410012126120158299

> <PUBCHEM_SHAPE_MULTIPOLES>
303.07
3.9
3.08
1.28
0.34
0
0
0
0
-0.21
0
0.08
0
0

> <PUBCHEM_SHAPE_SELFOVERLAP>
559.569

> <PUBCHEM_SHAPE_VOLUME>
191.2

> <PUBCHEM_COORDINATE_TYPE>
2
5
10

$$$$
