301
  -OEChem-11012400543D

 14 14  0     0  0  0  0  0  0999 V2000
    2.0130   -1.9117   -0.0001 Cl  0  0  0  0  0  0  0  0  0  0  0  0
    2.3769    1.0728    0.0002 O   0  0  0  0  0  0  0  0  0  0  0  0
   -2.8857   -0.5726    0.0002 O   0  0  0  0  0  0  0  0  0  0  0  0
    1.0828    0.6443   -0.0001 C   0  0  0  0  0  0  0  0  0  0  0  0
   -1.5842   -0.1739   -0.0001 C   0  0  0  0  0  0  0  0  0  0  0  0
    0.7703   -0.7151    0.0000 C   0  0  0  0  0  0  0  0  0  0  0  0
   -0.5631   -1.1242    0.0000 C   0  0  0  0  0  0  0  0  0  0  0  0
    0.0618    1.5947    0.0000 C   0  0  0  0  0  0  0  0  0  0  0  0
   -1.2717    1.1856   -0.0001 C   0  0  0  0  0  0  0  0  0  0  0  0
   -0.8096   -2.1835    0.0002 H   0  0  0  0  0  0  0  0  0  0  0  0
    0.2897    2.6573    0.0001 H   0  0  0  0  0  0  0  0  0  0  0  0
   -2.0628    1.9304   -0.0001 H   0  0  0  0  0  0  0  0  0  0  0  0
    2.3913    2.0453    0.0001 H   0  0  0  0  0  0  0  0  0  0  0  0
   -2.9179   -1.5447    0.0002 H   0  0  0  0  0  0  0  0  0  0  0  0
  1  6  1  0  0  0  0
  2  4  1  0  0  0  0
  2 13  1  0  0  0  0
  3  5  1  0  0  0  0
  3 14  1  0  0  0  0
  4  6  2  0  0  0  0
  4  8  1  0  0  0  0
  5  7  2  0  0  0  0
  5  9  1  0  0  0  0
  6  7  1  0  0  0  0
  7 10  1  0  0  0  0
  8  9  2  0  0  0  0
  8 11  1  0  0  0  0
  9 12  1  0  0  0  0
M  END
> <PUBCHEM_COMPOUND_CID>
301

> <PUBCHEM_CONFORMER_RMSD>
0.4

> <PUBCHEM_CONFORMER_DIVERSEORDER>
1

> <PUBCHEM_MMFF94_PARTIAL_CHARGES>
14
1 -0.18
10 0.15
11 0.15
12 0.15
13 0.45
14 0.45
2 -0.53
3 -0.53
4 0.08
5 0.08
6 0.18
7 -0.15
8 -0.15
9 -0.15

> <PUBCHEM_EFFECTIVE_ROTOR_COUNT>
0

> <PUBCHEM_PHARMACOPHORE_FEATURES>
3
1 2 donor
1 3 donor
6 4 5 6 7 8 9 rings

> <PUBCHEM_HEAVY_ATOM_COUNT>
9

> <PUBCHEM_ATOM_DEF_STEREO_COUNT>
0

> <PUBCHEM_ATOM_UDEF_STEREO_COUNT>
0

> <PUBCHEM_BOND_DEF_STEREO_COUNT>
0

> <PUBCHEM_BOND_UDEF_STEREO_COUNT>
0

> <PUBCHEM_ISOTOPIC_ATOM_COUNT>
0

> <PUBCHEM_COMPONENT_COUNT>
1

> <PUBCHEM_CACTVS_TAUTO_COUNT>
7

> <PUBCHEM_CONFORMER_ID>
0000012D00000001

> <PUBCHEM_MMFF94_ENERGY>
18.9664

> <PUBCHEM_FEATURE_SELFOVERLAP>
15.223

> <PUBCHEM_SHAPE_FINGERPRINT>
12423570 1 16814354444912022676
14128692 85 18267592307970669022
16945 1 18338799034416452805
18185500 45 18269270325728090663
21040471 1 17618222153360337765
23235685 24 18264765639379198061
23552423 10 18261398788904224558
241688 4 18192151499210409248
2748010 2 18337951182060168821
29004967 10 18261960746767608465
5084963 1 18200870656488770635

> <PUBCHEM_SHAPE_MULTIPOLES>
175.35
3.05
1.89
0.6
0.23
0.14
0
-0.93
0
-0.62
0
-0.02
-0.01
0

> <PUBCHEM_SHAPE_SELFOVERLAP>
358.529

> <PUBCHEM_SHAPE_VOLUME>
101.9

> <PUBCHEM_COORDINATE_TYPE>
2
5
10

$$$$
