145154
  -OEChem-11012401123D

 57 59  0     1  0  0  0  0  0999 V2000
    3.5279   -0.6738   -0.6179 O   0  0  0  0  0  0  0  0  0  0  0  0
   -8.0283   -0.2372    0.1215 O   0  0  0  0  0  0  0  0  0  0  0  0
   -1.9460   -0.5370    0.2916 N   0  0  0  0  0  0  0  0  0  0  0  0
   -2.5552   -0.3512   -0.7881 N   0  0  0  0  0  0  0  0  0  0  0  0
    2.3314    1.8544   -0.0361 C   0  0  1  0  0  0  0  0  0  0  0  0
    1.5386    0.5604   -0.1053 C   0  0  0  0  0  0  0  0  0  0  0  0
    1.8719    2.9068   -1.0659 C   0  0  0  0  0  0  0  0  0  0  0  0
    2.2737    2.4466    1.3773 C   0  0  0  0  0  0  0  0  0  0  0  0
    2.1848   -0.6267   -0.3927 C   0  0  0  0  0  0  0  0  0  0  0  0
    0.1762    0.6126    0.1238 C   0  0  0  0  0  0  0  0  0  0  0  0
    1.9303    2.4028   -2.5028 C   0  0  0  0  0  0  0  0  0  0  0  0
    1.4419   -1.8057   -0.4532 C   0  0  0  0  0  0  0  0  0  0  0  0
   -0.5667   -0.5665    0.0632 C   0  0  0  0  0  0  0  0  0  0  0  0
    0.0660   -1.7755   -0.2254 C   0  0  0  0  0  0  0  0  0  0  0  0
    4.3036   -1.4888    0.2584 C   0  0  0  0  0  0  0  0  0  0  0  0
    5.6704   -0.8874    0.4049 C   0  0  0  0  0  0  0  0  0  0  0  0
    6.6834   -1.2587   -0.4722 C   0  0  0  0  0  0  0  0  0  0  0  0
    5.9117    0.0360    1.4161 C   0  0  0  0  0  0  0  0  0  0  0  0
    7.9541   -0.6995   -0.3362 C   0  0  0  0  0  0  0  0  0  0  0  0
    7.1823    0.5952    1.5518 C   0  0  0  0  0  0  0  0  0  0  0  0
   -3.9415   -0.3218   -0.5590 C   0  0  0  0  0  0  0  0  0  0  0  0
    8.2035    0.2274    0.6756 C   0  0  0  0  0  0  0  0  0  0  0  0
   -4.5687    0.8865   -0.2716 C   0  0  0  0  0  0  0  0  0  0  0  0
   -4.6761   -1.5019   -0.6195 C   0  0  0  0  0  0  0  0  0  0  0  0
   -6.6859   -0.2649   -0.1019 C   0  0  0  0  0  0  0  0  0  0  0  0
   -5.9443    0.9149   -0.0424 C   0  0  0  0  0  0  0  0  0  0  0  0
   -6.0518   -1.4736   -0.3904 C   0  0  0  0  0  0  0  0  0  0  0  0
   -8.5186    0.7689    1.0065 C   0  0  0  0  0  0  0  0  0  0  0  0
   -9.7688    0.2576    1.6900 C   0  0  0  0  0  0  0  0  0  0  0  0
    3.3901    1.6553   -0.2430 H   0  0  0  0  0  0  0  0  0  0  0  0
    2.5158    3.7915   -0.9823 H   0  0  0  0  0  0  0  0  0  0  0  0
    0.8514    3.2468   -0.8521 H   0  0  0  0  0  0  0  0  0  0  0  0
    2.6065    1.7151    2.1224 H   0  0  0  0  0  0  0  0  0  0  0  0
    2.9305    3.3202    1.4535 H   0  0  0  0  0  0  0  0  0  0  0  0
    1.2639    2.7696    1.6525 H   0  0  0  0  0  0  0  0  0  0  0  0
   -0.3272    1.5486    0.3489 H   0  0  0  0  0  0  0  0  0  0  0  0
    1.6899    3.2172   -3.1940 H   0  0  0  0  0  0  0  0  0  0  0  0
    2.9320    2.0362   -2.7494 H   0  0  0  0  0  0  0  0  0  0  0  0
    1.2120    1.5972   -2.6811 H   0  0  0  0  0  0  0  0  0  0  0  0
    1.9194   -2.7538   -0.6849 H   0  0  0  0  0  0  0  0  0  0  0  0
   -0.5045   -2.6993   -0.2761 H   0  0  0  0  0  0  0  0  0  0  0  0
    3.8317   -1.5774    1.2467 H   0  0  0  0  0  0  0  0  0  0  0  0
    4.3744   -2.4999   -0.1608 H   0  0  0  0  0  0  0  0  0  0  0  0
    6.4997   -1.9781   -1.2654 H   0  0  0  0  0  0  0  0  0  0  0  0
    5.1225    0.3319    2.1019 H   0  0  0  0  0  0  0  0  0  0  0  0
    8.7492   -0.9854   -1.0187 H   0  0  0  0  0  0  0  0  0  0  0  0
    7.3763    1.3178    2.3390 H   0  0  0  0  0  0  0  0  0  0  0  0
    9.1927    0.6631    0.7811 H   0  0  0  0  0  0  0  0  0  0  0  0
   -3.9989    1.8110   -0.2298 H   0  0  0  0  0  0  0  0  0  0  0  0
   -4.1899   -2.4476   -0.8440 H   0  0  0  0  0  0  0  0  0  0  0  0
   -6.4028    1.8801    0.1515 H   0  0  0  0  0  0  0  0  0  0  0  0
   -6.6243   -2.3959   -0.4379 H   0  0  0  0  0  0  0  0  0  0  0  0
   -8.7534    1.6711    0.4310 H   0  0  0  0  0  0  0  0  0  0  0  0
   -7.7911    1.0122    1.7912 H   0  0  0  0  0  0  0  0  0  0  0  0
   -9.5527   -0.6529    2.2588 H   0  0  0  0  0  0  0  0  0  0  0  0
  -10.5330   -0.0035    0.9505 H   0  0  0  0  0  0  0  0  0  0  0  0
  -10.1789    1.0096    2.3700 H   0  0  0  0  0  0  0  0  0  0  0  0
  1  9  1  0  0  0  0
  1 15  1  0  0  0  0
  2 25  1  0  0  0  0
  2 28  1  0  0  0  0
  3  4  2  0  0  0  0
  3 13  1  0  0  0  0
  4 21  1  0  0  0  0
  5  6  1  0  0  0  0
  5  7  1  0  0  0  0
  5  8  1  0  0  0  0
  5 30  1  0  0  0  0
  6  9  2  0  0  0  0
  6 10  1  0  0  0  0
  7 11  1  0  0  0  0
  7 31  1  0  0  0  0
  7 32  1  0  0  0  0
  8 33  1  0  0  0  0
  8 34  1  0  0  0  0
  8 35  1  0  0  0  0
  9 12  1  0  0  0  0
 10 13  2  0  0  0  0
 10 36  1  0  0  0  0
 11 37  1  0  0  0  0
 11 38  1  0  0  0  0
 11 39  1  0  0  0  0
 12 14  2  0  0  0  0
 12 40  1  0  0  0  0
 13 14  1  0  0  0  0
 14 41  1  0  0  0  0
 15 16  1  0  0  0  0
 15 42  1  0  0  0  0
 15 43  1  0  0  0  0
 16 17  2  0  0  0  0
 16 18  1  0  0  0  0
 17 19  1  0  0  0  0
 17 44  1  0  0  0  0
 18 20  2  0  0  0  0
 18 45  1  0  0  0  0
 19 22  2  0  0  0  0
 19 46  1  0  0  0  0
 20 22  1  0  0  0  0
 20 47  1  0  0  0  0
 21 23  2  0  0  0  0
 21 24  1  0  0  0  0
 22 48  1  0  0  0  0
 23 26  1  0  0  0  0
 23 49  1  0  0  0  0
 24 27  2  0  0  0  0
 24 50  1  0  0  0  0
 25 26  2  0  0  0  0
 25 27  1  0  0  0  0
 26 51  1  0  0  0  0
 27 52  1  0  0  0  0
 28 29  1  0  0  0  0
 28 53  1  0  0  0  0
 28 54  1  0  0  0  0
 29 55  1  0  0  0  0
 29 56  1  0  0  0  0
 29 57  1  0  0  0  0
M  END
> <PUBCHEM_COMPOUND_CID>
145154

> <PUBCHEM_CONFORMER_RMSD>
1

> <PUBCHEM_CONFORMER_DIVERSEORDER>
2
44
49
51
42
9
33
21
43
50
6
40
11
22
48
41
4
20
31
23
7
19
46
27
16
1
12
38
10
18
3
47
13
28
5
52
34
17
8
30
45
29
32
37
15
39
25
36
35
14
26
24

> <PUBCHEM_MMFF94_PARTIAL_CHARGES>
37
1 -0.36
10 -0.15
12 -0.15
13 0.18
14 -0.15
15 0.42
16 -0.14
17 -0.15
18 -0.15
19 -0.15
2 -0.36
20 -0.15
21 0.18
22 -0.15
23 -0.15
24 -0.15
25 0.08
26 -0.15
27 -0.15
28 0.28
3 -0.18
36 0.15
4 -0.18
40 0.15
41 0.15
44 0.15
45 0.15
46 0.15
47 0.15
48 0.15
49 0.15
5 0.14
50 0.15
51 0.15
52 0.15
6 -0.14
9 0.08

> <PUBCHEM_EFFECTIVE_ROTOR_COUNT>
9

> <PUBCHEM_PHARMACOPHORE_FEATURES>
7
1 1 acceptor
1 11 hydrophobe
1 2 acceptor
1 8 hydrophobe
6 16 17 18 19 20 22 rings
6 21 23 24 25 26 27 rings
6 6 9 10 12 13 14 rings

> <PUBCHEM_HEAVY_ATOM_COUNT>
29

> <PUBCHEM_ATOM_DEF_STEREO_COUNT>
0

> <PUBCHEM_ATOM_UDEF_STEREO_COUNT>
1

> <PUBCHEM_BOND_DEF_STEREO_COUNT>
0

> <PUBCHEM_BOND_UDEF_STEREO_COUNT>
0

> <PUBCHEM_ISOTOPIC_ATOM_COUNT>
0

> <PUBCHEM_COMPONENT_COUNT>
1

> <PUBCHEM_CACTVS_TAUTO_COUNT>
1

> <PUBCHEM_CONFORMER_ID>
0002370200000002

> <PUBCHEM_MMFF94_ENERGY>
89.9842

> <PUBCHEM_FEATURE_SELFOVERLAP>
35.522

> <PUBCHEM_SHAPE_FINGERPRINT>
10050765 1 18120374525814917582
10162869 55 18410567410648843463
11181472 205 15984554295341146395
11315181 36 17203609290377125923
12035758 1 18263343894257784896
12166972 35 18411698811438334960
12516196 113 18411695483518629678
12539765 74 16702023101896365766
12664476 115 18186516589162427405
13560911 43 17967531259887862629
14170010 4 18413105069925309472
14251764 18 18040712563092954414
14849402 71 18341329006572800792
15183329 4 17385722491632072046
15461852 350 15482661399937235205
15840311 113 18060136566059397648
15849732 13 18273492386402770830
16120349 18 18337666512087122172
18365409 1 17703216442466285726
18681886 176 18201146732802639371
21033648 29 17916566757315588834
21150785 3 13045943504046525827
23559900 14 18187642560944048907
24771293 8 18198887288817319360
249057 3 18408321107860488327
3178227 256 18113622283021791851
335352 9 18411980282040749438
4073 2 18261113036393775755
4325135 7 11743839166059903586
504579 68 8502370006403990547
57359948 33 14261084147076942697
5758199 1 18411417297886228307
6081469 158 18201440243232222758
6523845 18 15863787318543611075
9962374 69 18040713723351238031

> <PUBCHEM_SHAPE_MULTIPOLES>
575.11
27.28
2.2
1.35
29.89
1.27
0.1
-2.88
-11.36
-1.6
0.7
-0.45
0.84
-0.53

> <PUBCHEM_SHAPE_SELFOVERLAP>
1220.808

> <PUBCHEM_SHAPE_VOLUME>
322.2

> <PUBCHEM_COORDINATE_TYPE>
2
5
10

$$$$
