137486
  -OEChem-11012401053D

 27 27  0     0  0  0  0  0  0999 V2000
    2.5252    0.4100    0.0004 O   0  0  0  0  0  0  0  0  0  0  0  0
    2.0538   -1.8432   -0.0001 O   0  0  0  0  0  0  0  0  0  0  0  0
   -4.3112    0.3003    0.0000 O   0  0  0  0  0  0  0  0  0  0  0  0
   -0.1081    1.0679    0.0014 N   0  0  0  0  0  0  0  0  0  0  0  0
   -0.8511   -1.0248   -0.0001 C   0  0  0  0  0  0  0  0  0  0  0  0
    0.2844   -0.2451    0.0008 C   0  0  0  0  0  0  0  0  0  0  0  0
   -1.9653   -0.1497   -0.0003 C   0  0  0  0  0  0  0  0  0  0  0  0
   -1.4768    1.1381    0.0002 C   0  0  0  0  0  0  0  0  0  0  0  0
   -0.8999   -2.5023    0.0000 C   0  0  0  0  0  0  0  0  0  0  0  0
   -2.1693    2.4415   -0.0004 C   0  0  0  0  0  0  0  0  0  0  0  0
    1.6535   -0.6566    0.0007 C   0  0  0  0  0  0  0  0  0  0  0  0
   -3.3592   -0.4936   -0.0010 C   0  0  0  0  0  0  0  0  0  0  0  0
    3.9285    0.1262   -0.0007 C   0  0  0  0  0  0  0  0  0  0  0  0
    4.6955    1.4313   -0.0008 C   0  0  0  0  0  0  0  0  0  0  0  0
    0.5179    1.8619    0.0021 H   0  0  0  0  0  0  0  0  0  0  0  0
   -0.4034   -2.9007   -0.8914 H   0  0  0  0  0  0  0  0  0  0  0  0
   -0.3900   -2.9014    0.8835 H   0  0  0  0  0  0  0  0  0  0  0  0
   -1.9166   -2.9009    0.0081 H   0  0  0  0  0  0  0  0  0  0  0  0
   -2.8016    2.5422    0.8876 H   0  0  0  0  0  0  0  0  0  0  0  0
   -1.4628    3.2783   -0.0006 H   0  0  0  0  0  0  0  0  0  0  0  0
   -2.8015    2.5416   -0.8885 H   0  0  0  0  0  0  0  0  0  0  0  0
   -3.5878   -1.5708   -0.0031 H   0  0  0  0  0  0  0  0  0  0  0  0
    4.1814   -0.4549    0.8928 H   0  0  0  0  0  0  0  0  0  0  0  0
    4.1800   -0.4541   -0.8951 H   0  0  0  0  0  0  0  0  0  0  0  0
    5.7741    1.2510   -0.0017 H   0  0  0  0  0  0  0  0  0  0  0  0
    4.4361    2.0305   -0.8798 H   0  0  0  0  0  0  0  0  0  0  0  0
    4.4374    2.0298    0.8791 H   0  0  0  0  0  0  0  0  0  0  0  0
  1 11  1  0  0  0  0
  1 13  1  0  0  0  0
  2 11  2  0  0  0  0
  3 12  2  0  0  0  0
  4  6  1  0  0  0  0
  4  8  1  0  0  0  0
  4 15  1  0  0  0  0
  5  6  2  0  0  0  0
  5  7  1  0  0  0  0
  5  9  1  0  0  0  0
  6 11  1  0  0  0  0
  7  8  2  0  0  0  0
  7 12  1  0  0  0  0
  8 10  1  0  0  0  0
  9 16  1  0  0  0  0
  9 17  1  0  0  0  0
  9 18  1  0  0  0  0
 10 19  1  0  0  0  0
 10 20  1  0  0  0  0
 10 21  1  0  0  0  0
 12 22  1  0  0  0  0
 13 14  1  0  0  0  0
 13 23  1  0  0  0  0
 13 24  1  0  0  0  0
 14 25  1  0  0  0  0
 14 26  1  0  0  0  0
 14 27  1  0  0  0  0
M  END
> <PUBCHEM_COMPOUND_CID>
137486

> <PUBCHEM_CONFORMER_RMSD>
0.6

> <PUBCHEM_CONFORMER_DIVERSEORDER>
1
21
24
5
6
25
8
11
19
20
16
22
9
12
7
23
18
13
10
17
4
3
15
14
2

> <PUBCHEM_MMFF94_PARTIAL_CHARGES>
15
1 -0.43
10 0.18
11 0.81
12 0.6
13 0.28
15 0.27
2 -0.57
22 0.06
3 -0.57
4 0.03
5 -0.18
6 -0.24
7 -0.09
8 -0.33
9 0.18

> <PUBCHEM_EFFECTIVE_ROTOR_COUNT>
4

> <PUBCHEM_PHARMACOPHORE_FEATURES>
5
1 2 acceptor
1 3 acceptor
1 4 cation
1 4 donor
5 4 5 6 7 8 rings

> <PUBCHEM_HEAVY_ATOM_COUNT>
14

> <PUBCHEM_ATOM_DEF_STEREO_COUNT>
0

> <PUBCHEM_ATOM_UDEF_STEREO_COUNT>
0

> <PUBCHEM_BOND_DEF_STEREO_COUNT>
0

> <PUBCHEM_BOND_UDEF_STEREO_COUNT>
0

> <PUBCHEM_ISOTOPIC_ATOM_COUNT>
0

> <PUBCHEM_COMPONENT_COUNT>
1

> <PUBCHEM_CACTVS_TAUTO_COUNT>
4

> <PUBCHEM_CONFORMER_ID>
0002190E00000001

> <PUBCHEM_MMFF94_ENERGY>
13.9019

> <PUBCHEM_FEATURE_SELFOVERLAP>
25.371

> <PUBCHEM_SHAPE_FINGERPRINT>
10608611 8 18411980222348939772
11132069 177 18338233881535081936
12390115 104 18128555802526653441
12932764 1 17346018005333950214
13140716 1 18121787397902889817
13214271 11 18337391659490876959
13380535 76 18411419518505425070
14325111 11 18338797793081090561
14614273 12 18115865192574856413
14897335 6 18409728465453298478
15536298 74 18341333284539042838
15669948 3 18339916125714850826
16945 1 18410574019595669987
17846911 113 18411978078875162754
18186145 218 18127980702257820908
193761 8 17762055441785046467
20510252 161 18271528606674124441
20528008 55 18412822512347788938
20645477 56 18412263969468786608
20871998 184 18200037368461922615
21501502 16 18267583503007929483
2334 1 17690000454275283061
23402539 116 18341604945219888463
23557571 272 18055366974733096046
23559900 14 18127689332230751030
2748010 2 18265618671486874103
53812653 8 18409725136573945899
58051976 378 18412824681206033940
69090 78 18413668019536151310
7364860 26 18269556053303186254

> <PUBCHEM_SHAPE_MULTIPOLES>
265.52
7.16
2.21
0.59
5.56
0.12
0
-2.72
0
-0.64
0
0
0
0

> <PUBCHEM_SHAPE_SELFOVERLAP>
546.933

> <PUBCHEM_SHAPE_VOLUME>
154.8

> <PUBCHEM_COORDINATE_TYPE>
2
5
10

$$$$
