5462744
  -OEChem-11012400433D

 24 23  0     0  0  0  0  0  0999 V2000
   -1.4918   -0.0275   -0.2682 C   0  0  0  0  0  0  0  0  0  0  0  0
    1.5233    0.0263   -0.3053 C   0  0  0  0  0  0  0  0  0  0  0  0
   -0.6472    0.3695    0.9158 C   0  0  0  0  0  0  0  0  0  0  0  0
    0.6944    0.3934    0.8993 C   0  0  0  0  0  0  0  0  0  0  0  0
   -2.3861    1.1370   -0.6923 C   0  0  0  0  0  0  0  0  0  0  0  0
   -2.3343   -1.2562    0.0727 C   0  0  0  0  0  0  0  0  0  0  0  0
    2.8228    0.8307   -0.3165 C   0  0  0  0  0  0  0  0  0  0  0  0
    1.8188   -1.4731   -0.3054 C   0  0  0  0  0  0  0  0  0  0  0  0
   -0.8945   -0.3035   -1.1398 H   0  0  0  0  0  0  0  0  0  0  0  0
    1.0113    0.2883   -1.2363 H   0  0  0  0  0  0  0  0  0  0  0  0
   -1.1602    0.6388    1.8360 H   0  0  0  0  0  0  0  0  0  0  0  0
    1.2148    0.6631    1.8153 H   0  0  0  0  0  0  0  0  0  0  0  0
   -1.7857    2.0092   -0.9739 H   0  0  0  0  0  0  0  0  0  0  0  0
   -3.0637    1.4396    0.1143 H   0  0  0  0  0  0  0  0  0  0  0  0
   -2.9984    0.8607   -1.5577 H   0  0  0  0  0  0  0  0  0  0  0  0
   -1.6983   -2.1046    0.3489 H   0  0  0  0  0  0  0  0  0  0  0  0
   -2.9413   -1.5610   -0.7869 H   0  0  0  0  0  0  0  0  0  0  0  0
   -3.0144   -1.0588    0.9092 H   0  0  0  0  0  0  0  0  0  0  0  0
    3.4169    0.5941   -1.2061 H   0  0  0  0  0  0  0  0  0  0  0  0
    3.4390    0.6149    0.5638 H   0  0  0  0  0  0  0  0  0  0  0  0
    2.6185    1.9072   -0.3292 H   0  0  0  0  0  0  0  0  0  0  0  0
    0.8967   -2.0623   -0.3485 H   0  0  0  0  0  0  0  0  0  0  0  0
    2.3686   -1.7741    0.5937 H   0  0  0  0  0  0  0  0  0  0  0  0
    2.4258   -1.7465   -1.1754 H   0  0  0  0  0  0  0  0  0  0  0  0
  1  3  1  0  0  0  0
  1  5  1  0  0  0  0
  1  6  1  0  0  0  0
  1  9  1  0  0  0  0
  2  4  1  0  0  0  0
  2  7  1  0  0  0  0
  2  8  1  0  0  0  0
  2 10  1  0  0  0  0
  3  4  2  0  0  0  0
  3 11  1  0  0  0  0
  4 12  1  0  0  0  0
  5 13  1  0  0  0  0
  5 14  1  0  0  0  0
  5 15  1  0  0  0  0
  6 16  1  0  0  0  0
  6 17  1  0  0  0  0
  6 18  1  0  0  0  0
  7 19  1  0  0  0  0
  7 20  1  0  0  0  0
  7 21  1  0  0  0  0
  8 22  1  0  0  0  0
  8 23  1  0  0  0  0
  8 24  1  0  0  0  0
M  END
> <PUBCHEM_COMPOUND_CID>
5462744

> <PUBCHEM_CONFORMER_RMSD>
0.4

> <PUBCHEM_CONFORMER_DIVERSEORDER>
1
4
2
3

> <PUBCHEM_MMFF94_PARTIAL_CHARGES>
6
1 0.14
11 0.15
12 0.15
2 0.14
3 -0.29
4 -0.29

> <PUBCHEM_EFFECTIVE_ROTOR_COUNT>
2

> <PUBCHEM_PHARMACOPHORE_FEATURES>
2
3 1 5 6 hydrophobe
3 2 7 8 hydrophobe

> <PUBCHEM_HEAVY_ATOM_COUNT>
8

> <PUBCHEM_ATOM_DEF_STEREO_COUNT>
0

> <PUBCHEM_ATOM_UDEF_STEREO_COUNT>
0

> <PUBCHEM_BOND_DEF_STEREO_COUNT>
1

> <PUBCHEM_BOND_UDEF_STEREO_COUNT>
0

> <PUBCHEM_ISOTOPIC_ATOM_COUNT>
0

> <PUBCHEM_COMPONENT_COUNT>
1

> <PUBCHEM_CACTVS_TAUTO_COUNT>
1

> <PUBCHEM_CONFORMER_ID>
00535AD800000001

> <PUBCHEM_MMFF94_ENERGY>
6.1967

> <PUBCHEM_FEATURE_SELFOVERLAP>
10.149

> <PUBCHEM_SHAPE_FINGERPRINT>
10857977 72 9510872900306207397
12897270 3 18410575127702572228
12932764 1 18187375298182659346
14390081 3 17530962479665507277
15310529 11 18410573998163064159
20653085 51 17969229932063668725
20711985 344 16700633189970386880
23235687 12 18186513285234869284
23552423 10 18336828593546990915
23552449 11 15625069019825553435
29004967 10 17918274280996803410
3248919 1 18340759364853915217

> <PUBCHEM_SHAPE_MULTIPOLES>
164.64
4.1
1.37
0.93
0.31
0.38
-0.13
-0.21
0.95
-0.11
0.17
-0.08
-0.14
0.27

> <PUBCHEM_SHAPE_SELFOVERLAP>
295.49

> <PUBCHEM_SHAPE_VOLUME>
107.1

> <PUBCHEM_COORDINATE_TYPE>
2
5
10

$$$$
