136360
  -OEChem-11012400473D

 22 22  0     0  0  0  0  0  0999 V2000
   -1.2150    1.9964   -0.2527 O   0  0  0  0  0  0  0  0  0  0  0  0
    2.9974    0.2310   -0.2292 O   0  0  0  0  0  0  0  0  0  0  0  0
   -1.1419   -0.4130    0.0073 C   0  0  0  0  0  0  0  0  0  0  0  0
   -0.1336   -1.3832   -0.6402 C   0  0  0  0  0  0  0  0  0  0  0  0
    1.2390   -1.3694    0.0196 C   0  0  0  0  0  0  0  0  0  0  0  0
   -0.5402    0.9971    0.0023 C   0  0  0  0  0  0  0  0  0  0  0  0
    0.8970    1.1472    0.4470 C   0  0  0  0  0  0  0  0  0  0  0  0
   -2.4387   -0.4315   -0.8198 C   0  0  0  0  0  0  0  0  0  0  0  0
   -1.4712   -0.8024    1.4548 C   0  0  0  0  0  0  0  0  0  0  0  0
    1.8070    0.0278    0.0109 C   0  0  0  0  0  0  0  0  0  0  0  0
   -0.0078   -1.1182   -1.6993 H   0  0  0  0  0  0  0  0  0  0  0  0
   -0.5286   -2.4066   -0.6176 H   0  0  0  0  0  0  0  0  0  0  0  0
    1.9162   -2.0261   -0.5375 H   0  0  0  0  0  0  0  0  0  0  0  0
    1.2003   -1.7270    1.0527 H   0  0  0  0  0  0  0  0  0  0  0  0
    0.9197    1.2082    1.5392 H   0  0  0  0  0  0  0  0  0  0  0  0
    1.2855    2.0816    0.0275 H   0  0  0  0  0  0  0  0  0  0  0  0
   -2.2579   -0.0980   -1.8483 H   0  0  0  0  0  0  0  0  0  0  0  0
   -2.8671   -1.4391   -0.8621 H   0  0  0  0  0  0  0  0  0  0  0  0
   -3.1965    0.2349   -0.3917 H   0  0  0  0  0  0  0  0  0  0  0  0
   -1.8637   -1.8237    1.5093 H   0  0  0  0  0  0  0  0  0  0  0  0
   -0.5969   -0.7426    2.1109 H   0  0  0  0  0  0  0  0  0  0  0  0
   -2.2260   -0.1293    1.8783 H   0  0  0  0  0  0  0  0  0  0  0  0
  1  6  2  0  0  0  0
  2 10  2  0  0  0  0
  3  4  1  0  0  0  0
  3  6  1  0  0  0  0
  3  8  1  0  0  0  0
  3  9  1  0  0  0  0
  4  5  1  0  0  0  0
  4 11  1  0  0  0  0
  4 12  1  0  0  0  0
  5 10  1  0  0  0  0
  5 13  1  0  0  0  0
  5 14  1  0  0  0  0
  6  7  1  0  0  0  0
  7 10  1  0  0  0  0
  7 15  1  0  0  0  0
  7 16  1  0  0  0  0
  8 17  1  0  0  0  0
  8 18  1  0  0  0  0
  8 19  1  0  0  0  0
  9 20  1  0  0  0  0
  9 21  1  0  0  0  0
  9 22  1  0  0  0  0
M  END
> <PUBCHEM_COMPOUND_CID>
136360

> <PUBCHEM_CONFORMER_RMSD>
0.4

> <PUBCHEM_CONFORMER_DIVERSEORDER>
1
4
3
2

> <PUBCHEM_MMFF94_PARTIAL_CHARGES>
7
1 -0.57
10 0.45
2 -0.57
3 0.06
5 0.06
6 0.45
7 0.12

> <PUBCHEM_EFFECTIVE_ROTOR_COUNT>
0.8

> <PUBCHEM_PHARMACOPHORE_FEATURES>
5
1 1 acceptor
1 2 acceptor
1 7 anion
3 3 8 9 hydrophobe
6 3 4 5 6 7 10 rings

> <PUBCHEM_HEAVY_ATOM_COUNT>
10

> <PUBCHEM_ATOM_DEF_STEREO_COUNT>
0

> <PUBCHEM_ATOM_UDEF_STEREO_COUNT>
0

> <PUBCHEM_BOND_DEF_STEREO_COUNT>
0

> <PUBCHEM_BOND_UDEF_STEREO_COUNT>
0

> <PUBCHEM_ISOTOPIC_ATOM_COUNT>
0

> <PUBCHEM_COMPONENT_COUNT>
1

> <PUBCHEM_CACTVS_TAUTO_COUNT>
5

> <PUBCHEM_CONFORMER_ID>
000214A800000001

> <PUBCHEM_MMFF94_ENERGY>
18.326

> <PUBCHEM_FEATURE_SELFOVERLAP>
25.371

> <PUBCHEM_SHAPE_FINGERPRINT>
11206711 2 18411979148237922596
12138202 97 17676476285482174279
12423570 1 10583852526408977809
12897270 3 18341321258176797159
13024252 1 17748824141777971126
14128692 85 17486477476488613775
16945 1 18410004451013217051
18185500 45 18127122211177984286
21040471 1 17980474568729652656
21922407 69 16372732524466706814
23552423 10 18191867821089743726
2748010 2 18197499528300158334
29004967 10 18262808474316614011
369184 2 15864067693507468574
5084963 1 17846213388592874858
528886 8 18270667745183491391
68250623 7 18122336879176519607

> <PUBCHEM_SHAPE_MULTIPOLES>
194.06
3.02
1.65
0.97
1.08
0.41
0.27
-0.13
-0.35
-0.16
-0.1
-0.49
-0.21
0.16

> <PUBCHEM_SHAPE_SELFOVERLAP>
389.795

> <PUBCHEM_SHAPE_VOLUME>
114.1

> <PUBCHEM_COORDINATE_TYPE>
2
5
10

$$$$
