523103
  -OEChem-11012400363D

 31 32  0     0  0  0  0  0  0999 V2000
    1.9343    0.4553   -0.0041 C   0  0  0  0  0  0  0  0  0  0  0  0
    2.2773   -0.9863    0.4587 C   0  0  0  0  0  0  0  0  0  0  0  0
    0.4242    0.3948    0.0159 C   0  0  0  0  0  0  0  0  0  0  0  0
    1.1287   -1.8914   -0.0117 C   0  0  0  0  0  0  0  0  0  0  0  0
   -0.0212   -0.9351    0.0185 C   0  0  0  0  0  0  0  0  0  0  0  0
    2.4410    0.7171   -1.4286 C   0  0  0  0  0  0  0  0  0  0  0  0
    2.5150    1.4903    0.9628 C   0  0  0  0  0  0  0  0  0  0  0  0
   -1.3725   -1.2407    0.0027 C   0  0  0  0  0  0  0  0  0  0  0  0
   -0.4855    1.4423    0.0053 C   0  0  0  0  0  0  0  0  0  0  0  0
   -1.8499    1.1428    0.0020 C   0  0  0  0  0  0  0  0  0  0  0  0
   -2.2901   -0.1891    0.0002 C   0  0  0  0  0  0  0  0  0  0  0  0
   -1.8514   -2.6508   -0.0153 C   0  0  0  0  0  0  0  0  0  0  0  0
   -2.8501    2.2507   -0.0064 C   0  0  0  0  0  0  0  0  0  0  0  0
    2.3222   -1.0280    1.5568 H   0  0  0  0  0  0  0  0  0  0  0  0
    3.2481   -1.3349    0.0898 H   0  0  0  0  0  0  0  0  0  0  0  0
    0.9957   -2.7384    0.6670 H   0  0  0  0  0  0  0  0  0  0  0  0
    1.2971   -2.2511   -1.0319 H   0  0  0  0  0  0  0  0  0  0  0  0
    2.1290    1.7062   -1.7838 H   0  0  0  0  0  0  0  0  0  0  0  0
    2.0561   -0.0197   -2.1432 H   0  0  0  0  0  0  0  0  0  0  0  0
    3.5353    0.6773   -1.4681 H   0  0  0  0  0  0  0  0  0  0  0  0
    2.2671    2.5119    0.6536 H   0  0  0  0  0  0  0  0  0  0  0  0
    3.6071    1.4124    1.0088 H   0  0  0  0  0  0  0  0  0  0  0  0
    2.1263    1.3547    1.9787 H   0  0  0  0  0  0  0  0  0  0  0  0
   -0.1422    2.4720   -0.0079 H   0  0  0  0  0  0  0  0  0  0  0  0
   -3.3575   -0.3996   -0.0095 H   0  0  0  0  0  0  0  0  0  0  0  0
   -1.5854   -3.1541    0.9198 H   0  0  0  0  0  0  0  0  0  0  0  0
   -2.9393   -2.7100   -0.1273 H   0  0  0  0  0  0  0  0  0  0  0  0
   -1.4081   -3.1960   -0.8552 H   0  0  0  0  0  0  0  0  0  0  0  0
   -3.7473    1.9745    0.5578 H   0  0  0  0  0  0  0  0  0  0  0  0
   -2.4449    3.1552    0.4598 H   0  0  0  0  0  0  0  0  0  0  0  0
   -3.1394    2.4873   -1.0351 H   0  0  0  0  0  0  0  0  0  0  0  0
  1  2  1  0  0  0  0
  1  3  1  0  0  0  0
  1  6  1  0  0  0  0
  1  7  1  0  0  0  0
  2  4  1  0  0  0  0
  2 14  1  0  0  0  0
  2 15  1  0  0  0  0
  3  5  1  0  0  0  0
  3  9  2  0  0  0  0
  4  5  1  0  0  0  0
  4 16  1  0  0  0  0
  4 17  1  0  0  0  0
  5  8  2  0  0  0  0
  6 18  1  0  0  0  0
  6 19  1  0  0  0  0
  6 20  1  0  0  0  0
  7 21  1  0  0  0  0
  7 22  1  0  0  0  0
  7 23  1  0  0  0  0
  8 11  1  0  0  0  0
  8 12  1  0  0  0  0
  9 10  1  0  0  0  0
  9 24  1  0  0  0  0
 10 11  2  0  0  0  0
 10 13  1  0  0  0  0
 11 25  1  0  0  0  0
 12 26  1  0  0  0  0
 12 27  1  0  0  0  0
 12 28  1  0  0  0  0
 13 29  1  0  0  0  0
 13 30  1  0  0  0  0
 13 31  1  0  0  0  0
M  END
> <PUBCHEM_COMPOUND_CID>
523103

> <PUBCHEM_CONFORMER_RMSD>
0.4

> <PUBCHEM_CONFORMER_DIVERSEORDER>
1

> <PUBCHEM_MMFF94_PARTIAL_CHARGES>
12
1 0.14
10 -0.14
11 -0.15
12 0.14
13 0.14
24 0.15
25 0.15
3 -0.14
4 0.14
5 -0.14
8 -0.14
9 -0.15

> <PUBCHEM_EFFECTIVE_ROTOR_COUNT>
0.6

> <PUBCHEM_PHARMACOPHORE_FEATURES>
3
3 1 6 7 hydrophobe
5 1 2 3 4 5 rings
6 3 5 8 9 10 11 rings

> <PUBCHEM_HEAVY_ATOM_COUNT>
13

> <PUBCHEM_ATOM_DEF_STEREO_COUNT>
0

> <PUBCHEM_ATOM_UDEF_STEREO_COUNT>
0

> <PUBCHEM_BOND_DEF_STEREO_COUNT>
0

> <PUBCHEM_BOND_UDEF_STEREO_COUNT>
0

> <PUBCHEM_ISOTOPIC_ATOM_COUNT>
0

> <PUBCHEM_COMPONENT_COUNT>
1

> <PUBCHEM_CACTVS_TAUTO_COUNT>
1

> <PUBCHEM_CONFORMER_ID>
0007FB5F00000001

> <PUBCHEM_MMFF94_ENERGY>
39.9179

> <PUBCHEM_FEATURE_SELFOVERLAP>
15.304

> <PUBCHEM_SHAPE_FINGERPRINT>
1 1 17905883687248288845
10967382 1 17834673799310955507
11206711 2 18266180715297206671
12423570 1 12749225928640959683
13140716 1 18193839237106627865
13380535 21 18339378386760183355
13380535 76 18340758239540939031
14614273 12 18261939847409338453
14817 1 7896748362531627293
15775835 57 18337679607041331416
15852999 172 17830128589855740293
16945 1 18337955704818876449
18186145 218 18058729074969283505
193761 8 18411133623717119075
20510252 161 18126285491593436888
20511035 2 18339637845903580222
20525323 117 18339067302331707627
20645476 183 18115889428568743167
21040471 1 18410576145525301772
21501502 16 18410007719557325242
21524375 3 18192711146824479585
22802520 49 18129680671851769974
2334 1 18410013191688408781
23402539 116 17696177489457816150
23419403 2 15962211144879685187
23552423 10 18259704497341703418
23559900 14 18200605701142866182
241688 4 17979076312188120275
2748010 2 18337114441179866269
5084963 1 18040714714808006324
53812653 8 18045230581131019212
7364860 26 18199465476744955526
8030462 33 18408882974970266254
81228 2 18337111297337632747

> <PUBCHEM_SHAPE_MULTIPOLES>
267.53
4.08
2.58
0.86
0.04
0.72
0.15
-1.39
0.01
-1.5
-0.13
0.6
-0.2
0

> <PUBCHEM_SHAPE_SELFOVERLAP>
569.197

> <PUBCHEM_SHAPE_VOLUME>
146.8

> <PUBCHEM_COORDINATE_TYPE>
2
5
10

$$$$
