642975
  -OEChem-11012401273D

 23 24  0     1  0  0  0  0  0999 V2000
    2.3002   -0.0497    0.1509 O   0  0  0  0  0  0  0  0  0  0  0  0
    1.2206   -0.8179   -0.3923 C   0  0  2  0  0  0  0  0  0  0  0  0
    1.2618    0.6842   -0.5188 C   0  0  1  0  0  0  0  0  0  0  0  0
    0.3556   -1.4971    0.6138 C   0  0  0  0  0  0  0  0  0  0  0  0
    0.5056    1.6106    0.3777 C   0  0  0  0  0  0  0  0  0  0  0  0
   -1.0400   -1.7831    0.0646 C   0  0  0  0  0  0  0  0  0  0  0  0
   -0.9502    1.8001   -0.0439 C   0  0  0  0  0  0  0  0  0  0  0  0
   -1.7622   -0.5912   -0.5737 C   0  0  0  0  0  0  0  0  0  0  0  0
   -1.8914    0.6441    0.3216 C   0  0  0  0  0  0  0  0  0  0  0  0
    1.4220   -1.4197   -1.2685 H   0  0  0  0  0  0  0  0  0  0  0  0
    1.4847    1.1102   -1.4882 H   0  0  0  0  0  0  0  0  0  0  0  0
    0.2803   -0.9202    1.5416 H   0  0  0  0  0  0  0  0  0  0  0  0
    0.8245   -2.4482    0.8937 H   0  0  0  0  0  0  0  0  0  0  0  0
    1.0051    2.5865    0.3308 H   0  0  0  0  0  0  0  0  0  0  0  0
    0.5571    1.3006    1.4276 H   0  0  0  0  0  0  0  0  0  0  0  0
   -1.6579   -2.1875    0.8760 H   0  0  0  0  0  0  0  0  0  0  0  0
   -0.9691   -2.5761   -0.6910 H   0  0  0  0  0  0  0  0  0  0  0  0
   -1.0134    2.0107   -1.1185 H   0  0  0  0  0  0  0  0  0  0  0  0
   -1.3247    2.6956    0.4691 H   0  0  0  0  0  0  0  0  0  0  0  0
   -2.7742   -0.9348   -0.8263 H   0  0  0  0  0  0  0  0  0  0  0  0
   -1.2951   -0.3325   -1.5311 H   0  0  0  0  0  0  0  0  0  0  0  0
   -2.9141    1.0259    0.2010 H   0  0  0  0  0  0  0  0  0  0  0  0
   -1.7925    0.3840    1.3816 H   0  0  0  0  0  0  0  0  0  0  0  0
  1  2  1  0  0  0  0
  1  3  1  0  0  0  0
  2  3  1  0  0  0  0
  2  4  1  0  0  0  0
  2 10  1  0  0  0  0
  3  5  1  0  0  0  0
  3 11  1  0  0  0  0
  4  6  1  0  0  0  0
  4 12  1  0  0  0  0
  4 13  1  0  0  0  0
  5  7  1  0  0  0  0
  5 14  1  0  0  0  0
  5 15  1  0  0  0  0
  6  8  1  0  0  0  0
  6 16  1  0  0  0  0
  6 17  1  0  0  0  0
  7  9  1  0  0  0  0
  7 18  1  0  0  0  0
  7 19  1  0  0  0  0
  8  9  1  0  0  0  0
  8 20  1  0  0  0  0
  8 21  1  0  0  0  0
  9 22  1  0  0  0  0
  9 23  1  0  0  0  0
M  END
> <PUBCHEM_COMPOUND_CID>
642975

> <PUBCHEM_CONFORMER_RMSD>
0.4

> <PUBCHEM_CONFORMER_DIVERSEORDER>
1
5
3
4
6
2

> <PUBCHEM_MMFF94_PARTIAL_CHARGES>
7
1 -0.3
10 0.1
11 0.1
2 -0.05
3 -0.05
4 0.09
5 0.09

> <PUBCHEM_EFFECTIVE_ROTOR_COUNT>
1.4

> <PUBCHEM_PHARMACOPHORE_FEATURES>
1
1 1 acceptor

> <PUBCHEM_HEAVY_ATOM_COUNT>
9

> <PUBCHEM_ATOM_DEF_STEREO_COUNT>
2

> <PUBCHEM_ATOM_UDEF_STEREO_COUNT>
0

> <PUBCHEM_BOND_DEF_STEREO_COUNT>
0

> <PUBCHEM_BOND_UDEF_STEREO_COUNT>
0

> <PUBCHEM_ISOTOPIC_ATOM_COUNT>
0

> <PUBCHEM_COMPONENT_COUNT>
1

> <PUBCHEM_CACTVS_TAUTO_COUNT>
1

> <PUBCHEM_CONFORMER_ID>
0009CF9F00000001

> <PUBCHEM_MMFF94_ENERGY>
12.3758

> <PUBCHEM_FEATURE_SELFOVERLAP>
5.074

> <PUBCHEM_SHAPE_FINGERPRINT>
12423570 1 10015318973568608350
16945 1 18411420609147049764
18185500 45 18338231544724628749
21040471 1 18266464208839961260
21922407 69 13231629796090678373
241688 4 18338796848383548993
2748010 2 18050849123918713141
5084963 1 18057324985450283883
66348 1 18050851322952576541

> <PUBCHEM_SHAPE_MULTIPOLES>
179.35
2.43
2.12
0.77
0.17
0.1
-0.01
0
-0.14
-0.4
0.22
-0.02
-0.05
-0.1

> <PUBCHEM_SHAPE_SELFOVERLAP>
351.864

> <PUBCHEM_SHAPE_VOLUME>
107

> <PUBCHEM_COORDINATE_TYPE>
2
5
10

$$$$
