12534137
  -OEChem-10312420102D

 47 45  0     0  0  0  0  0  0999 V2000
    5.3001    3.1200    0.0000 S   0  0  0  0  0  0  0  0  0  0  0  0
    4.4340    4.6200    0.0000 S   0  0  0  0  0  0  0  0  0  0  0  0
    3.5680    3.1200    0.0000 N   0  0  0  0  0  0  0  0  0  0  0  0
    3.1350    7.2400    0.0000 N   0  0  0  0  0  0  0  0  0  0  0  0
    2.7020    3.6200    0.0000 C   0  0  0  0  0  0  0  0  0  0  0  0
    3.5680    2.1200    0.0000 C   0  0  0  0  0  0  0  0  0  0  0  0
    1.8360    3.1200    0.0000 C   0  0  0  0  0  0  0  0  0  0  0  0
    2.7020    1.6200    0.0000 C   0  0  0  0  0  0  0  0  0  0  0  0
    4.0010    7.7400    0.0000 C   0  0  0  0  0  0  0  0  0  0  0  0
    2.2690    7.7400    0.0000 C   0  0  0  0  0  0  0  0  0  0  0  0
    4.8671    7.2400    0.0000 C   0  0  0  0  0  0  0  0  0  0  0  0
    1.4030    7.2400    0.0000 C   0  0  0  0  0  0  0  0  0  0  0  0
    0.9699    3.6200    0.0000 C   0  0  0  0  0  0  0  0  0  0  0  0
    2.7020    0.6200    0.0000 C   0  0  0  0  0  0  0  0  0  0  0  0
    4.4340    3.6200    0.0000 C   0  0  0  0  0  0  0  0  0  0  0  0
    5.7331    7.7400    0.0000 C   0  0  0  0  0  0  0  0  0  0  0  0
    0.5369    7.7400    0.0000 C   0  0  0  0  0  0  0  0  0  0  0  0
    3.1005    4.0950    0.0000 H   0  0  0  0  0  0  0  0  0  0  0  0
    2.3035    4.0950    0.0000 H   0  0  0  0  0  0  0  0  0  0  0  0
    3.7801    1.5374    0.0000 H   0  0  0  0  0  0  0  0  0  0  0  0
    4.1786    2.2277    0.0000 H   0  0  0  0  0  0  0  0  0  0  0  0
    1.4374    2.6450    0.0000 H   0  0  0  0  0  0  0  0  0  0  0  0
    2.2345    2.6450    0.0000 H   0  0  0  0  0  0  0  0  0  0  0  0
    2.4900    2.2026    0.0000 H   0  0  0  0  0  0  0  0  0  0  0  0
    2.0914    1.5123    0.0000 H   0  0  0  0  0  0  0  0  0  0  0  0
    4.3996    8.2150    0.0000 H   0  0  0  0  0  0  0  0  0  0  0  0
    3.6025    8.2150    0.0000 H   0  0  0  0  0  0  0  0  0  0  0  0
    2.6675    8.2150    0.0000 H   0  0  0  0  0  0  0  0  0  0  0  0
    1.8705    8.2150    0.0000 H   0  0  0  0  0  0  0  0  0  0  0  0
    3.1350    6.6200    0.0000 H   0  0  0  0  0  0  0  0  0  0  0  0
    4.4685    6.7650    0.0000 H   0  0  0  0  0  0  0  0  0  0  0  0
    5.2656    6.7650    0.0000 H   0  0  0  0  0  0  0  0  0  0  0  0
    1.0044    6.7650    0.0000 H   0  0  0  0  0  0  0  0  0  0  0  0
    1.8015    6.7650    0.0000 H   0  0  0  0  0  0  0  0  0  0  0  0
    1.2800    4.1569    0.0000 H   0  0  0  0  0  0  0  0  0  0  0  0
    0.4330    3.9300    0.0000 H   0  0  0  0  0  0  0  0  0  0  0  0
    0.6599    3.0831    0.0000 H   0  0  0  0  0  0  0  0  0  0  0  0
    2.0820    0.6200    0.0000 H   0  0  0  0  0  0  0  0  0  0  0  0
    2.7020    0.0000    0.0000 H   0  0  0  0  0  0  0  0  0  0  0  0
    3.3220    0.6200    0.0000 H   0  0  0  0  0  0  0  0  0  0  0  0
    6.0431    7.2031    0.0000 H   0  0  0  0  0  0  0  0  0  0  0  0
    6.2700    8.0500    0.0000 H   0  0  0  0  0  0  0  0  0  0  0  0
    5.4231    8.2769    0.0000 H   0  0  0  0  0  0  0  0  0  0  0  0
    0.8469    8.2769    0.0000 H   0  0  0  0  0  0  0  0  0  0  0  0
    0.0000    8.0500    0.0000 H   0  0  0  0  0  0  0  0  0  0  0  0
    0.2269    7.2031    0.0000 H   0  0  0  0  0  0  0  0  0  0  0  0
    5.8370    3.4300    0.0000 H   0  0  0  0  0  0  0  0  0  0  0  0
  1 15  1  0  0  0  0
  1 47  1  0  0  0  0
  2 15  2  0  0  0  0
  3  5  1  0  0  0  0
  3  6  1  0  0  0  0
  3 15  1  0  0  0  0
  4  9  1  0  0  0  0
  4 10  1  0  0  0  0
  4 30  1  0  0  0  0
  5  7  1  0  0  0  0
  5 18  1  0  0  0  0
  5 19  1  0  0  0  0
  6  8  1  0  0  0  0
  6 20  1  0  0  0  0
  6 21  1  0  0  0  0
  7 13  1  0  0  0  0
  7 22  1  0  0  0  0
  7 23  1  0  0  0  0
  8 14  1  0  0  0  0
  8 24  1  0  0  0  0
  8 25  1  0  0  0  0
  9 11  1  0  0  0  0
  9 26  1  0  0  0  0
  9 27  1  0  0  0  0
 10 12  1  0  0  0  0
 10 28  1  0  0  0  0
 10 29  1  0  0  0  0
 11 16  1  0  0  0  0
 11 31  1  0  0  0  0
 11 32  1  0  0  0  0
 12 17  1  0  0  0  0
 12 33  1  0  0  0  0
 12 34  1  0  0  0  0
 13 35  1  0  0  0  0
 13 36  1  0  0  0  0
 13 37  1  0  0  0  0
 14 38  1  0  0  0  0
 14 39  1  0  0  0  0
 14 40  1  0  0  0  0
 16 41  1  0  0  0  0
 16 42  1  0  0  0  0
 16 43  1  0  0  0  0
 17 44  1  0  0  0  0
 17 45  1  0  0  0  0
 17 46  1  0  0  0  0
M  END
> <PUBCHEM_COMPOUND_CID>
12534137

> <PUBCHEM_COMPOUND_CANONICALIZED>
1

> <PUBCHEM_CACTVS_COMPLEXITY>
121

> <PUBCHEM_CACTVS_HBOND_ACCEPTOR>
3

> <PUBCHEM_CACTVS_HBOND_DONOR>
2

> <PUBCHEM_CACTVS_ROTATABLE_BOND>
8

> <PUBCHEM_CACTVS_SUBSKEYS>
AAADceBzAABgAAAAAAAAAAAAAAAAAAAAAAAAAAAAAAAAAAAAAAAAHAQQAAAACADBAAQCAAPAAAQEAAAAAAAAAAAAAAgAAIAIAAAAAAAAAAAEAAAAEACAAAAAAAAAAAAAAAAAAAAAAAAAAAAAAAAAAAAAAA==

> <PUBCHEM_IUPAC_OPENEYE_NAME>
dipropylcarbamodithioic acid;N-propylpropan-1-amine

> <PUBCHEM_IUPAC_CAS_NAME>
dipropylcarbamodithioic acid;N-propyl-1-propanamine

> <PUBCHEM_IUPAC_NAME_MARKUP>
dipropylcarbamodithioic acid;<I>N</I>-propylpropan-1-amine

> <PUBCHEM_IUPAC_NAME>
dipropylcarbamodithioic acid;N-propylpropan-1-amine

> <PUBCHEM_IUPAC_SYSTEMATIC_NAME>
dipropylcarbamodithioic acid;N-propylpropan-1-amine

> <PUBCHEM_IUPAC_TRADITIONAL_NAME>
dipropylamine;dipropylcarbamodithioic acid

> <PUBCHEM_IUPAC_INCHI>
InChI=1S/C7H15NS2.C6H15N/c1-3-5-8(6-4-2)7(9)10;1-3-5-7-6-4-2/h3-6H2,1-2H3,(H,9,10);7H,3-6H2,1-2H3

> <PUBCHEM_IUPAC_INCHIKEY>
ORCDVBWTAMOXKN-UHFFFAOYSA-N

> <PUBCHEM_EXACT_MASS>
278.18504131

> <PUBCHEM_MOLECULAR_FORMULA>
C13H30N2S2

> <PUBCHEM_MOLECULAR_WEIGHT>
278.5

> <PUBCHEM_OPENEYE_CAN_SMILES>
CCCNCCC.CCCN(CCC)C(=S)S

> <PUBCHEM_OPENEYE_ISO_SMILES>
CCCNCCC.CCCN(CCC)C(=S)S

> <PUBCHEM_CACTVS_TPSA>
48.4

> <PUBCHEM_MONOISOTOPIC_WEIGHT>
278.18504131

> <PUBCHEM_TOTAL_CHARGE>
0

> <PUBCHEM_HEAVY_ATOM_COUNT>
17

> <PUBCHEM_ATOM_DEF_STEREO_COUNT>
0

> <PUBCHEM_ATOM_UDEF_STEREO_COUNT>
0

> <PUBCHEM_BOND_DEF_STEREO_COUNT>
0

> <PUBCHEM_BOND_UDEF_STEREO_COUNT>
0

> <PUBCHEM_ISOTOPIC_ATOM_COUNT>
0

> <PUBCHEM_COMPONENT_COUNT>
2

> <PUBCHEM_CACTVS_TAUTO_COUNT>
-1

> <PUBCHEM_COORDINATE_TYPE>
1
5
255

$$$$
