7001
  -OEChem-11012401223D

 18 19  0     0  0  0  0  0  0999 V2000
   -2.1440   -2.4393   -0.0004 Br  0  0  0  0  0  0  0  0  0  0  0  0
   -0.0123   -0.4264    0.0002 C   0  0  0  0  0  0  0  0  0  0  0  0
    0.4411    0.9143    0.0001 C   0  0  0  0  0  0  0  0  0  0  0  0
   -1.3927   -0.6845    0.0003 C   0  0  0  0  0  0  0  0  0  0  0  0
   -0.4994    1.9572    0.0000 C   0  0  0  0  0  0  0  0  0  0  0  0
    0.9282   -1.4694    0.0003 C   0  0  0  0  0  0  0  0  0  0  0  0
    1.8216    1.1725   -0.0001 C   0  0  0  0  0  0  0  0  0  0  0  0
   -2.3131    0.3639    0.0000 C   0  0  0  0  0  0  0  0  0  0  0  0
   -1.8673    1.6824   -0.0002 C   0  0  0  0  0  0  0  0  0  0  0  0
    2.2960   -1.1946    0.0000 C   0  0  0  0  0  0  0  0  0  0  0  0
    2.7418    0.1238   -0.0002 C   0  0  0  0  0  0  0  0  0  0  0  0
   -0.1737    2.9954   -0.0002 H   0  0  0  0  0  0  0  0  0  0  0  0
    0.6390   -2.5161    0.0005 H   0  0  0  0  0  0  0  0  0  0  0  0
    2.1928    2.1953   -0.0003 H   0  0  0  0  0  0  0  0  0  0  0  0
   -3.3839    0.1756   -0.0001 H   0  0  0  0  0  0  0  0  0  0  0  0
   -2.5840    2.4984   -0.0004 H   0  0  0  0  0  0  0  0  0  0  0  0
    3.0136   -2.0100   -0.0001 H   0  0  0  0  0  0  0  0  0  0  0  0
    3.8068    0.3371   -0.0004 H   0  0  0  0  0  0  0  0  0  0  0  0
  1  4  1  0  0  0  0
  2  3  1  0  0  0  0
  2  4  1  0  0  0  0
  2  6  2  0  0  0  0
  3  5  1  0  0  0  0
  3  7  2  0  0  0  0
  4  8  2  0  0  0  0
  5  9  2  0  0  0  0
  5 12  1  0  0  0  0
  6 10  1  0  0  0  0
  6 13  1  0  0  0  0
  7 11  1  0  0  0  0
  7 14  1  0  0  0  0
  8  9  1  0  0  0  0
  8 15  1  0  0  0  0
  9 16  1  0  0  0  0
 10 11  2  0  0  0  0
 10 17  1  0  0  0  0
 11 18  1  0  0  0  0
M  END
> <PUBCHEM_COMPOUND_CID>
7001

> <PUBCHEM_CONFORMER_RMSD>
0.4

> <PUBCHEM_CONFORMER_DIVERSEORDER>
1

> <PUBCHEM_MMFF94_PARTIAL_CHARGES>
16
1 -0.11
10 -0.15
11 -0.15
12 0.15
13 0.15
14 0.15
15 0.15
16 0.15
17 0.15
18 0.15
4 0.11
5 -0.15
6 -0.15
7 -0.15
8 -0.15
9 -0.15

> <PUBCHEM_EFFECTIVE_ROTOR_COUNT>
0

> <PUBCHEM_PHARMACOPHORE_FEATURES>
3
1 1 hydrophobe
6 2 3 4 5 8 9 rings
6 2 3 6 7 10 11 rings

> <PUBCHEM_HEAVY_ATOM_COUNT>
11

> <PUBCHEM_ATOM_DEF_STEREO_COUNT>
0

> <PUBCHEM_ATOM_UDEF_STEREO_COUNT>
0

> <PUBCHEM_BOND_DEF_STEREO_COUNT>
0

> <PUBCHEM_BOND_UDEF_STEREO_COUNT>
0

> <PUBCHEM_ISOTOPIC_ATOM_COUNT>
0

> <PUBCHEM_COMPONENT_COUNT>
1

> <PUBCHEM_CACTVS_TAUTO_COUNT>
1

> <PUBCHEM_CONFORMER_ID>
00001B5900000001

> <PUBCHEM_MMFF94_ENERGY>
33.021

> <PUBCHEM_FEATURE_SELFOVERLAP>
15.249

> <PUBCHEM_SHAPE_FINGERPRINT>
10967382 1 18266458711297698563
11206711 2 18264773331665411310
12524768 44 18340772520296622879
13380535 76 18268703922568371791
16945 1 18410573942302108900
193761 8 18266741466317263617
19973954 147 18410576188659584564
20871998 184 18201721781652390975
21040471 1 18266458702755275712
21501502 16 18410013268617986010
2334 1 18194682793983795714
23552423 10 18260832630625927492
23559900 14 18055077563300907462
241688 4 18338233894103446985
2748010 2 18267581488652430406
5084963 1 17914324676363547169
528886 8 18411413999192374768
66348 1 18411417349240556751

> <PUBCHEM_SHAPE_MULTIPOLES>
232.32
3.66
2.46
0.63
0.58
0.14
0
1.08
0
-1.2
0
-0.03
0.03
0

> <PUBCHEM_SHAPE_SELFOVERLAP>
494.614

> <PUBCHEM_SHAPE_VOLUME>
131

> <PUBCHEM_COORDINATE_TYPE>
2
5
10

$$$$
