92975330
  -OEChem-11012400423D

 30 30  0     1  0  0  0  0  0999 V2000
   -4.1702    0.1630   -0.1621 N   0  0  0  0  0  0  0  0  0  0  0  0
    0.8688    0.6731    0.0015 C   0  0  0  0  0  0  0  0  0  0  0  0
   -0.4189   -0.1251    0.3710 C   0  0  2  0  0  0  0  0  0  0  0  0
   -0.1653   -1.5565   -0.1214 C   0  0  0  0  0  0  0  0  0  0  0  0
    1.8994   -0.4424    0.0227 C   0  0  0  0  0  0  0  0  0  0  0  0
   -1.7385    0.4395   -0.1404 C   0  0  0  0  0  0  0  0  0  0  0  0
    1.3218   -1.6500   -0.0516 C   0  0  0  0  0  0  0  0  0  0  0  0
    0.8186    1.3137   -1.3949 C   0  0  0  0  0  0  0  0  0  0  0  0
    1.1401    1.7571    1.0536 C   0  0  0  0  0  0  0  0  0  0  0  0
   -2.9223   -0.3846    0.3562 C   0  0  0  0  0  0  0  0  0  0  0  0
    3.3664   -0.1877    0.0655 C   0  0  0  0  0  0  0  0  0  0  0  0
   -0.4860   -0.1717    1.4702 H   0  0  0  0  0  0  0  0  0  0  0  0
   -0.5068   -1.7247   -1.1482 H   0  0  0  0  0  0  0  0  0  0  0  0
   -0.6349   -2.2921    0.5390 H   0  0  0  0  0  0  0  0  0  0  0  0
   -1.7488    0.4550   -1.2374 H   0  0  0  0  0  0  0  0  0  0  0  0
   -1.8464    1.4780    0.1968 H   0  0  0  0  0  0  0  0  0  0  0  0
    1.8597   -2.5868   -0.0895 H   0  0  0  0  0  0  0  0  0  0  0  0
    0.0626    2.1050   -1.4442 H   0  0  0  0  0  0  0  0  0  0  0  0
    0.5862    0.5777   -2.1731 H   0  0  0  0  0  0  0  0  0  0  0  0
    1.7795    1.7723   -1.6558 H   0  0  0  0  0  0  0  0  0  0  0  0
    0.3123    2.4730    1.1025 H   0  0  0  0  0  0  0  0  0  0  0  0
    2.0505    2.3211    0.8205 H   0  0  0  0  0  0  0  0  0  0  0  0
    1.2681    1.3263    2.0534 H   0  0  0  0  0  0  0  0  0  0  0  0
   -2.9539   -0.3850    1.4513 H   0  0  0  0  0  0  0  0  0  0  0  0
   -2.8449   -1.4242    0.0237 H   0  0  0  0  0  0  0  0  0  0  0  0
    3.6740    0.4462   -0.7714 H   0  0  0  0  0  0  0  0  0  0  0  0
    3.9376   -1.1200    0.0027 H   0  0  0  0  0  0  0  0  0  0  0  0
    3.6449    0.3084    1.0001 H   0  0  0  0  0  0  0  0  0  0  0  0
   -4.2849    1.1227    0.1614 H   0  0  0  0  0  0  0  0  0  0  0  0
   -4.9549   -0.3629    0.2204 H   0  0  0  0  0  0  0  0  0  0  0  0
  1 10  1  0  0  0  0
  1 29  1  0  0  0  0
  1 30  1  0  0  0  0
  2  3  1  0  0  0  0
  2  5  1  0  0  0  0
  2  8  1  0  0  0  0
  2  9  1  0  0  0  0
  3  4  1  0  0  0  0
  3  6  1  0  0  0  0
  3 12  1  0  0  0  0
  4  7  1  0  0  0  0
  4 13  1  0  0  0  0
  4 14  1  0  0  0  0
  5  7  2  0  0  0  0
  5 11  1  0  0  0  0
  6 10  1  0  0  0  0
  6 15  1  0  0  0  0
  6 16  1  0  0  0  0
  7 17  1  0  0  0  0
  8 18  1  0  0  0  0
  8 19  1  0  0  0  0
  8 20  1  0  0  0  0
  9 21  1  0  0  0  0
  9 22  1  0  0  0  0
  9 23  1  0  0  0  0
 10 24  1  0  0  0  0
 10 25  1  0  0  0  0
 11 26  1  0  0  0  0
 11 27  1  0  0  0  0
 11 28  1  0  0  0  0
M  END
> <PUBCHEM_COMPOUND_CID>
92975330

> <PUBCHEM_CONFORMER_RMSD>
0.6

> <PUBCHEM_CONFORMER_DIVERSEORDER>
1
7
3
6
5
4
2

> <PUBCHEM_MMFF94_PARTIAL_CHARGES>
10
1 -0.99
10 0.27
11 0.14
17 0.15
2 0.14
29 0.36
30 0.36
4 0.14
5 -0.28
7 -0.29

> <PUBCHEM_EFFECTIVE_ROTOR_COUNT>
2.6

> <PUBCHEM_PHARMACOPHORE_FEATURES>
4
1 1 cation
1 1 donor
3 2 8 9 hydrophobe
5 2 3 4 5 7 rings

> <PUBCHEM_HEAVY_ATOM_COUNT>
11

> <PUBCHEM_ATOM_DEF_STEREO_COUNT>
1

> <PUBCHEM_ATOM_UDEF_STEREO_COUNT>
0

> <PUBCHEM_BOND_DEF_STEREO_COUNT>
0

> <PUBCHEM_BOND_UDEF_STEREO_COUNT>
0

> <PUBCHEM_ISOTOPIC_ATOM_COUNT>
0

> <PUBCHEM_COMPONENT_COUNT>
1

> <PUBCHEM_CACTVS_TAUTO_COUNT>
1

> <PUBCHEM_CONFORMER_ID>
058AB0E200000001

> <PUBCHEM_MMFF94_ENERGY>
19.6414

> <PUBCHEM_FEATURE_SELFOVERLAP>
20.297

> <PUBCHEM_SHAPE_FINGERPRINT>
10219947 1 18333734606565238542
12032990 46 18340775836317622710
12423570 1 18186519899837887508
13922767 16 18413384341446744857
14325111 11 18339360872273862483
14344429 50 18202286930523442512
14993402 34 18261121776646370118
15775835 57 18271810167755545285
16945 1 18342163467141226418
193761 8 17836363027239202266
20201158 50 18334579014621670995
20511035 2 18121504810730258622
21040471 1 18050009084134353018
23235685 24 18334009514473591687
23402655 69 18340476761092220277
2748010 2 18124036998725019650
29004967 10 18041287573382841938
5084963 1 18187648028637662305
528886 8 18041000682584168348
53812653 166 18341607152954404298
68250623 7 16591144071342479866

> <PUBCHEM_SHAPE_MULTIPOLES>
221.39
4.72
1.63
0.92
4.35
0.03
-0.13
0.22
0.13
-0.7
0.04
-0.22
-0.41
0.11

> <PUBCHEM_SHAPE_SELFOVERLAP>
437.33

> <PUBCHEM_SHAPE_VOLUME>
135.1

> <PUBCHEM_COORDINATE_TYPE>
2
5
10

$$$$
