14794987
  -OEChem-11012401133D

 14 14  0     0  0  0  0  0  0999 V2000
    0.3992    1.1417    0.0741 N   0  0  0  0  0  0  0  0  0  0  0  0
    1.6367    0.6951   -0.1949 N   0  0  0  0  0  0  0  0  0  0  0  0
    1.8532   -0.6301   -0.1978 N   0  0  0  0  0  0  0  0  0  0  0  0
   -1.6812   -0.0267    0.5937 C   0  0  0  0  0  0  0  0  0  0  0  0
   -0.2498   -0.0104    0.2647 C   0  0  0  0  0  0  0  0  0  0  0  0
   -2.5915   -0.0830   -0.6394 C   0  0  0  0  0  0  0  0  0  0  0  0
    0.6334   -1.0866    0.0996 C   0  0  0  0  0  0  0  0  0  0  0  0
   -1.9017   -0.8924    1.2305 H   0  0  0  0  0  0  0  0  0  0  0  0
   -1.9423    0.8607    1.1837 H   0  0  0  0  0  0  0  0  0  0  0  0
   -2.4326    0.7880   -1.2840 H   0  0  0  0  0  0  0  0  0  0  0  0
   -3.6422   -0.0971   -0.3336 H   0  0  0  0  0  0  0  0  0  0  0  0
   -2.3938   -0.9825   -1.2321 H   0  0  0  0  0  0  0  0  0  0  0  0
    0.4595   -2.1497    0.1768 H   0  0  0  0  0  0  0  0  0  0  0  0
    2.3904    1.3439   -0.3918 H   0  0  0  0  0  0  0  0  0  0  0  0
  1  2  1  0  0  0  0
  1  5  2  0  0  0  0
  2  3  1  0  0  0  0
  2 14  1  0  0  0  0
  3  7  2  0  0  0  0
  4  5  1  0  0  0  0
  4  6  1  0  0  0  0
  4  8  1  0  0  0  0
  4  9  1  0  0  0  0
  5  7  1  0  0  0  0
  6 10  1  0  0  0  0
  6 11  1  0  0  0  0
  6 12  1  0  0  0  0
  7 13  1  0  0  0  0
M  END
> <PUBCHEM_COMPOUND_CID>
14794987

> <PUBCHEM_CONFORMER_RMSD>
0.4

> <PUBCHEM_CONFORMER_DIVERSEORDER>
1
2
4
3

> <PUBCHEM_MMFF94_PARTIAL_CHARGES>
8
1 -0.71
13 0.15
14 0.27
2 0.57
3 -0.71
4 0.18
5 0.11
7 0.14

> <PUBCHEM_EFFECTIVE_ROTOR_COUNT>
1

> <PUBCHEM_PHARMACOPHORE_FEATURES>
4
1 1 acceptor
1 3 acceptor
1 6 hydrophobe
5 1 2 3 5 7 rings

> <PUBCHEM_HEAVY_ATOM_COUNT>
7

> <PUBCHEM_ATOM_DEF_STEREO_COUNT>
0

> <PUBCHEM_ATOM_UDEF_STEREO_COUNT>
0

> <PUBCHEM_BOND_DEF_STEREO_COUNT>
0

> <PUBCHEM_BOND_UDEF_STEREO_COUNT>
0

> <PUBCHEM_ISOTOPIC_ATOM_COUNT>
0

> <PUBCHEM_COMPONENT_COUNT>
1

> <PUBCHEM_CACTVS_TAUTO_COUNT>
3

> <PUBCHEM_CONFORMER_ID>
00E1C0EB00000001

> <PUBCHEM_MMFF94_ENERGY>
0.454

> <PUBCHEM_FEATURE_SELFOVERLAP>
20.346

> <PUBCHEM_SHAPE_FINGERPRINT>
20096714 4 18338241577641670720
21040471 1 18265055919196887272
24536 1 18408325497047714721
29004967 10 18336272275054417971
5460574 1 8862944970102240243

> <PUBCHEM_SHAPE_MULTIPOLES>
129.11
2.91
1.03
0.72
1.32
0.01
-0.01
-0.12
0.56
-0.37
0
0.27
-0.02
-0.02

> <PUBCHEM_SHAPE_SELFOVERLAP>
256.722

> <PUBCHEM_SHAPE_VOLUME>
77.3

> <PUBCHEM_COORDINATE_TYPE>
2
5
10

$$$$
