6793
  -OEChem-11012400343D

 24 25  0     0  0  0  0  0  0999 V2000
    2.6100    0.3702   -0.0775 S   0  0  0  0  0  0  0  0  0  0  0  0
    2.7464    1.0557    1.3973 O   0  0  0  0  0  0  0  0  0  0  0  0
    3.6512   -0.6366   -0.1830 O   0  0  0  0  0  0  0  0  0  0  0  0
    2.4855    1.4271   -1.0643 O   0  0  0  0  0  0  0  0  0  0  0  0
   -3.8283   -0.5652    0.0486 N   0  0  0  0  0  0  0  0  0  0  0  0
   -0.1663    0.2096   -0.0262 C   0  0  0  0  0  0  0  0  0  0  0  0
   -1.3666   -0.5396    0.0021 C   0  0  0  0  0  0  0  0  0  0  0  0
    1.0647   -0.4663   -0.0437 C   0  0  0  0  0  0  0  0  0  0  0  0
   -2.5976    0.1359    0.0193 C   0  0  0  0  0  0  0  0  0  0  0  0
   -0.2325    1.6124   -0.0363 C   0  0  0  0  0  0  0  0  0  0  0  0
   -1.3006   -1.9425    0.0118 C   0  0  0  0  0  0  0  0  0  0  0  0
    1.1118   -1.8607   -0.0331 C   0  0  0  0  0  0  0  0  0  0  0  0
   -0.0687   -2.5975   -0.0057 C   0  0  0  0  0  0  0  0  0  0  0  0
   -2.6447    1.5303    0.0093 C   0  0  0  0  0  0  0  0  0  0  0  0
   -1.4643    2.2671   -0.0186 C   0  0  0  0  0  0  0  0  0  0  0  0
    0.6364    2.2577   -0.0080 H   0  0  0  0  0  0  0  0  0  0  0  0
   -2.1854   -2.5711    0.0334 H   0  0  0  0  0  0  0  0  0  0  0  0
    2.0474   -2.4113   -0.0425 H   0  0  0  0  0  0  0  0  0  0  0  0
   -0.0315   -3.6831    0.0031 H   0  0  0  0  0  0  0  0  0  0  0  0
   -3.5963    2.0558    0.0255 H   0  0  0  0  0  0  0  0  0  0  0  0
   -1.5024    3.3527   -0.0152 H   0  0  0  0  0  0  0  0  0  0  0  0
   -3.8752   -1.5725    0.0540 H   0  0  0  0  0  0  0  0  0  0  0  0
   -4.6935   -0.0400    0.0589 H   0  0  0  0  0  0  0  0  0  0  0  0
    2.7619    0.4271    2.1568 H   0  0  0  0  0  0  0  0  0  0  0  0
  1  2  1  0  0  0  0
  1  3  2  0  0  0  0
  1  4  2  0  0  0  0
  1  8  1  0  0  0  0
  2 24  1  0  0  0  0
  5  9  1  0  0  0  0
  5 22  1  0  0  0  0
  5 23  1  0  0  0  0
  6  7  2  0  0  0  0
  6  8  1  0  0  0  0
  6 10  1  0  0  0  0
  7  9  1  0  0  0  0
  7 11  1  0  0  0  0
  8 12  2  0  0  0  0
  9 14  2  0  0  0  0
 10 15  2  0  0  0  0
 10 16  1  0  0  0  0
 11 13  2  0  0  0  0
 11 17  1  0  0  0  0
 12 13  1  0  0  0  0
 12 18  1  0  0  0  0
 13 19  1  0  0  0  0
 14 15  1  0  0  0  0
 14 20  1  0  0  0  0
 15 21  1  0  0  0  0
M  END
> <PUBCHEM_COMPOUND_CID>
6793

> <PUBCHEM_CONFORMER_RMSD>
0.4

> <PUBCHEM_CONFORMER_DIVERSEORDER>
1
2
3

> <PUBCHEM_MMFF94_PARTIAL_CHARGES>
22
1 1.49
10 -0.15
11 -0.15
12 -0.15
13 -0.15
14 -0.15
15 -0.15
16 0.15
17 0.15
18 0.15
19 0.15
2 -0.68
20 0.15
21 0.15
22 0.4
23 0.4
24 0.5
3 -0.65
4 -0.65
5 -0.9
8 -0.01
9 0.1

> <PUBCHEM_EFFECTIVE_ROTOR_COUNT>
1

> <PUBCHEM_PHARMACOPHORE_FEATURES>
8
1 2 acceptor
1 3 acceptor
1 4 acceptor
1 5 cation
1 5 donor
4 1 2 3 4 anion
6 6 7 8 11 12 13 rings
6 6 7 9 10 14 15 rings

> <PUBCHEM_HEAVY_ATOM_COUNT>
15

> <PUBCHEM_ATOM_DEF_STEREO_COUNT>
0

> <PUBCHEM_ATOM_UDEF_STEREO_COUNT>
0

> <PUBCHEM_BOND_DEF_STEREO_COUNT>
0

> <PUBCHEM_BOND_UDEF_STEREO_COUNT>
0

> <PUBCHEM_ISOTOPIC_ATOM_COUNT>
0

> <PUBCHEM_COMPONENT_COUNT>
1

> <PUBCHEM_CACTVS_TAUTO_COUNT>
1

> <PUBCHEM_CONFORMER_ID>
00001A8900000001

> <PUBCHEM_MMFF94_ENERGY>
51.8057

> <PUBCHEM_FEATURE_SELFOVERLAP>
40.678

> <PUBCHEM_SHAPE_FINGERPRINT>
108231 29 18272369801820459337
10967382 1 18338237179716478877
11132069 177 18340198682769735859
12423570 1 11811739532624826370
13140716 1 18050287265182377929
13380535 21 18124323705193442961
13380535 76 18337671906117503423
13538477 17 18114742767101234094
13897977 150 18194117417780267997
14614273 12 18188485753645854557
15775835 57 18270404867045913785
16945 1 18338516442874715837
17804303 29 18340485561311319922
1813 80 16806718483704410458
193761 8 17977948982088855239
20510252 161 18343865515235934096
20645476 183 17678193782610519326
21028194 46 18343021073283694386
21501502 16 18122342380929301643
21524375 3 18341332214644046503
22802520 49 18201174225088553286
2334 1 17618222149376333989
23402539 116 18342165691834156831
23419403 2 15382372564433735961
23463225 33 18334294232314212538
23493267 7 17749394732525639697
23552423 10 18120096083074224071
23559900 14 18201159872209611622
2748010 2 18265618680361651759
43471831 8 18335136432304073091
528886 8 18410571811982570915
537710 114 18336834190295390669
53812653 166 18270116795078551336
54173680 148 18264774435488421370
7364860 26 17910674267621025054
81228 2 18051967314296397779

> <PUBCHEM_SHAPE_MULTIPOLES>
289.95
4.89
2.55
0.76
0.67
0.63
-0.08
-1.01
-0.09
-0.44
0.05
0.41
-0.2
0.05

> <PUBCHEM_SHAPE_SELFOVERLAP>
623.418

> <PUBCHEM_SHAPE_VOLUME>
160.3

> <PUBCHEM_COORDINATE_TYPE>
2
5
10

$$$$
