141836
  -OEChem-11012400533D

 77 81  0     0  0  0  0  0  0999 V2000
   -3.5957    1.2482   -2.1548 O   0  0  0  0  0  0  0  0  0  0  0  0
   -5.0085   -0.4657   -2.7790 O   0  0  0  0  0  0  0  0  0  0  0  0
    1.3573   -1.9546   -0.3105 N   0  0  0  0  0  0  0  0  0  0  0  0
    2.1192    0.9555   -0.0948 N   0  0  0  0  0  0  0  0  0  0  0  0
   -1.3050   -1.0843    0.8409 N   0  0  0  0  0  0  0  0  0  0  0  0
   -0.6392    1.7163    0.5744 N   0  0  0  0  0  0  0  0  0  0  0  0
    2.9440   -3.2496    0.5292 C   0  0  0  0  0  0  0  0  0  0  0  0
    2.7095   -2.0238   -0.0645 C   0  0  0  0  0  0  0  0  0  0  0  0
    1.6999   -3.9181    0.6569 C   0  0  0  0  0  0  0  0  0  0  0  0
    0.7244   -3.0878    0.1444 C   0  0  0  0  0  0  0  0  0  0  0  0
    3.2624    0.3184   -0.5111 C   0  0  0  0  0  0  0  0  0  0  0  0
    3.4858    2.5771   -0.8701 C   0  0  0  0  0  0  0  0  0  0  0  0
    4.1384    1.3973   -1.0021 C   0  0  0  0  0  0  0  0  0  0  0  0
   -3.6006   -1.2375    0.3967 C   0  0  0  0  0  0  0  0  0  0  0  0
    2.1682    2.3151   -0.2749 C   0  0  0  0  0  0  0  0  0  0  0  0
   -3.0010   -2.3643   -0.0153 C   0  0  0  0  0  0  0  0  0  0  0  0
    3.5796   -0.9878   -0.4939 C   0  0  0  0  0  0  0  0  0  0  0  0
   -1.5720   -2.2921    0.2363 C   0  0  0  0  0  0  0  0  0  0  0  0
   -2.4561   -0.4804    0.9529 C   0  0  0  0  0  0  0  0  0  0  0  0
    4.2608   -3.7800    0.9458 C   0  0  0  0  0  0  0  0  0  0  0  0
   -0.6686   -3.2411   -0.0621 C   0  0  0  0  0  0  0  0  0  0  0  0
   -5.0054   -0.7899    0.2655 C   0  0  0  0  0  0  0  0  0  0  0  0
   -2.6601    0.8464    1.6090 C   0  0  0  0  0  0  0  0  0  0  0  0
    3.9482    3.9474   -1.2299 C   0  0  0  0  0  0  0  0  0  0  0  0
    1.2506    3.2427    0.0356 C   0  0  0  0  0  0  0  0  0  0  0  0
   -1.7579    1.8184    1.3732 C   0  0  0  0  0  0  0  0  0  0  0  0
   -0.0279    2.8620    0.6781 C   0  0  0  0  0  0  0  0  0  0  0  0
    1.4890   -5.2661    1.2268 C   0  0  0  0  0  0  0  0  0  0  0  0
    5.5024    1.1448   -1.5480 C   0  0  0  0  0  0  0  0  0  0  0  0
   -0.7197    3.8577    1.5129 C   0  0  0  0  0  0  0  0  0  0  0  0
   -3.6407   -3.5374   -0.6800 C   0  0  0  0  0  0  0  0  0  0  0  0
   -5.1299    0.5002   -0.5497 C   0  0  0  0  0  0  0  0  0  0  0  0
   -1.7793    3.1557    1.9214 C   0  0  0  0  0  0  0  0  0  0  0  0
    4.9702   -4.5636   -0.1601 C   0  0  0  0  0  0  0  0  0  0  0  0
   -3.8078    0.9860    2.5685 C   0  0  0  0  0  0  0  0  0  0  0  0
    4.6676    4.6268   -0.0766 C   0  0  0  0  0  0  0  0  0  0  0  0
   -0.3141    5.2438    1.8163 C   0  0  0  0  0  0  0  0  0  0  0  0
   -4.6001    0.3434   -1.9572 C   0  0  0  0  0  0  0  0  0  0  0  0
   -2.9876    1.2210   -3.4501 C   0  0  0  0  0  0  0  0  0  0  0  0
    0.8947   -1.1935   -0.7892 H   0  0  0  0  0  0  0  0  0  0  0  0
    4.5684   -1.3010   -0.8189 H   0  0  0  0  0  0  0  0  0  0  0  0
    1.3416    0.4922    0.3486 H   0  0  0  0  0  0  0  0  0  0  0  0
    4.1466   -4.4301    1.8215 H   0  0  0  0  0  0  0  0  0  0  0  0
    4.9118   -2.9585    1.2696 H   0  0  0  0  0  0  0  0  0  0  0  0
   -0.9932   -4.1888   -0.4833 H   0  0  0  0  0  0  0  0  0  0  0  0
   -5.4626   -0.6574    1.2504 H   0  0  0  0  0  0  0  0  0  0  0  0
   -5.6101   -1.5598   -0.2260 H   0  0  0  0  0  0  0  0  0  0  0  0
    4.6365    3.8918   -2.0821 H   0  0  0  0  0  0  0  0  0  0  0  0
    3.1193    4.5716   -1.5811 H   0  0  0  0  0  0  0  0  0  0  0  0
    1.4258    4.2992   -0.1297 H   0  0  0  0  0  0  0  0  0  0  0  0
    0.4382   -5.5702    1.1936 H   0  0  0  0  0  0  0  0  0  0  0  0
    2.0669   -6.0130    0.6729 H   0  0  0  0  0  0  0  0  0  0  0  0
    1.8066   -5.2931    2.2744 H   0  0  0  0  0  0  0  0  0  0  0  0
    6.0055    2.0701   -1.8434 H   0  0  0  0  0  0  0  0  0  0  0  0
    5.4516    0.5015   -2.4325 H   0  0  0  0  0  0  0  0  0  0  0  0
    6.1347    0.6592   -0.7974 H   0  0  0  0  0  0  0  0  0  0  0  0
   -3.2246   -3.6854   -1.6823 H   0  0  0  0  0  0  0  0  0  0  0  0
   -3.4724   -4.4483   -0.0955 H   0  0  0  0  0  0  0  0  0  0  0  0
   -4.7219   -3.4249   -0.7920 H   0  0  0  0  0  0  0  0  0  0  0  0
   -6.1878    0.7765   -0.6382 H   0  0  0  0  0  0  0  0  0  0  0  0
   -4.6452    1.3553   -0.0748 H   0  0  0  0  0  0  0  0  0  0  0  0
   -2.5502    3.5384    2.5732 H   0  0  0  0  0  0  0  0  0  0  0  0
    5.1505   -3.9338   -1.0376 H   0  0  0  0  0  0  0  0  0  0  0  0
    5.9357   -4.9333    0.1988 H   0  0  0  0  0  0  0  0  0  0  0  0
    4.3728   -5.4236   -0.4803 H   0  0  0  0  0  0  0  0  0  0  0  0
   -4.6748    1.4663    2.1099 H   0  0  0  0  0  0  0  0  0  0  0  0
   -4.1074    0.0140    2.9740 H   0  0  0  0  0  0  0  0  0  0  0  0
   -3.5216    1.5850    3.4402 H   0  0  0  0  0  0  0  0  0  0  0  0
    4.0073    4.7531    0.7879 H   0  0  0  0  0  0  0  0  0  0  0  0
    5.0145    5.6194   -0.3815 H   0  0  0  0  0  0  0  0  0  0  0  0
    5.5416    4.0497    0.2438 H   0  0  0  0  0  0  0  0  0  0  0  0
   -1.0156    5.7202    2.5090 H   0  0  0  0  0  0  0  0  0  0  0  0
    0.6773    5.2646    2.2793 H   0  0  0  0  0  0  0  0  0  0  0  0
   -0.2856    5.8468    0.9034 H   0  0  0  0  0  0  0  0  0  0  0  0
   -2.5291    0.2443   -3.6317 H   0  0  0  0  0  0  0  0  0  0  0  0
   -2.2060    1.9851   -3.4742 H   0  0  0  0  0  0  0  0  0  0  0  0
   -3.7287    1.4510   -4.2215 H   0  0  0  0  0  0  0  0  0  0  0  0
  1 38  1  0  0  0  0
  1 39  1  0  0  0  0
  2 38  2  0  0  0  0
  3  8  1  0  0  0  0
  3 10  1  0  0  0  0
  3 40  1  0  0  0  0
  4 11  1  0  0  0  0
  4 15  1  0  0  0  0
  4 42  1  0  0  0  0
  5 18  1  0  0  0  0
  5 19  2  0  0  0  0
  6 26  1  0  0  0  0
  6 27  2  0  0  0  0
  7  8  2  0  0  0  0
  7  9  1  0  0  0  0
  7 20  1  0  0  0  0
  8 17  1  0  0  0  0
  9 10  2  0  0  0  0
  9 28  1  0  0  0  0
 10 21  1  0  0  0  0
 11 13  1  0  0  0  0
 11 17  2  0  0  0  0
 12 13  2  0  0  0  0
 12 15  1  0  0  0  0
 12 24  1  0  0  0  0
 13 29  1  0  0  0  0
 14 16  2  0  0  0  0
 14 19  1  0  0  0  0
 14 22  1  0  0  0  0
 15 25  2  0  0  0  0
 16 18  1  0  0  0  0
 16 31  1  0  0  0  0
 17 41  1  0  0  0  0
 18 21  2  0  0  0  0
 19 23  1  0  0  0  0
 20 34  1  0  0  0  0
 20 43  1  0  0  0  0
 20 44  1  0  0  0  0
 21 45  1  0  0  0  0
 22 32  1  0  0  0  0
 22 46  1  0  0  0  0
 22 47  1  0  0  0  0
 23 26  2  0  0  0  0
 23 35  1  0  0  0  0
 24 36  1  0  0  0  0
 24 48  1  0  0  0  0
 24 49  1  0  0  0  0
 25 27  1  0  0  0  0
 25 50  1  0  0  0  0
 26 33  1  0  0  0  0
 27 30  1  0  0  0  0
 28 51  1  0  0  0  0
 28 52  1  0  0  0  0
 28 53  1  0  0  0  0
 29 54  1  0  0  0  0
 29 55  1  0  0  0  0
 29 56  1  0  0  0  0
 30 33  2  0  0  0  0
 30 37  1  0  0  0  0
 31 57  1  0  0  0  0
 31 58  1  0  0  0  0
 31 59  1  0  0  0  0
 32 38  1  0  0  0  0
 32 60  1  0  0  0  0
 32 61  1  0  0  0  0
 33 62  1  0  0  0  0
 34 63  1  0  0  0  0
 34 64  1  0  0  0  0
 34 65  1  0  0  0  0
 35 66  1  0  0  0  0
 35 67  1  0  0  0  0
 35 68  1  0  0  0  0
 36 69  1  0  0  0  0
 36 70  1  0  0  0  0
 36 71  1  0  0  0  0
 37 72  1  0  0  0  0
 37 73  1  0  0  0  0
 37 74  1  0  0  0  0
 39 75  1  0  0  0  0
 39 76  1  0  0  0  0
 39 77  1  0  0  0  0
M  END
> <PUBCHEM_COMPOUND_CID>
141836

> <PUBCHEM_CONFORMER_RMSD>
1

> <PUBCHEM_CONFORMER_DIVERSEORDER>
1
2
6
5
3
4

> <PUBCHEM_MMFF94_PARTIAL_CHARGES>
43
1 -0.43
10 -0.2
11 0.1
12 -0.14
13 -0.14
14 -0.12
15 0.1
16 -0.14
17 -0.11
18 0.17
19 0.42
2 -0.57
20 0.18
21 -0.11
22 0.14
23 -0.12
24 0.14
25 -0.14
26 0.17
27 0.42
28 0.18
29 0.14
3 0.03
30 -0.12
31 0.14
32 0.06
33 -0.15
35 0.14
37 0.14
38 0.66
39 0.28
4 -0.6
40 0.27
41 0.15
42 0.4
45 0.15
5 -0.62
50 0.15
6 -0.62
62 0.15
7 -0.18
8 -0.2
9 -0.18

> <PUBCHEM_EFFECTIVE_ROTOR_COUNT>
6

> <PUBCHEM_PHARMACOPHORE_FEATURES>
13
1 2 acceptor
1 3 cation
1 3 donor
1 34 hydrophobe
1 36 hydrophobe
1 4 cation
1 4 donor
1 5 acceptor
1 6 acceptor
5 3 7 8 9 10 rings
5 4 11 12 13 15 rings
5 5 14 16 18 19 rings
5 6 26 27 30 33 rings

> <PUBCHEM_HEAVY_ATOM_COUNT>
39

> <PUBCHEM_ATOM_DEF_STEREO_COUNT>
0

> <PUBCHEM_ATOM_UDEF_STEREO_COUNT>
0

> <PUBCHEM_BOND_DEF_STEREO_COUNT>
0

> <PUBCHEM_BOND_UDEF_STEREO_COUNT>
0

> <PUBCHEM_ISOTOPIC_ATOM_COUNT>
0

> <PUBCHEM_COMPONENT_COUNT>
1

> <PUBCHEM_CACTVS_TAUTO_COUNT>
6

> <PUBCHEM_CONFORMER_ID>
00022A0C00000001

> <PUBCHEM_MMFF94_ENERGY>
99.8631

> <PUBCHEM_FEATURE_SELFOVERLAP>
65.974

> <PUBCHEM_SHAPE_FINGERPRINT>
10032420 55 17838330044766567327
10190206 1 18265357079021494764
10290309 65 18191873538049664022
10675989 125 18409449176362117265
11135926 11 18335433365495582532
11513181 2 17770791104422786998
12156800 1 16667641158078095968
12788726 201 17845661343931073393
13560911 43 18041837290452821499
140371 6 18266736870439149554
14068700 675 18054204562760741119
14117953 113 17690851059827053349
14415360 78 17907573984697966197
14725015 67 17259057923210508506
14931854 50 17981334695906998311
15324884 4 16749015408856299635
15351339 4 18124033691726783330
16067689 391 17267278748745640436
16628084 112 18266469707153143681
17627616 140 18336551633034673610
19311894 1 18128555927418165862
19319366 153 18268140028001811804
20764821 26 18411417336355654873
2132832 1 18196082253380026194
21796203 349 17473035698099857442
3388396 114 18342171155254466980
3729539 64 18410288112951123285
3882209 13 17756684374585791058
437795 70 17839786666626547302
45266715 3 17769631407592293153
463206 1 18269854162113020321
46939830 39 12983675695138519693
50150288 127 17559417806623275209
5265222 85 17829057850383419725
57527295 17 18058438980473069605

> <PUBCHEM_SHAPE_MULTIPOLES>
770.94
10.71
8.02
2.14
0.3
1.19
1.19
0.6
4.84
9.3
-3.19
-3.1
-1.64
-2.53

> <PUBCHEM_SHAPE_SELFOVERLAP>
1683.803

> <PUBCHEM_SHAPE_VOLUME>
425.2

> <PUBCHEM_COORDINATE_TYPE>
2
5
10

$$$$
