2723843
  -OEChem-11012400503D

 26 26  0     1  0  0  0  0  0999 V2000
    1.2631   -1.2727   -0.2354 O   0  0  0  0  0  0  0  0  0  0  0  0
    0.8482    1.1416    1.4246 O   0  0  0  0  0  0  0  0  0  0  0  0
   -1.3913   -2.0595    0.0127 O   0  0  0  0  0  0  0  0  0  0  0  0
    3.1430    1.6935    0.0825 O   0  0  0  0  0  0  0  0  0  0  0  0
   -3.2058   -0.2503    1.2557 O   0  0  0  0  0  0  0  0  0  0  0  0
    3.5575   -1.1522   -0.1556 O   0  0  0  0  0  0  0  0  0  0  0  0
   -3.9146    1.2167   -0.9616 O   0  0  0  0  0  0  0  0  0  0  0  0
    0.1920   -0.3208   -0.3912 C   0  0  2  0  0  0  0  0  0  0  0  0
    0.8143    1.0070    0.0071 C   0  0  2  0  0  0  0  0  0  0  0  0
   -0.9952   -0.7587    0.4477 C   0  0  1  0  0  0  0  0  0  0  0  0
    2.2169    0.8458   -0.5410 C   0  0  2  0  0  0  0  0  0  0  0  0
   -2.1844    0.2117    0.3644 C   0  0  1  0  0  0  0  0  0  0  0  0
    2.4679   -0.6184   -0.2862 C   0  0  0  0  0  0  0  0  0  0  0  0
   -2.8116    0.3163   -1.0239 C   0  0  0  0  0  0  0  0  0  0  0  0
   -0.0590   -0.3384   -1.4591 H   0  0  0  0  0  0  0  0  0  0  0  0
    0.3003    1.8788   -0.4090 H   0  0  0  0  0  0  0  0  0  0  0  0
   -0.7027   -0.8908    1.4965 H   0  0  0  0  0  0  0  0  0  0  0  0
    2.2360    1.0102   -1.6246 H   0  0  0  0  0  0  0  0  0  0  0  0
   -1.9116    1.2138    0.7098 H   0  0  0  0  0  0  0  0  0  0  0  0
   -3.1962   -0.6476   -1.3717 H   0  0  0  0  0  0  0  0  0  0  0  0
   -2.1051    0.7048   -1.7616 H   0  0  0  0  0  0  0  0  0  0  0  0
   -0.0334    1.4192    1.7227 H   0  0  0  0  0  0  0  0  0  0  0  0
   -0.6159   -2.6421    0.0863 H   0  0  0  0  0  0  0  0  0  0  0  0
    4.0111    1.5303   -0.3238 H   0  0  0  0  0  0  0  0  0  0  0  0
   -2.8278   -0.2641    2.1516 H   0  0  0  0  0  0  0  0  0  0  0  0
   -4.5379    0.8683   -0.3013 H   0  0  0  0  0  0  0  0  0  0  0  0
  1  8  1  0  0  0  0
  1 13  1  0  0  0  0
  2  9  1  0  0  0  0
  2 22  1  0  0  0  0
  3 10  1  0  0  0  0
  3 23  1  0  0  0  0
  4 11  1  0  0  0  0
  4 24  1  0  0  0  0
  5 12  1  0  0  0  0
  5 25  1  0  0  0  0
  6 13  2  0  0  0  0
  7 14  1  0  0  0  0
  7 26  1  0  0  0  0
  8  9  1  0  0  0  0
  8 10  1  0  0  0  0
  8 15  1  0  0  0  0
  9 11  1  0  0  0  0
  9 16  1  0  0  0  0
 10 12  1  0  0  0  0
 10 17  1  0  0  0  0
 11 13  1  0  0  0  0
 11 18  1  0  0  0  0
 12 14  1  0  0  0  0
 12 19  1  0  0  0  0
 14 20  1  0  0  0  0
 14 21  1  0  0  0  0
M  END
> <PUBCHEM_COMPOUND_CID>
2723843

> <PUBCHEM_CONFORMER_RMSD>
0.6

> <PUBCHEM_CONFORMER_DIVERSEORDER>
1
8
2
10
5
9
4
3
7
6

> <PUBCHEM_MMFF94_PARTIAL_CHARGES>
19
1 -0.43
10 0.28
11 0.34
12 0.28
13 0.66
14 0.28
2 -0.68
22 0.4
23 0.4
24 0.4
25 0.4
26 0.4
3 -0.68
4 -0.68
5 -0.68
6 -0.57
7 -0.68
8 0.28
9 0.28

> <PUBCHEM_EFFECTIVE_ROTOR_COUNT>
3.8

> <PUBCHEM_PHARMACOPHORE_FEATURES>
12
1 2 acceptor
1 2 donor
1 3 acceptor
1 3 donor
1 4 acceptor
1 4 donor
1 5 acceptor
1 5 donor
1 6 acceptor
1 7 acceptor
1 7 donor
5 1 8 9 11 13 rings

> <PUBCHEM_HEAVY_ATOM_COUNT>
14

> <PUBCHEM_ATOM_DEF_STEREO_COUNT>
5

> <PUBCHEM_ATOM_UDEF_STEREO_COUNT>
0

> <PUBCHEM_BOND_DEF_STEREO_COUNT>
0

> <PUBCHEM_BOND_UDEF_STEREO_COUNT>
0

> <PUBCHEM_ISOTOPIC_ATOM_COUNT>
0

> <PUBCHEM_COMPONENT_COUNT>
1

> <PUBCHEM_CACTVS_TAUTO_COUNT>
6

> <PUBCHEM_CONFORMER_ID>
0029900300000001

> <PUBCHEM_MMFF94_ENERGY>
27.0644

> <PUBCHEM_FEATURE_SELFOVERLAP>
60.931

> <PUBCHEM_SHAPE_FINGERPRINT>
10130415 120 18272374148527550018
10608611 8 18334575780210649229
10922523 26 18113903762103221422
124424 183 18187081702713534102
12932764 1 18261683652525839662
13296908 3 17894916243054478640
13380535 21 18267036122501029062
13571099 22 18341894061106955286
13922767 16 18410568457908362324
14325111 11 18408042931085994213
14648413 74 18188492509255039932
14911166 2 18338802208682225534
14993402 34 16988841691927337628
15219456 202 18333452062073157964
15279308 100 18334013882428997214
15653759 3 17676496037925479179
15775835 57 18272929440580773365
16945 1 18340495465115533838
17844478 74 17968674794908609289
18186145 218 18341343235592983460
18511873 20 18336546027843700890
18619055 16 18413109472061053052
20201158 50 18340770338590516542
20645477 70 18341047432531851935
20653085 51 18333446543504282869
20715346 28 18113905978438201701
21501502 16 18268996555864979030
23402539 116 17346317042616583105
23402655 69 18272081678561415685
23559900 14 18343305860566569566
25 1 18191301577270628061
2748010 2 18269002045128478614
3248919 1 17561372780851059366
63268167 104 18272652367555085785
74978 22 18411135857094591398

> <PUBCHEM_SHAPE_MULTIPOLES>
247.03
5.8
1.58
1
1.49
0.21
0.16
-1.04
-0.8
-0.46
-0.01
0.59
-0.2
0.58

> <PUBCHEM_SHAPE_SELFOVERLAP>
501.182

> <PUBCHEM_SHAPE_VOLUME>
144.2

> <PUBCHEM_COORDINATE_TYPE>
2
5
10

$$$$
