141725
  -OEChem-11012400593D

 25 26  0     0  0  0  0  0  0999 V2000
    1.6687    0.0172   -0.4741 C   0  0  0  0  0  0  0  0  0  0  0  0
    0.2880    0.0096    0.1275 C   0  0  0  0  0  0  0  0  0  0  0  0
    2.7410   -0.7570    0.2075 C   0  0  0  0  0  0  0  0  0  0  0  0
    2.7497    0.7431    0.2461 C   0  0  0  0  0  0  0  0  0  0  0  0
   -0.4935    1.2675   -0.2793 C   0  0  0  0  0  0  0  0  0  0  0  0
   -0.4768   -1.2606   -0.2730 C   0  0  0  0  0  0  0  0  0  0  0  0
   -1.9144    1.2568    0.2785 C   0  0  0  0  0  0  0  0  0  0  0  0
   -1.8977   -1.2660    0.2846 C   0  0  0  0  0  0  0  0  0  0  0  0
   -2.6651   -0.0106   -0.1178 C   0  0  0  0  0  0  0  0  0  0  0  0
    1.6697    0.0415   -1.5568 H   0  0  0  0  0  0  0  0  0  0  0  0
    0.3707    0.0124    1.2241 H   0  0  0  0  0  0  0  0  0  0  0  0
    3.4811   -1.2491   -0.4118 H   0  0  0  0  0  0  0  0  0  0  0  0
    2.5097   -1.2820    1.1261 H   0  0  0  0  0  0  0  0  0  0  0  0
    2.5240    1.2235    1.1902 H   0  0  0  0  0  0  0  0  0  0  0  0
    3.4953    1.2578   -0.3475 H   0  0  0  0  0  0  0  0  0  0  0  0
   -0.5335    1.3438   -1.3738 H   0  0  0  0  0  0  0  0  0  0  0  0
    0.0292    2.1644    0.0744 H   0  0  0  0  0  0  0  0  0  0  0  0
    0.0569   -2.1492    0.0849 H   0  0  0  0  0  0  0  0  0  0  0  0
   -0.5153   -1.3425   -1.3672 H   0  0  0  0  0  0  0  0  0  0  0  0
   -2.4589    2.1360   -0.0841 H   0  0  0  0  0  0  0  0  0  0  0  0
   -1.8774    1.3327    1.3722 H   0  0  0  0  0  0  0  0  0  0  0  0
   -1.8598   -1.3361    1.3787 H   0  0  0  0  0  0  0  0  0  0  0  0
   -2.4304   -2.1541   -0.0737 H   0  0  0  0  0  0  0  0  0  0  0  0
   -3.6545   -0.0161    0.3533 H   0  0  0  0  0  0  0  0  0  0  0  0
   -2.8274   -0.0144   -1.2028 H   0  0  0  0  0  0  0  0  0  0  0  0
  1  2  1  0  0  0  0
  1  3  1  0  0  0  0
  1  4  1  0  0  0  0
  1 10  1  0  0  0  0
  2  5  1  0  0  0  0
  2  6  1  0  0  0  0
  2 11  1  0  0  0  0
  3  4  1  0  0  0  0
  3 12  1  0  0  0  0
  3 13  1  0  0  0  0
  4 14  1  0  0  0  0
  4 15  1  0  0  0  0
  5  7  1  0  0  0  0
  5 16  1  0  0  0  0
  5 17  1  0  0  0  0
  6  8  1  0  0  0  0
  6 18  1  0  0  0  0
  6 19  1  0  0  0  0
  7  9  1  0  0  0  0
  7 20  1  0  0  0  0
  7 21  1  0  0  0  0
  8  9  1  0  0  0  0
  8 22  1  0  0  0  0
  8 23  1  0  0  0  0
  9 24  1  0  0  0  0
  9 25  1  0  0  0  0
M  END
> <PUBCHEM_COMPOUND_CID>
141725

> <PUBCHEM_CONFORMER_RMSD>
0.6

> <PUBCHEM_CONFORMER_DIVERSEORDER>
1
5
3
4
2

> <PUBCHEM_MMFF94_PARTIAL_CHARGES>
9
1 -0.19
10 0.1
12 0.1
13 0.1
14 0.1
15 0.1
2 0.09
3 -0.2
4 -0.2

> <PUBCHEM_EFFECTIVE_ROTOR_COUNT>
2.8

> <PUBCHEM_PHARMACOPHORE_FEATURES>
1
6 2 5 6 7 8 9 rings

> <PUBCHEM_HEAVY_ATOM_COUNT>
9

> <PUBCHEM_ATOM_DEF_STEREO_COUNT>
0

> <PUBCHEM_ATOM_UDEF_STEREO_COUNT>
0

> <PUBCHEM_BOND_DEF_STEREO_COUNT>
0

> <PUBCHEM_BOND_UDEF_STEREO_COUNT>
0

> <PUBCHEM_ISOTOPIC_ATOM_COUNT>
0

> <PUBCHEM_COMPONENT_COUNT>
1

> <PUBCHEM_CACTVS_TAUTO_COUNT>
1

> <PUBCHEM_CONFORMER_ID>
0002299D00000001

> <PUBCHEM_MMFF94_ENERGY>
8.995

> <PUBCHEM_FEATURE_SELFOVERLAP>
5.074

> <PUBCHEM_SHAPE_FINGERPRINT>
10857977 72 18339354274824372321
12897270 3 18411139147187103294
12932764 1 18410860957986961602
14325111 11 18411699855083355872
14390081 3 18272367568342292256
16714656 1 18410575084879343789
16945 1 18410580586568932653
19973954 147 18413110571646800232
20201158 50 18201438056160114334
20645464 45 17988923370859635010
20871998 184 18201443648271136319
21040471 1 18265903462120405813
23235685 24 18411415069040307381
23552423 10 18187086173895763094
2748010 2 18122073000680684495
29004967 10 18262522618657871130
3248919 1 17917429796079631788
369184 2 18410853265410423091
5084963 1 18113621144765514556

> <PUBCHEM_SHAPE_MULTIPOLES>
185.22
4.26
1.45
0.69
1.45
0
0.01
0
-0.35
-0.5
-0.03
0.03
0
0.01

> <PUBCHEM_SHAPE_SELFOVERLAP>
365.45

> <PUBCHEM_SHAPE_VOLUME>
110.2

> <PUBCHEM_COORDINATE_TYPE>
2
5
10

$$$$
