9553
  -OEChem-11012400543D

 23 22  0     0  0  0  0  0  0999 V2000
   -0.8045   -0.7040   -1.8717 F   0  0  0  0  0  0  0  0  0  0  0  0
    0.8041    0.7426   -1.8577 F   0  0  0  0  0  0  0  0  0  0  0  0
   -0.0561    1.8105    0.4696 F   0  0  0  0  0  0  0  0  0  0  0  0
   -1.4919    1.7948   -1.1576 F   0  0  0  0  0  0  0  0  0  0  0  0
    1.4907   -1.7689   -1.1882 F   0  0  0  0  0  0  0  0  0  0  0  0
    0.0530   -1.8142    0.4368 F   0  0  0  0  0  0  0  0  0  0  0  0
   -1.3411   -0.2467    1.7047 F   0  0  0  0  0  0  0  0  0  0  0  0
   -2.5468    1.5072    1.2739 F   0  0  0  0  0  0  0  0  0  0  0  0
    1.3363    0.2205    1.7100 F   0  0  0  0  0  0  0  0  0  0  0  0
    2.5428   -1.5250    1.2493 F   0  0  0  0  0  0  0  0  0  0  0  0
   -2.4438   -1.5109   -0.5123 F   0  0  0  0  0  0  0  0  0  0  0  0
   -3.8736   -0.8644    1.0018 F   0  0  0  0  0  0  0  0  0  0  0  0
   -3.6940    0.2302   -0.8777 F   0  0  0  0  0  0  0  0  0  0  0  0
    2.4660    1.5304   -0.4880 F   0  0  0  0  0  0  0  0  0  0  0  0
    3.8999    0.8284    1.0001 F   0  0  0  0  0  0  0  0  0  0  0  0
    3.6684   -0.2471   -0.8753 F   0  0  0  0  0  0  0  0  0  0  0  0
   -0.0007    0.0117   -1.0345 C   0  0  0  0  0  0  0  0  0  0  0  0
   -0.8673    0.9871   -0.2506 C   0  0  0  0  0  0  0  0  0  0  0  0
    0.8650   -0.9779   -0.2676 C   0  0  0  0  0  0  0  0  0  0  0  0
   -1.9278    0.4390    0.6923 C   0  0  0  0  0  0  0  0  0  0  0  0
    1.9244   -0.4467    0.6861 C   0  0  0  0  0  0  0  0  0  0  0  0
   -2.9985   -0.4251    0.0729 C   0  0  0  0  0  0  0  0  0  0  0  0
    2.9956    0.4286    0.0839 C   0  0  0  0  0  0  0  0  0  0  0  0
  1 17  1  0  0  0  0
  2 17  1  0  0  0  0
  3 18  1  0  0  0  0
  4 18  1  0  0  0  0
  5 19  1  0  0  0  0
  6 19  1  0  0  0  0
  7 20  1  0  0  0  0
  8 20  1  0  0  0  0
  9 21  1  0  0  0  0
 10 21  1  0  0  0  0
 11 22  1  0  0  0  0
 12 22  1  0  0  0  0
 13 22  1  0  0  0  0
 14 23  1  0  0  0  0
 15 23  1  0  0  0  0
 16 23  1  0  0  0  0
 17 18  1  0  0  0  0
 17 19  1  0  0  0  0
 18 20  1  0  0  0  0
 19 21  1  0  0  0  0
 20 22  1  0  0  0  0
 21 23  1  0  0  0  0
M  END
> <PUBCHEM_COMPOUND_CID>
9553

> <PUBCHEM_CONFORMER_RMSD>
0.8

> <PUBCHEM_CONFORMER_DIVERSEORDER>
1
22
20
9
8
5
3
24
13
11
21
7
23
10
17
2
4
19
15
16
14
12
18
6

> <PUBCHEM_MMFF94_PARTIAL_CHARGES>
23
1 -0.34
10 -0.34
11 -0.34
12 -0.34
13 -0.34
14 -0.34
15 -0.34
16 -0.34
17 0.68
18 0.68
19 0.68
2 -0.34
20 0.68
21 0.68
22 1.02
23 1.02
3 -0.34
4 -0.34
5 -0.34
6 -0.34
7 -0.34
8 -0.34
9 -0.34

> <PUBCHEM_EFFECTIVE_ROTOR_COUNT>
6

> <PUBCHEM_PHARMACOPHORE_FEATURES>
0

> <PUBCHEM_HEAVY_ATOM_COUNT>
23

> <PUBCHEM_ATOM_DEF_STEREO_COUNT>
0

> <PUBCHEM_ATOM_UDEF_STEREO_COUNT>
0

> <PUBCHEM_BOND_DEF_STEREO_COUNT>
0

> <PUBCHEM_BOND_UDEF_STEREO_COUNT>
0

> <PUBCHEM_ISOTOPIC_ATOM_COUNT>
0

> <PUBCHEM_COMPONENT_COUNT>
1

> <PUBCHEM_CACTVS_TAUTO_COUNT>
1

> <PUBCHEM_CONFORMER_ID>
0000255100000001

> <PUBCHEM_MMFF94_ENERGY>
12.7768

> <PUBCHEM_FEATURE_SELFOVERLAP>
0

> <PUBCHEM_SHAPE_FINGERPRINT>
10863032 1 18334851688930537969
10948715 1 17561092366762847873
11132069 177 18342170115602810138
12011746 2 18410855464428404044
12423570 1 11223564699476872334
12491281 212 18341063955312873642
12654903 92 13326845652041272258
12808571 1 17418381306780958720
13221675 6 17989202689504261266
13296908 3 16805324357766174075
13693222 15 18113336379711876074
14223421 5 18336546014805629822
14787075 74 18051129499315224265
14943859 89 17132109178297773082
15309172 13 18407757049430925682
15775835 57 17775566450709001584
16945 1 17458641020116762112
17834072 14 16153423960838925357
18981168 100 16486391223204778706
19010151 120 17822293525957591581
200 152 17676476259548398514
20525323 117 18201996599682707725
21501502 16 17896877660250743528
23388829 49 18187086199565327461
23419403 2 17388232783936728549
23559900 14 16226313821287528594
25 1 14045745928342014196
296302 2 18411131429526615213
3286 77 18058713746051227666
528886 8 9439410107351112069

> <PUBCHEM_SHAPE_MULTIPOLES>
356.95
5.49
1.6
1.51
0.01
0.01
-0.09
-0.01
0.93
0
-0.06
-0.01
0
-0.04

> <PUBCHEM_SHAPE_SELFOVERLAP>
773.849

> <PUBCHEM_SHAPE_VOLUME>
192.3

> <PUBCHEM_COORDINATE_TYPE>
2
5
10

$$$$
