135542234
  -OEChem-10312420132D

110118  0     0  0  0  0  0  0999 V2000
    9.0779    0.0348    0.0000 N   0  0  0  0  0  0  0  0  0  0  0  0
    6.0727    0.0348    0.0000 N   0  0  0  0  0  0  0  0  0  0  0  0
    7.5427    1.4043    0.0000 N   0  0  0  0  0  0  0  0  0  0  0  0
    7.5762   -1.3347    0.0000 N   0  0  0  0  0  0  0  0  0  0  0  0
   12.2853    4.4838    0.0000 N   0  0  0  0  0  0  0  0  0  0  0  0
   12.2068   -4.4972    0.0000 N   0  0  0  0  0  0  0  0  0  0  0  0
    2.9680    4.6226    0.0000 N   0  0  0  0  0  0  0  0  0  0  0  0
    3.1236   -4.6347    0.0000 N   0  0  0  0  0  0  0  0  0  0  0  0
    9.3458    1.7710    0.0000 C   0  0  0  0  0  0  0  0  0  0  0  0
    9.3793   -1.6678    0.0000 C   0  0  0  0  0  0  0  0  0  0  0  0
    5.7730    1.7710    0.0000 C   0  0  0  0  0  0  0  0  0  0  0  0
    5.8065   -1.6678    0.0000 C   0  0  0  0  0  0  0  0  0  0  0  0
    9.6455    0.8368    0.0000 C   0  0  0  0  0  0  0  0  0  0  0  0
    9.6790   -0.7001    0.0000 C   0  0  0  0  0  0  0  0  0  0  0  0
    5.5052    0.8033    0.0000 C   0  0  0  0  0  0  0  0  0  0  0  0
    5.5052   -0.7336    0.0000 C   0  0  0  0  0  0  0  0  0  0  0  0
    8.3781    2.0723    0.0000 C   0  0  0  0  0  0  0  0  0  0  0  0
    8.3781   -1.9357    0.0000 C   0  0  0  0  0  0  0  0  0  0  0  0
    6.7407    2.0388    0.0000 C   0  0  0  0  0  0  0  0  0  0  0  0
    6.7742   -1.9692    0.0000 C   0  0  0  0  0  0  0  0  0  0  0  0
   10.6148    0.5689    0.0000 C   0  0  0  0  0  0  0  0  0  0  0  0
   10.6148   -0.4323    0.0000 C   0  0  0  0  0  0  0  0  0  0  0  0
    4.5375    0.5354    0.0000 C   0  0  0  0  0  0  0  0  0  0  0  0
    4.5375   -0.4658    0.0000 C   0  0  0  0  0  0  0  0  0  0  0  0
   10.0807    2.4492    0.0000 C   0  0  0  0  0  0  0  0  0  0  0  0
   10.0861   -2.3752    0.0000 C   0  0  0  0  0  0  0  0  0  0  0  0
    5.0718    2.4839    0.0000 C   0  0  0  0  0  0  0  0  0  0  0  0
    5.1358   -2.4095    0.0000 C   0  0  0  0  0  0  0  0  0  0  0  0
    8.0433    3.0065    0.0000 C   0  0  0  0  0  0  0  0  0  0  0  0
    8.0767   -2.9034    0.0000 C   0  0  0  0  0  0  0  0  0  0  0  0
    7.0421    3.0065    0.0000 C   0  0  0  0  0  0  0  0  0  0  0  0
    7.0756   -2.9034    0.0000 C   0  0  0  0  0  0  0  0  0  0  0  0
   11.0354    2.1519    0.0000 C   0  0  0  0  0  0  0  0  0  0  0  0
    9.8270   -3.3410    0.0000 C   0  0  0  0  0  0  0  0  0  0  0  0
    9.8608    3.4247    0.0000 C   0  0  0  0  0  0  0  0  0  0  0  0
   11.0522   -2.1167    0.0000 C   0  0  0  0  0  0  0  0  0  0  0  0
    4.1038    2.2330    0.0000 C   0  0  0  0  0  0  0  0  0  0  0  0
    4.1581   -2.1995    0.0000 C   0  0  0  0  0  0  0  0  0  0  0  0
    5.3386    3.4476    0.0000 C   0  0  0  0  0  0  0  0  0  0  0  0
    5.4428   -3.3613    0.0000 C   0  0  0  0  0  0  0  0  0  0  0  0
   11.5504    3.8056    0.0000 C   0  0  0  0  0  0  0  0  0  0  0  0
   11.4999   -3.7898    0.0000 C   0  0  0  0  0  0  0  0  0  0  0  0
    3.6693    3.9097    0.0000 C   0  0  0  0  0  0  0  0  0  0  0  0
    3.7944   -3.8930    0.0000 C   0  0  0  0  0  0  0  0  0  0  0  0
   11.7703    2.8301    0.0000 C   0  0  0  0  0  0  0  0  0  0  0  0
   10.5339   -4.0484    0.0000 C   0  0  0  0  0  0  0  0  0  0  0  0
   10.5956    4.1029    0.0000 C   0  0  0  0  0  0  0  0  0  0  0  0
   11.7590   -2.8240    0.0000 C   0  0  0  0  0  0  0  0  0  0  0  0
    3.4025    2.9460    0.0000 C   0  0  0  0  0  0  0  0  0  0  0  0
    3.4874   -2.9412    0.0000 C   0  0  0  0  0  0  0  0  0  0  0  0
    4.6373    4.1606    0.0000 C   0  0  0  0  0  0  0  0  0  0  0  0
    4.7721   -4.1030    0.0000 C   0  0  0  0  0  0  0  0  0  0  0  0
   12.0654    5.4593    0.0000 C   0  0  0  0  0  0  0  0  0  0  0  0
   13.2401    4.1865    0.0000 C   0  0  0  0  0  0  0  0  0  0  0  0
   11.9476   -5.4630    0.0000 C   0  0  0  0  0  0  0  0  0  0  0  0
   13.1728   -4.2387    0.0000 C   0  0  0  0  0  0  0  0  0  0  0  0
    3.2348    5.5864    0.0000 C   0  0  0  0  0  0  0  0  0  0  0  0
    2.0000    4.3718    0.0000 C   0  0  0  0  0  0  0  0  0  0  0  0
    2.1459   -4.4247    0.0000 C   0  0  0  0  0  0  0  0  0  0  0  0
    3.4306   -5.5864    0.0000 C   0  0  0  0  0  0  0  0  0  0  0  0
    8.4583    0.0133    0.0000 H   0  0  0  0  0  0  0  0  0  0  0  0
    6.6927    0.0348    0.0000 H   0  0  0  0  0  0  0  0  0  0  0  0
   11.1082    0.9444    0.0000 H   0  0  0  0  0  0  0  0  0  0  0  0
   11.1099   -0.8055    0.0000 H   0  0  0  0  0  0  0  0  0  0  0  0
    4.0441    0.9108    0.0000 H   0  0  0  0  0  0  0  0  0  0  0  0
    4.0440   -0.8411    0.0000 H   0  0  0  0  0  0  0  0  0  0  0  0
    8.4001    3.5135    0.0000 H   0  0  0  0  0  0  0  0  0  0  0  0
    8.4442   -3.4027    0.0000 H   0  0  0  0  0  0  0  0  0  0  0  0
    6.6746    3.5059    0.0000 H   0  0  0  0  0  0  0  0  0  0  0  0
    6.7106   -3.4046    0.0000 H   0  0  0  0  0  0  0  0  0  0  0  0
   11.1718    1.5470    0.0000 H   0  0  0  0  0  0  0  0  0  0  0  0
    9.2281   -3.5013    0.0000 H   0  0  0  0  0  0  0  0  0  0  0  0
    9.2688    3.6090    0.0000 H   0  0  0  0  0  0  0  0  0  0  0  0
   11.2128   -1.5178    0.0000 H   0  0  0  0  0  0  0  0  0  0  0  0
    3.9384    1.6355    0.0000 H   0  0  0  0  0  0  0  0  0  0  0  0
    3.9678   -1.6095    0.0000 H   0  0  0  0  0  0  0  0  0  0  0  0
    5.9387    3.6032    0.0000 H   0  0  0  0  0  0  0  0  0  0  0  0
    6.0489   -3.4915    0.0000 H   0  0  0  0  0  0  0  0  0  0  0  0
   12.3623    2.6458    0.0000 H   0  0  0  0  0  0  0  0  0  0  0  0
   10.3732   -4.6472    0.0000 H   0  0  0  0  0  0  0  0  0  0  0  0
   10.4593    4.7077    0.0000 H   0  0  0  0  0  0  0  0  0  0  0  0
   12.3580   -2.6637    0.0000 H   0  0  0  0  0  0  0  0  0  0  0  0
    2.8023    2.7904    0.0000 H   0  0  0  0  0  0  0  0  0  0  0  0
    2.8812   -2.8110    0.0000 H   0  0  0  0  0  0  0  0  0  0  0  0
    4.8027    4.7581    0.0000 H   0  0  0  0  0  0  0  0  0  0  0  0
    4.9624   -4.6930    0.0000 H   0  0  0  0  0  0  0  0  0  0  0  0
   12.6702    5.5957    0.0000 H   0  0  0  0  0  0  0  0  0  0  0  0
   11.9290    6.0642    0.0000 H   0  0  0  0  0  0  0  0  0  0  0  0
   11.4605    5.3230    0.0000 H   0  0  0  0  0  0  0  0  0  0  0  0
   13.0557    3.5945    0.0000 H   0  0  0  0  0  0  0  0  0  0  0  0
   13.8320    4.0022    0.0000 H   0  0  0  0  0  0  0  0  0  0  0  0
   13.4244    4.7785    0.0000 H   0  0  0  0  0  0  0  0  0  0  0  0
   11.3488   -5.3024    0.0000 H   0  0  0  0  0  0  0  0  0  0  0  0
   11.7870   -6.0618    0.0000 H   0  0  0  0  0  0  0  0  0  0  0  0
   12.5465   -5.6237    0.0000 H   0  0  0  0  0  0  0  0  0  0  0  0
   13.3331   -4.8376    0.0000 H   0  0  0  0  0  0  0  0  0  0  0  0
   13.7717   -4.0784    0.0000 H   0  0  0  0  0  0  0  0  0  0  0  0
   13.0125   -3.6398    0.0000 H   0  0  0  0  0  0  0  0  0  0  0  0
    3.8323    5.4210    0.0000 H   0  0  0  0  0  0  0  0  0  0  0  0
    3.4002    6.1839    0.0000 H   0  0  0  0  0  0  0  0  0  0  0  0
    2.6373    5.7518    0.0000 H   0  0  0  0  0  0  0  0  0  0  0  0
    1.8445    4.9720    0.0000 H   0  0  0  0  0  0  0  0  0  0  0  0
    1.3998    4.2163    0.0000 H   0  0  0  0  0  0  0  0  0  0  0  0
    2.1555    3.7716    0.0000 H   0  0  0  0  0  0  0  0  0  0  0  0
    2.2761   -3.8185    0.0000 H   0  0  0  0  0  0  0  0  0  0  0  0
    1.5398   -4.2945    0.0000 H   0  0  0  0  0  0  0  0  0  0  0  0
    2.0157   -5.0308    0.0000 H   0  0  0  0  0  0  0  0  0  0  0  0
    2.8406   -5.7767    0.0000 H   0  0  0  0  0  0  0  0  0  0  0  0
    3.6210   -6.1764    0.0000 H   0  0  0  0  0  0  0  0  0  0  0  0
    4.0207   -5.3961    0.0000 H   0  0  0  0  0  0  0  0  0  0  0  0
  1 13  1  0  0  0  0
  1 14  1  0  0  0  0
  1 61  1  0  0  0  0
  2 15  1  0  0  0  0
  2 16  1  0  0  0  0
  2 62  1  0  0  0  0
  3 17  2  0  0  0  0
  3 19  1  0  0  0  0
  4 18  2  0  0  0  0
  4 20  1  0  0  0  0
  5 41  1  0  0  0  0
  5 53  1  0  0  0  0
  5 54  1  0  0  0  0
  6 42  1  0  0  0  0
  6 55  1  0  0  0  0
  6 56  1  0  0  0  0
  7 43  1  0  0  0  0
  7 57  1  0  0  0  0
  7 58  1  0  0  0  0
  8 44  1  0  0  0  0
  8 59  1  0  0  0  0
  8 60  1  0  0  0  0
  9 13  2  0  0  0  0
  9 17  1  0  0  0  0
  9 25  1  0  0  0  0
 10 14  2  0  0  0  0
 10 18  1  0  0  0  0
 10 26  1  0  0  0  0
 11 15  1  0  0  0  0
 11 19  2  0  0  0  0
 11 27  1  0  0  0  0
 12 16  1  0  0  0  0
 12 20  2  0  0  0  0
 12 28  1  0  0  0  0
 13 21  1  0  0  0  0
 14 22  1  0  0  0  0
 15 23  2  0  0  0  0
 16 24  2  0  0  0  0
 17 29  1  0  0  0  0
 18 30  1  0  0  0  0
 19 31  1  0  0  0  0
 20 32  1  0  0  0  0
 21 22  2  0  0  0  0
 21 63  1  0  0  0  0
 22 64  1  0  0  0  0
 23 24  1  0  0  0  0
 23 65  1  0  0  0  0
 24 66  1  0  0  0  0
 25 33  2  0  0  0  0
 25 35  1  0  0  0  0
 26 34  2  0  0  0  0
 26 36  1  0  0  0  0
 27 37  2  0  0  0  0
 27 39  1  0  0  0  0
 28 38  2  0  0  0  0
 28 40  1  0  0  0  0
 29 31  2  0  0  0  0
 29 67  1  0  0  0  0
 30 32  2  0  0  0  0
 30 68  1  0  0  0  0
 31 69  1  0  0  0  0
 32 70  1  0  0  0  0
 33 45  1  0  0  0  0
 33 71  1  0  0  0  0
 34 46  1  0  0  0  0
 34 72  1  0  0  0  0
 35 47  2  0  0  0  0
 35 73  1  0  0  0  0
 36 48  2  0  0  0  0
 36 74  1  0  0  0  0
 37 49  1  0  0  0  0
 37 75  1  0  0  0  0
 38 50  1  0  0  0  0
 38 76  1  0  0  0  0
 39 51  2  0  0  0  0
 39 77  1  0  0  0  0
 40 52  2  0  0  0  0
 40 78  1  0  0  0  0
 41 45  2  0  0  0  0
 41 47  1  0  0  0  0
 42 46  2  0  0  0  0
 42 48  1  0  0  0  0
 43 49  2  0  0  0  0
 43 51  1  0  0  0  0
 44 50  2  0  0  0  0
 44 52  1  0  0  0  0
 45 79  1  0  0  0  0
 46 80  1  0  0  0  0
 47 81  1  0  0  0  0
 48 82  1  0  0  0  0
 49 83  1  0  0  0  0
 50 84  1  0  0  0  0
 51 85  1  0  0  0  0
 52 86  1  0  0  0  0
 53 87  1  0  0  0  0
 53 88  1  0  0  0  0
 53 89  1  0  0  0  0
 54 90  1  0  0  0  0
 54 91  1  0  0  0  0
 54 92  1  0  0  0  0
 55 93  1  0  0  0  0
 55 94  1  0  0  0  0
 55 95  1  0  0  0  0
 56 96  1  0  0  0  0
 56 97  1  0  0  0  0
 56 98  1  0  0  0  0
 57 99  1  0  0  0  0
 57100  1  0  0  0  0
 57101  1  0  0  0  0
 58102  1  0  0  0  0
 58103  1  0  0  0  0
 58104  1  0  0  0  0
 59105  1  0  0  0  0
 59106  1  0  0  0  0
 59107  1  0  0  0  0
 60108  1  0  0  0  0
 60109  1  0  0  0  0
 60110  1  0  0  0  0
M  END
> <PUBCHEM_COMPOUND_CID>
135542234

> <PUBCHEM_COMPOUND_CANONICALIZED>
1

> <PUBCHEM_CACTVS_COMPLEXITY>
1130

> <PUBCHEM_CACTVS_HBOND_ACCEPTOR>
6

> <PUBCHEM_CACTVS_HBOND_DONOR>
2

> <PUBCHEM_CACTVS_ROTATABLE_BOND>
8

> <PUBCHEM_CACTVS_SUBSKEYS>
AAADcfB/wAAAAAAAAAAAAAAAAAAAAWLFiwAwYMGAAAAAAAAB/gAAHAAQAAAADAiBHgQywLPJkACgAyRiRACCgCAhAiAImSA4ZJgIIOLA0dGEJAhgkADIyAcQgMAOiAAAAAAAAAAQAAAAAAAAAAAAAAAAAA==

> <PUBCHEM_IUPAC_OPENEYE_NAME>
N,N-dimethyl-4-[10,15,20-tris[4-(dimethylamino)phenyl]-21,23-dihydroporphyrin-5-yl]aniline

> <PUBCHEM_IUPAC_CAS_NAME>
N,N-dimethyl-4-[10,15,20-tris[4-(dimethylamino)phenyl]-21,23-dihydroporphyrin-5-yl]aniline

> <PUBCHEM_IUPAC_NAME_MARKUP>
<I>N</I>,<I>N</I>-dimethyl-4-[10,15,20-tris[4-(dimethylamino)phenyl]-21,23-dihydroporphyrin-5-yl]aniline

> <PUBCHEM_IUPAC_NAME>
N,N-dimethyl-4-[10,15,20-tris[4-(dimethylamino)phenyl]-21,23-dihydroporphyrin-5-yl]aniline

> <PUBCHEM_IUPAC_SYSTEMATIC_NAME>
N,N-dimethyl-4-[10,15,20-tris[4-(dimethylamino)phenyl]-21,23-dihydroporphyrin-5-yl]aniline

> <PUBCHEM_IUPAC_TRADITIONAL_NAME>
dimethyl-[4-[10,15,20-tris[4-(dimethylamino)phenyl]-21,23-dihydroporphin-5-yl]phenyl]amine

> <PUBCHEM_IUPAC_INCHI>
InChI=1S/C52H50N8/c1-57(2)37-17-9-33(10-18-37)49-41-25-27-43(53-41)50(34-11-19-38(20-12-34)58(3)4)45-29-31-47(55-45)52(36-15-23-40(24-16-36)60(7)8)48-32-30-46(56-48)51(44-28-26-42(49)54-44)35-13-21-39(22-14-35)59(5)6/h9-32,53,56H,1-8H3

> <PUBCHEM_IUPAC_INCHIKEY>
ONCMAEBURQZDQU-UHFFFAOYSA-N

> <PUBCHEM_XLOGP3_AA>
10.9

> <PUBCHEM_EXACT_MASS>
786.41584363

> <PUBCHEM_MOLECULAR_FORMULA>
C52H50N8

> <PUBCHEM_MOLECULAR_WEIGHT>
787.0

> <PUBCHEM_OPENEYE_CAN_SMILES>
CN(C)C1=CC=C(C=C1)C2=C3C=CC(=C(C4=NC(=C(C5=CC=C(N5)C(=C6C=CC2=N6)C7=CC=C(C=C7)N(C)C)C8=CC=C(C=C8)N(C)C)C=C4)C9=CC=C(C=C9)N(C)C)N3

> <PUBCHEM_OPENEYE_ISO_SMILES>
CN(C)C1=CC=C(C=C1)C2=C3C=CC(=C(C4=NC(=C(C5=CC=C(N5)C(=C6C=CC2=N6)C7=CC=C(C=C7)N(C)C)C8=CC=C(C=C8)N(C)C)C=C4)C9=CC=C(C=C9)N(C)C)N3

> <PUBCHEM_CACTVS_TPSA>
70.3

> <PUBCHEM_MONOISOTOPIC_WEIGHT>
786.41584363

> <PUBCHEM_TOTAL_CHARGE>
0

> <PUBCHEM_HEAVY_ATOM_COUNT>
60

> <PUBCHEM_ATOM_DEF_STEREO_COUNT>
0

> <PUBCHEM_ATOM_UDEF_STEREO_COUNT>
0

> <PUBCHEM_BOND_DEF_STEREO_COUNT>
0

> <PUBCHEM_BOND_UDEF_STEREO_COUNT>
0

> <PUBCHEM_ISOTOPIC_ATOM_COUNT>
0

> <PUBCHEM_COMPONENT_COUNT>
1

> <PUBCHEM_CACTVS_TAUTO_COUNT>
-1

> <PUBCHEM_COORDINATE_TYPE>
1
5
255

> <PUBCHEM_BONDANNOTATIONS>
1  13  8
1  14  8
10  14  8
10  18  8
11  15  8
11  19  8
12  16  8
12  20  8
13  21  8
14  22  8
15  23  8
16  24  8
2  15  8
2  16  8
21  22  8
23  24  8
25  33  8
25  35  8
26  34  8
26  36  8
27  37  8
27  39  8
28  38  8
28  40  8
3  17  8
3  19  8
33  45  8
34  46  8
35  47  8
36  48  8
37  49  8
38  50  8
39  51  8
4  18  8
4  20  8
40  52  8
41  45  8
41  47  8
42  46  8
42  48  8
43  49  8
43  51  8
44  50  8
44  52  8
9  13  8
9  17  8

$$$$
