6428984
  -OEChem-11012401033D

 22 22  0     0  0  0  0  0  0999 V2000
    1.1616   -1.4496   -0.2597 O   0  0  0  0  0  0  0  0  0  0  0  0
    3.7549   -0.9485   -0.2148 O   0  0  0  0  0  0  0  0  0  0  0  0
    0.5391    0.8502    0.2080 C   0  0  0  0  0  0  0  0  0  0  0  0
   -0.8943    0.4510    0.1056 C   0  0  0  0  0  0  0  0  0  0  0  0
   -1.5535    0.5268   -1.1214 C   0  0  0  0  0  0  0  0  0  0  0  0
   -1.5757    0.0021    1.2368 C   0  0  0  0  0  0  0  0  0  0  0  0
    1.5037   -0.2949   -0.0375 C   0  0  0  0  0  0  0  0  0  0  0  0
   -2.8941    0.1536   -1.2171 C   0  0  0  0  0  0  0  0  0  0  0  0
   -2.9163   -0.3711    1.1411 C   0  0  0  0  0  0  0  0  0  0  0  0
    2.9927   -0.0120   -0.0127 C   0  0  0  0  0  0  0  0  0  0  0  0
   -3.5756   -0.2954   -0.0858 C   0  0  0  0  0  0  0  0  0  0  0  0
    3.4574    1.3877    0.2576 C   0  0  0  0  0  0  0  0  0  0  0  0
    0.7355    1.2616    1.2049 H   0  0  0  0  0  0  0  0  0  0  0  0
    0.7468    1.6436   -0.5193 H   0  0  0  0  0  0  0  0  0  0  0  0
   -1.0334    0.8729   -2.0108 H   0  0  0  0  0  0  0  0  0  0  0  0
   -1.0730   -0.0636    2.1981 H   0  0  0  0  0  0  0  0  0  0  0  0
   -3.4073    0.2119   -2.1725 H   0  0  0  0  0  0  0  0  0  0  0  0
   -3.4468   -0.7212    2.0217 H   0  0  0  0  0  0  0  0  0  0  0  0
   -4.6193   -0.5862   -0.1603 H   0  0  0  0  0  0  0  0  0  0  0  0
    3.0999    2.0603   -0.5253 H   0  0  0  0  0  0  0  0  0  0  0  0
    4.5513    1.4099    0.2556 H   0  0  0  0  0  0  0  0  0  0  0  0
    3.1107    1.7164    1.2399 H   0  0  0  0  0  0  0  0  0  0  0  0
  1  7  2  0  0  0  0
  2 10  2  0  0  0  0
  3  4  1  0  0  0  0
  3  7  1  0  0  0  0
  3 13  1  0  0  0  0
  3 14  1  0  0  0  0
  4  5  2  0  0  0  0
  4  6  1  0  0  0  0
  5  8  1  0  0  0  0
  5 15  1  0  0  0  0
  6  9  2  0  0  0  0
  6 16  1  0  0  0  0
  7 10  1  0  0  0  0
  8 11  2  0  0  0  0
  8 17  1  0  0  0  0
  9 11  1  0  0  0  0
  9 18  1  0  0  0  0
 10 12  1  0  0  0  0
 11 19  1  0  0  0  0
 12 20  1  0  0  0  0
 12 21  1  0  0  0  0
 12 22  1  0  0  0  0
M  END
> <PUBCHEM_COMPOUND_CID>
6428984

> <PUBCHEM_CONFORMER_RMSD>
0.6

> <PUBCHEM_CONFORMER_DIVERSEORDER>
1
9
27
34
32
25
22
5
6
8
16
31
36
29
7
19
37
15
21
11
4
17
30
14
3
33
35
2
20
13
23
10
12
18
26
28
24

> <PUBCHEM_MMFF94_PARTIAL_CHARGES>
17
1 -0.57
10 0.51
11 -0.15
12 0.06
15 0.15
16 0.15
17 0.15
18 0.15
19 0.15
2 -0.57
3 0.2
4 -0.14
5 -0.15
6 -0.15
7 0.51
8 -0.15
9 -0.15

> <PUBCHEM_EFFECTIVE_ROTOR_COUNT>
3

> <PUBCHEM_PHARMACOPHORE_FEATURES>
3
1 1 acceptor
1 2 acceptor
6 4 5 6 8 9 11 rings

> <PUBCHEM_HEAVY_ATOM_COUNT>
12

> <PUBCHEM_ATOM_DEF_STEREO_COUNT>
0

> <PUBCHEM_ATOM_UDEF_STEREO_COUNT>
0

> <PUBCHEM_BOND_DEF_STEREO_COUNT>
0

> <PUBCHEM_BOND_UDEF_STEREO_COUNT>
0

> <PUBCHEM_ISOTOPIC_ATOM_COUNT>
0

> <PUBCHEM_COMPONENT_COUNT>
1

> <PUBCHEM_CACTVS_TAUTO_COUNT>
4

> <PUBCHEM_CONFORMER_ID>
0062193800000001

> <PUBCHEM_MMFF94_ENERGY>
21.814

> <PUBCHEM_FEATURE_SELFOVERLAP>
15.232

> <PUBCHEM_SHAPE_FINGERPRINT>
10219947 1 18411983576507303964
11062470 55 18040434395282980321
12932764 1 17749107790102994922
13024252 1 13623534554540575745
13296908 3 18113056034485682896
14144814 61 16128657444206497952
14993402 34 16773795913606235861
15219456 202 18113898281661881796
15669948 3 15719399468067577642
18175812 5 18040435503373928478
18186145 218 17895193272898494912
190213 19 17060338517675732828
19422 9 17131837564175564542
200 152 18273206487324648405
20201158 50 18113337496561790891
20279233 1 17967811665132120152
204376 136 18267862977237073784
20645477 70 18340760451538969078
21061003 4 18335430075102286337
22169311 21 17821442465366232626
23402539 116 16805591599511390167
23557571 272 17458349606738644767
23559900 14 17168136820128660146
474 4 17343766364914746864
57812782 119 17603583041021088548
6333449 129 17240480304100731517
77492 1 17346882268670751080

> <PUBCHEM_SHAPE_MULTIPOLES>
235.22
6.7
1.11
1.08
2.77
0.05
-0.03
-0.01
-0.27
-0.96
0.04
0.81
-0.04
0.56

> <PUBCHEM_SHAPE_SELFOVERLAP>
483.751

> <PUBCHEM_SHAPE_VOLUME>
134.4

> <PUBCHEM_COORDINATE_TYPE>
2
5
10

$$$$
