7123
  -OEChem-11012401043D

 21 22  0     0  0  0  0  0  0999 V2000
   -3.7668    0.7189   -0.0001 O   0  0  0  0  0  0  0  0  0  0  0  0
   -3.3437   -1.5144   -0.0001 O   0  0  0  0  0  0  0  0  0  0  0  0
    0.8290   -0.5711    0.0001 C   0  0  0  0  0  0  0  0  0  0  0  0
    1.1783    0.8003    0.0001 C   0  0  0  0  0  0  0  0  0  0  0  0
   -0.5277   -0.9341    0.0001 C   0  0  0  0  0  0  0  0  0  0  0  0
   -1.5257    0.0409    0.0004 C   0  0  0  0  0  0  0  0  0  0  0  0
    0.1607    1.7683   -0.0001 C   0  0  0  0  0  0  0  0  0  0  0  0
    1.8467   -1.5389   -0.0001 C   0  0  0  0  0  0  0  0  0  0  0  0
    2.5349    1.1635   -0.0002 C   0  0  0  0  0  0  0  0  0  0  0  0
   -1.1822    1.3896    0.0001 C   0  0  0  0  0  0  0  0  0  0  0  0
    3.1894   -1.1601    0.0000 C   0  0  0  0  0  0  0  0  0  0  0  0
    3.5329    0.1886    0.0000 C   0  0  0  0  0  0  0  0  0  0  0  0
   -2.9260   -0.3517   -0.0003 C   0  0  0  0  0  0  0  0  0  0  0  0
   -0.7984   -1.9888    0.0000 H   0  0  0  0  0  0  0  0  0  0  0  0
    0.4069    2.8282   -0.0003 H   0  0  0  0  0  0  0  0  0  0  0  0
    1.6017   -2.5990   -0.0001 H   0  0  0  0  0  0  0  0  0  0  0  0
    2.8265    2.2118   -0.0003 H   0  0  0  0  0  0  0  0  0  0  0  0
   -1.9263    2.1811   -0.0002 H   0  0  0  0  0  0  0  0  0  0  0  0
    3.9668   -1.9186   -0.0001 H   0  0  0  0  0  0  0  0  0  0  0  0
    4.5784    0.4829   -0.0001 H   0  0  0  0  0  0  0  0  0  0  0  0
   -4.7083    0.4435    0.0000 H   0  0  0  0  0  0  0  0  0  0  0  0
  1 13  1  0  0  0  0
  1 21  1  0  0  0  0
  2 13  2  0  0  0  0
  3  4  1  0  0  0  0
  3  5  1  0  0  0  0
  3  8  2  0  0  0  0
  4  7  1  0  0  0  0
  4  9  2  0  0  0  0
  5  6  2  0  0  0  0
  5 14  1  0  0  0  0
  6 10  1  0  0  0  0
  6 13  1  0  0  0  0
  7 10  2  0  0  0  0
  7 15  1  0  0  0  0
  8 11  1  0  0  0  0
  8 16  1  0  0  0  0
  9 12  1  0  0  0  0
  9 17  1  0  0  0  0
 10 18  1  0  0  0  0
 11 12  2  0  0  0  0
 11 19  1  0  0  0  0
 12 20  1  0  0  0  0
M  END
> <PUBCHEM_COMPOUND_CID>
7123

> <PUBCHEM_CONFORMER_RMSD>
0.4

> <PUBCHEM_CONFORMER_DIVERSEORDER>
1
2

> <PUBCHEM_MMFF94_PARTIAL_CHARGES>
19
1 -0.65
10 -0.15
11 -0.15
12 -0.15
13 0.63
14 0.15
15 0.15
16 0.15
17 0.15
18 0.15
19 0.15
2 -0.57
20 0.15
21 0.5
5 -0.15
6 0.09
7 -0.15
8 -0.15
9 -0.15

> <PUBCHEM_EFFECTIVE_ROTOR_COUNT>
1

> <PUBCHEM_PHARMACOPHORE_FEATURES>
5
1 1 acceptor
1 2 acceptor
3 1 2 13 anion
6 3 4 5 6 7 10 rings
6 3 4 8 9 11 12 rings

> <PUBCHEM_HEAVY_ATOM_COUNT>
13

> <PUBCHEM_ATOM_DEF_STEREO_COUNT>
0

> <PUBCHEM_ATOM_UDEF_STEREO_COUNT>
0

> <PUBCHEM_BOND_DEF_STEREO_COUNT>
0

> <PUBCHEM_BOND_UDEF_STEREO_COUNT>
0

> <PUBCHEM_ISOTOPIC_ATOM_COUNT>
0

> <PUBCHEM_COMPONENT_COUNT>
1

> <PUBCHEM_CACTVS_TAUTO_COUNT>
1

> <PUBCHEM_CONFORMER_ID>
00001BD300000001

> <PUBCHEM_MMFF94_ENERGY>
39.7852

> <PUBCHEM_FEATURE_SELFOVERLAP>
25.456

> <PUBCHEM_SHAPE_FINGERPRINT>
10219947 1 18344148094013568454
10608611 8 18409443682972163181
10967382 1 18338516343927041638
11132069 177 18412258432744089898
11471102 20 18410288103543680165
11543360 7 15647345185502467814
11769659 78 18409443678655830490
11806522 49 18266735973212425679
12032990 46 18410862070151622990
12932764 1 17313094233673652779
13296908 3 18410012143505515407
14144814 61 18413390929657421571
14251717 144 18339074990339199687
14325111 11 18410856581151620769
14576447 43 18056185002594085271
15196674 1 18410575097595512038
15442244 35 18123753054221092322
15536298 74 18343584044980996968
16945 1 18410575115060347744
17844478 74 18040720255453046325
18186145 218 17822006497530092999
193761 8 17689997834339879782
200 152 18131340908713552981
20201158 50 18407760330611775538
20645477 70 18412259506755426631
20871998 22 18271253707355569382
21267235 1 18411146843663437855
21501502 16 18338240336733888184
21501925 9 18410846689847277970
23402539 116 18410845564940477262
23402655 69 18411696560949026173
23463225 33 18410012126304391372
23552423 10 18261115127931429076
23559900 14 18339073779833668386
2748010 2 18338793399551294436
3312278 4 18411140238198519297
5104073 3 18410573993751968714
528886 8 18411976974957862858
53812653 166 18271519896686065984
581208 293 18411415150565486784
7364860 26 18269273645901834456
8809292 202 18260554419724557483

> <PUBCHEM_SHAPE_MULTIPOLES>
255.8
5.83
1.74
0.6
1.87
0.11
0
-1.11
0
-0.14
0
-0.05
0.01
0

> <PUBCHEM_SHAPE_SELFOVERLAP>
564.341

> <PUBCHEM_SHAPE_VOLUME>
138.3

> <PUBCHEM_COORDINATE_TYPE>
2
5
10

$$$$
