13365716
  -OEChem-10312420472D

104103  0     0  0  0  0  0  0999 V2000
   14.1244    4.7500    0.0000 O   0  0  0  0  0  0  0  0  0  0  0  0
   11.5263    4.2500    0.0000 O   0  0  0  0  0  0  0  0  0  0  0  0
   12.3923    2.7500    0.0000 O   0  0  0  0  0  0  0  0  0  0  0  0
   14.9904    3.2500    0.0000 O   0  0  0  0  0  0  0  0  0  0  0  0
   10.6603    5.7500    0.0000 O   0  0  0  0  0  0  0  0  0  0  0  0
   13.2583    1.2500    0.0000 O   0  0  0  0  0  0  0  0  0  0  0  0
   18.4545    4.2500    0.0000 C   0  0  0  0  0  0  0  0  0  0  0  0
   19.3205    4.7500    0.0000 C   0  0  0  0  0  0  0  0  0  0  0  0
    7.1962    4.7500    0.0000 C   0  0  0  0  0  0  0  0  0  0  0  0
   10.6603   -1.2500    0.0000 C   0  0  0  0  0  0  0  0  0  0  0  0
   17.5885    4.7500    0.0000 C   0  0  0  0  0  0  0  0  0  0  0  0
    6.3301    4.2500    0.0000 C   0  0  0  0  0  0  0  0  0  0  0  0
    9.7942   -1.7500    0.0000 C   0  0  0  0  0  0  0  0  0  0  0  0
    8.0622    4.2500    0.0000 C   0  0  0  0  0  0  0  0  0  0  0  0
   10.6603   -0.2500    0.0000 C   0  0  0  0  0  0  0  0  0  0  0  0
   20.1865    4.2500    0.0000 C   0  0  0  0  0  0  0  0  0  0  0  0
    5.4641    4.7500    0.0000 C   0  0  0  0  0  0  0  0  0  0  0  0
    9.7942   -2.7500    0.0000 C   0  0  0  0  0  0  0  0  0  0  0  0
   16.7224    4.2500    0.0000 C   0  0  0  0  0  0  0  0  0  0  0  0
    8.9282    4.7500    0.0000 C   0  0  0  0  0  0  0  0  0  0  0  0
   11.5263    0.2500    0.0000 C   0  0  0  0  0  0  0  0  0  0  0  0
   21.0526    4.7500    0.0000 C   0  0  0  0  0  0  0  0  0  0  0  0
    4.5981    4.2500    0.0000 C   0  0  0  0  0  0  0  0  0  0  0  0
    8.9282   -3.2500    0.0000 C   0  0  0  0  0  0  0  0  0  0  0  0
   15.8564    4.7500    0.0000 C   0  0  0  0  0  0  0  0  0  0  0  0
    9.7942    4.2500    0.0000 C   0  0  0  0  0  0  0  0  0  0  0  0
   11.5263    1.2500    0.0000 C   0  0  0  0  0  0  0  0  0  0  0  0
   13.2583    4.2500    0.0000 C   0  0  0  0  0  0  0  0  0  0  0  0
   21.9186    4.2500    0.0000 C   0  0  0  0  0  0  0  0  0  0  0  0
    3.7320    4.7500    0.0000 C   0  0  0  0  0  0  0  0  0  0  0  0
    8.9282   -4.2500    0.0000 C   0  0  0  0  0  0  0  0  0  0  0  0
   12.3923    4.7500    0.0000 C   0  0  0  0  0  0  0  0  0  0  0  0
   13.2583    3.2500    0.0000 C   0  0  0  0  0  0  0  0  0  0  0  0
   14.9904    4.2500    0.0000 C   0  0  0  0  0  0  0  0  0  0  0  0
   10.6603    4.7500    0.0000 C   0  0  0  0  0  0  0  0  0  0  0  0
   12.3923    1.7500    0.0000 C   0  0  0  0  0  0  0  0  0  0  0  0
   22.7846    4.7500    0.0000 C   0  0  0  0  0  0  0  0  0  0  0  0
    2.8660    4.2500    0.0000 C   0  0  0  0  0  0  0  0  0  0  0  0
    8.0622   -4.7500    0.0000 C   0  0  0  0  0  0  0  0  0  0  0  0
   23.6506    4.2500    0.0000 C   0  0  0  0  0  0  0  0  0  0  0  0
    2.0000    4.7500    0.0000 C   0  0  0  0  0  0  0  0  0  0  0  0
    8.0622   -5.7500    0.0000 C   0  0  0  0  0  0  0  0  0  0  0  0
   18.0560    3.7750    0.0000 H   0  0  0  0  0  0  0  0  0  0  0  0
   18.8530    3.7750    0.0000 H   0  0  0  0  0  0  0  0  0  0  0  0
   19.7190    5.2250    0.0000 H   0  0  0  0  0  0  0  0  0  0  0  0
   18.9220    5.2250    0.0000 H   0  0  0  0  0  0  0  0  0  0  0  0
    7.5947    5.2250    0.0000 H   0  0  0  0  0  0  0  0  0  0  0  0
    6.7976    5.2250    0.0000 H   0  0  0  0  0  0  0  0  0  0  0  0
   10.8723   -1.8326    0.0000 H   0  0  0  0  0  0  0  0  0  0  0  0
   11.2708   -1.1423    0.0000 H   0  0  0  0  0  0  0  0  0  0  0  0
   17.9870    5.2250    0.0000 H   0  0  0  0  0  0  0  0  0  0  0  0
   17.1899    5.2250    0.0000 H   0  0  0  0  0  0  0  0  0  0  0  0
    5.9316    3.7750    0.0000 H   0  0  0  0  0  0  0  0  0  0  0  0
    6.7287    3.7750    0.0000 H   0  0  0  0  0  0  0  0  0  0  0  0
    9.5822   -1.1674    0.0000 H   0  0  0  0  0  0  0  0  0  0  0  0
    9.1836   -1.8577    0.0000 H   0  0  0  0  0  0  0  0  0  0  0  0
    7.6636    3.7750    0.0000 H   0  0  0  0  0  0  0  0  0  0  0  0
    8.4607    3.7750    0.0000 H   0  0  0  0  0  0  0  0  0  0  0  0
   10.4482    0.3326    0.0000 H   0  0  0  0  0  0  0  0  0  0  0  0
   10.0497   -0.3577    0.0000 H   0  0  0  0  0  0  0  0  0  0  0  0
   19.7880    3.7750    0.0000 H   0  0  0  0  0  0  0  0  0  0  0  0
   20.5851    3.7750    0.0000 H   0  0  0  0  0  0  0  0  0  0  0  0
    5.8626    5.2250    0.0000 H   0  0  0  0  0  0  0  0  0  0  0  0
    5.0656    5.2250    0.0000 H   0  0  0  0  0  0  0  0  0  0  0  0
   10.0063   -3.3326    0.0000 H   0  0  0  0  0  0  0  0  0  0  0  0
   10.4048   -2.6423    0.0000 H   0  0  0  0  0  0  0  0  0  0  0  0
   16.3239    3.7750    0.0000 H   0  0  0  0  0  0  0  0  0  0  0  0
   17.1210    3.7750    0.0000 H   0  0  0  0  0  0  0  0  0  0  0  0
    9.3267    5.2250    0.0000 H   0  0  0  0  0  0  0  0  0  0  0  0
    8.5297    5.2250    0.0000 H   0  0  0  0  0  0  0  0  0  0  0  0
   11.7383   -0.3326    0.0000 H   0  0  0  0  0  0  0  0  0  0  0  0
   12.1369    0.3577    0.0000 H   0  0  0  0  0  0  0  0  0  0  0  0
   21.4511    5.2250    0.0000 H   0  0  0  0  0  0  0  0  0  0  0  0
   20.6540    5.2250    0.0000 H   0  0  0  0  0  0  0  0  0  0  0  0
    4.1996    3.7750    0.0000 H   0  0  0  0  0  0  0  0  0  0  0  0
    4.9966    3.7750    0.0000 H   0  0  0  0  0  0  0  0  0  0  0  0
    8.7162   -2.6674    0.0000 H   0  0  0  0  0  0  0  0  0  0  0  0
    8.3176   -3.3577    0.0000 H   0  0  0  0  0  0  0  0  0  0  0  0
   16.2549    5.2250    0.0000 H   0  0  0  0  0  0  0  0  0  0  0  0
   15.4579    5.2250    0.0000 H   0  0  0  0  0  0  0  0  0  0  0  0
    9.3957    3.7750    0.0000 H   0  0  0  0  0  0  0  0  0  0  0  0
   10.1928    3.7750    0.0000 H   0  0  0  0  0  0  0  0  0  0  0  0
   11.3142    1.8326    0.0000 H   0  0  0  0  0  0  0  0  0  0  0  0
   10.9157    1.1423    0.0000 H   0  0  0  0  0  0  0  0  0  0  0  0
   13.7953    3.9400    0.0000 H   0  0  0  0  0  0  0  0  0  0  0  0
   21.5201    3.7750    0.0000 H   0  0  0  0  0  0  0  0  0  0  0  0
   22.3171    3.7750    0.0000 H   0  0  0  0  0  0  0  0  0  0  0  0
    4.1306    5.2250    0.0000 H   0  0  0  0  0  0  0  0  0  0  0  0
    3.3335    5.2250    0.0000 H   0  0  0  0  0  0  0  0  0  0  0  0
    9.1403   -4.8326    0.0000 H   0  0  0  0  0  0  0  0  0  0  0  0
    9.5388   -4.1423    0.0000 H   0  0  0  0  0  0  0  0  0  0  0  0
   12.7908    5.2250    0.0000 H   0  0  0  0  0  0  0  0  0  0  0  0
   11.9938    5.2250    0.0000 H   0  0  0  0  0  0  0  0  0  0  0  0
   13.4704    2.6674    0.0000 H   0  0  0  0  0  0  0  0  0  0  0  0
   13.8689    3.3577    0.0000 H   0  0  0  0  0  0  0  0  0  0  0  0
   22.7846    5.3700    0.0000 H   0  0  0  0  0  0  0  0  0  0  0  0
    2.8660    3.6300    0.0000 H   0  0  0  0  0  0  0  0  0  0  0  0
    7.5252   -4.4400    0.0000 H   0  0  0  0  0  0  0  0  0  0  0  0
   23.6506    3.6300    0.0000 H   0  0  0  0  0  0  0  0  0  0  0  0
   24.1876    4.5600    0.0000 H   0  0  0  0  0  0  0  0  0  0  0  0
    2.0000    5.3700    0.0000 H   0  0  0  0  0  0  0  0  0  0  0  0
    1.4631    4.4400    0.0000 H   0  0  0  0  0  0  0  0  0  0  0  0
    7.5252   -6.0600    0.0000 H   0  0  0  0  0  0  0  0  0  0  0  0
    8.5991   -6.0600    0.0000 H   0  0  0  0  0  0  0  0  0  0  0  0
  1 28  1  0  0  0  0
  1 34  1  0  0  0  0
  2 32  1  0  0  0  0
  2 35  1  0  0  0  0
  3 33  1  0  0  0  0
  3 36  1  0  0  0  0
  4 34  2  0  0  0  0
  5 35  2  0  0  0  0
  6 36  2  0  0  0  0
  7  8  1  0  0  0  0
  7 11  1  0  0  0  0
  7 43  1  0  0  0  0
  7 44  1  0  0  0  0
  8 16  1  0  0  0  0
  8 45  1  0  0  0  0
  8 46  1  0  0  0  0
  9 12  1  0  0  0  0
  9 14  1  0  0  0  0
  9 47  1  0  0  0  0
  9 48  1  0  0  0  0
 10 13  1  0  0  0  0
 10 15  1  0  0  0  0
 10 49  1  0  0  0  0
 10 50  1  0  0  0  0
 11 19  1  0  0  0  0
 11 51  1  0  0  0  0
 11 52  1  0  0  0  0
 12 17  1  0  0  0  0
 12 53  1  0  0  0  0
 12 54  1  0  0  0  0
 13 18  1  0  0  0  0
 13 55  1  0  0  0  0
 13 56  1  0  0  0  0
 14 20  1  0  0  0  0
 14 57  1  0  0  0  0
 14 58  1  0  0  0  0
 15 21  1  0  0  0  0
 15 59  1  0  0  0  0
 15 60  1  0  0  0  0
 16 22  1  0  0  0  0
 16 61  1  0  0  0  0
 16 62  1  0  0  0  0
 17 23  1  0  0  0  0
 17 63  1  0  0  0  0
 17 64  1  0  0  0  0
 18 24  1  0  0  0  0
 18 65  1  0  0  0  0
 18 66  1  0  0  0  0
 19 25  1  0  0  0  0
 19 67  1  0  0  0  0
 19 68  1  0  0  0  0
 20 26  1  0  0  0  0
 20 69  1  0  0  0  0
 20 70  1  0  0  0  0
 21 27  1  0  0  0  0
 21 71  1  0  0  0  0
 21 72  1  0  0  0  0
 22 29  1  0  0  0  0
 22 73  1  0  0  0  0
 22 74  1  0  0  0  0
 23 30  1  0  0  0  0
 23 75  1  0  0  0  0
 23 76  1  0  0  0  0
 24 31  1  0  0  0  0
 24 77  1  0  0  0  0
 24 78  1  0  0  0  0
 25 34  1  0  0  0  0
 25 79  1  0  0  0  0
 25 80  1  0  0  0  0
 26 35  1  0  0  0  0
 26 81  1  0  0  0  0
 26 82  1  0  0  0  0
 27 36  1  0  0  0  0
 27 83  1  0  0  0  0
 27 84  1  0  0  0  0
 28 32  1  0  0  0  0
 28 33  1  0  0  0  0
 28 85  1  0  0  0  0
 29 37  1  0  0  0  0
 29 86  1  0  0  0  0
 29 87  1  0  0  0  0
 30 38  1  0  0  0  0
 30 88  1  0  0  0  0
 30 89  1  0  0  0  0
 31 39  1  0  0  0  0
 31 90  1  0  0  0  0
 31 91  1  0  0  0  0
 32 92  1  0  0  0  0
 32 93  1  0  0  0  0
 33 94  1  0  0  0  0
 33 95  1  0  0  0  0
 37 40  2  0  0  0  0
 37 96  1  0  0  0  0
 38 41  2  0  0  0  0
 38 97  1  0  0  0  0
 39 42  2  0  0  0  0
 39 98  1  0  0  0  0
 40 99  1  0  0  0  0
 40100  1  0  0  0  0
 41101  1  0  0  0  0
 41102  1  0  0  0  0
 42103  1  0  0  0  0
 42104  1  0  0  0  0
M  END
> <PUBCHEM_COMPOUND_CID>
13365716

> <PUBCHEM_COMPOUND_CANONICALIZED>
1

> <PUBCHEM_CACTVS_COMPLEXITY>
661

> <PUBCHEM_CACTVS_HBOND_ACCEPTOR>
6

> <PUBCHEM_CACTVS_HBOND_DONOR>
0

> <PUBCHEM_CACTVS_ROTATABLE_BOND>
35

> <PUBCHEM_CACTVS_SUBSKEYS>
AAADcfB8OAAAAAAAAAAAAAAAAAAAAAAAAAAAAAAAAAAAAAAAAAAAGgAAAAAACBSggAIACAAABACIACDSCAAAAAAgAAAIAAEAAAgBABIAAQACAAAFgAACAAGIyKCAAAAAAAAAAAAAAAAAAAAAAAAAAAAAAA==

> <PUBCHEM_IUPAC_OPENEYE_NAME>
2,3-di(undec-10-enoyloxy)propyl undec-10-enoate

> <PUBCHEM_IUPAC_CAS_NAME>
10-undecenoic acid 2,3-bis(1-oxoundec-10-enoxy)propyl ester

> <PUBCHEM_IUPAC_NAME_MARKUP>
2,3-di(undec-10-enoyloxy)propyl undec-10-enoate

> <PUBCHEM_IUPAC_NAME>
2,3-di(undec-10-enoyloxy)propyl undec-10-enoate

> <PUBCHEM_IUPAC_SYSTEMATIC_NAME>
2,3-di(undec-10-enoyloxy)propyl undec-10-enoate

> <PUBCHEM_IUPAC_TRADITIONAL_NAME>
undec-10-enoic acid 2,3-di(undec-10-enoyloxy)propyl ester

> <PUBCHEM_IUPAC_INCHI>
InChI=1S/C36H62O6/c1-4-7-10-13-16-19-22-25-28-34(37)40-31-33(42-36(39)30-27-24-21-18-15-12-9-6-3)32-41-35(38)29-26-23-20-17-14-11-8-5-2/h4-6,33H,1-3,7-32H2

> <PUBCHEM_IUPAC_INCHIKEY>
LQAWJXRQRYWNFI-UHFFFAOYSA-N

> <PUBCHEM_XLOGP3_AA>
12.3

> <PUBCHEM_EXACT_MASS>
590.45463969

> <PUBCHEM_MOLECULAR_FORMULA>
C36H62O6

> <PUBCHEM_MOLECULAR_WEIGHT>
590.9

> <PUBCHEM_OPENEYE_CAN_SMILES>
C=CCCCCCCCCC(=O)OCC(COC(=O)CCCCCCCCC=C)OC(=O)CCCCCCCCC=C

> <PUBCHEM_OPENEYE_ISO_SMILES>
C=CCCCCCCCCC(=O)OCC(COC(=O)CCCCCCCCC=C)OC(=O)CCCCCCCCC=C

> <PUBCHEM_CACTVS_TPSA>
78.9

> <PUBCHEM_MONOISOTOPIC_WEIGHT>
590.45463969

> <PUBCHEM_TOTAL_CHARGE>
0

> <PUBCHEM_HEAVY_ATOM_COUNT>
42

> <PUBCHEM_ATOM_DEF_STEREO_COUNT>
0

> <PUBCHEM_ATOM_UDEF_STEREO_COUNT>
0

> <PUBCHEM_BOND_DEF_STEREO_COUNT>
0

> <PUBCHEM_BOND_UDEF_STEREO_COUNT>
0

> <PUBCHEM_ISOTOPIC_ATOM_COUNT>
0

> <PUBCHEM_COMPONENT_COUNT>
1

> <PUBCHEM_CACTVS_TAUTO_COUNT>
-1

> <PUBCHEM_COORDINATE_TYPE>
1
5
255

$$$$
