138035
  -OEChem-11012400573D

 22 23  0     0  0  0  0  0  0999 V2000
   -1.0031    1.6277    1.6473 O   0  0  0  0  0  0  0  0  0  0  0  0
   -1.0039   -1.6277   -1.6473 O   0  0  0  0  0  0  0  0  0  0  0  0
    1.0030   -1.6478    1.6273 O   0  0  0  0  0  0  0  0  0  0  0  0
    1.0040    1.6478   -1.6274 O   0  0  0  0  0  0  0  0  0  0  0  0
   -0.6818    0.0000   -0.0002 N   0  0  0  0  0  0  0  0  0  0  0  0
    0.6818    0.0000   -0.0002 N   0  0  0  0  0  0  0  0  0  0  0  0
   -2.8581    0.5385    0.5424 C   0  0  0  0  0  0  0  0  0  0  0  0
   -2.8585   -0.5379   -0.5421 C   0  0  0  0  0  0  0  0  0  0  0  0
    2.8582   -0.5451    0.5358 C   0  0  0  0  0  0  0  0  0  0  0  0
    2.8585    0.5445   -0.5355 C   0  0  0  0  0  0  0  0  0  0  0  0
   -1.4074    0.8173    0.8272 C   0  0  0  0  0  0  0  0  0  0  0  0
   -1.4078   -0.8171   -0.8273 C   0  0  0  0  0  0  0  0  0  0  0  0
    1.4073   -0.8273    0.8171 C   0  0  0  0  0  0  0  0  0  0  0  0
    1.4079    0.8271   -0.8172 C   0  0  0  0  0  0  0  0  0  0  0  0
   -3.3522    0.1853    1.4522 H   0  0  0  0  0  0  0  0  0  0  0  0
   -3.3481    1.4526    0.1941 H   0  0  0  0  0  0  0  0  0  0  0  0
   -3.3527   -0.1845   -1.4519 H   0  0  0  0  0  0  0  0  0  0  0  0
   -3.3487   -1.4517   -0.1938 H   0  0  0  0  0  0  0  0  0  0  0  0
    3.3522   -0.2031    1.4500 H   0  0  0  0  0  0  0  0  0  0  0  0
    3.3481   -1.4549    0.1765 H   0  0  0  0  0  0  0  0  0  0  0  0
    3.3527    0.2023   -1.4494 H   0  0  0  0  0  0  0  0  0  0  0  0
    3.3487    1.4540   -0.1759 H   0  0  0  0  0  0  0  0  0  0  0  0
  1 11  2  0  0  0  0
  2 12  2  0  0  0  0
  3 13  2  0  0  0  0
  4 14  2  0  0  0  0
  5  6  1  0  0  0  0
  5 11  1  0  0  0  0
  5 12  1  0  0  0  0
  6 13  1  0  0  0  0
  6 14  1  0  0  0  0
  7  8  1  0  0  0  0
  7 11  1  0  0  0  0
  7 15  1  0  0  0  0
  7 16  1  0  0  0  0
  8 12  1  0  0  0  0
  8 17  1  0  0  0  0
  8 18  1  0  0  0  0
  9 10  1  0  0  0  0
  9 13  1  0  0  0  0
  9 19  1  0  0  0  0
  9 20  1  0  0  0  0
 10 14  1  0  0  0  0
 10 21  1  0  0  0  0
 10 22  1  0  0  0  0
M  END
> <PUBCHEM_COMPOUND_CID>
138035

> <PUBCHEM_CONFORMER_RMSD>
0.6

> <PUBCHEM_CONFORMER_DIVERSEORDER>
1
2
3

> <PUBCHEM_MMFF94_PARTIAL_CHARGES>
14
1 -0.57
10 0.06
11 0.57
12 0.57
13 0.57
14 0.57
2 -0.57
3 -0.57
4 -0.57
5 -0.12
6 -0.12
7 0.06
8 0.06
9 0.06

> <PUBCHEM_EFFECTIVE_ROTOR_COUNT>
2.2

> <PUBCHEM_PHARMACOPHORE_FEATURES>
6
1 1 acceptor
1 2 acceptor
1 3 acceptor
1 4 acceptor
5 5 7 8 11 12 rings
5 6 9 10 13 14 rings

> <PUBCHEM_HEAVY_ATOM_COUNT>
14

> <PUBCHEM_ATOM_DEF_STEREO_COUNT>
0

> <PUBCHEM_ATOM_UDEF_STEREO_COUNT>
0

> <PUBCHEM_BOND_DEF_STEREO_COUNT>
0

> <PUBCHEM_BOND_UDEF_STEREO_COUNT>
0

> <PUBCHEM_ISOTOPIC_ATOM_COUNT>
0

> <PUBCHEM_COMPONENT_COUNT>
1

> <PUBCHEM_CACTVS_TAUTO_COUNT>
6

> <PUBCHEM_CONFORMER_ID>
00021B3300000001

> <PUBCHEM_MMFF94_ENERGY>
18.3728

> <PUBCHEM_FEATURE_SELFOVERLAP>
30.449

> <PUBCHEM_SHAPE_FINGERPRINT>
11578080 2 17834346329313889197
12423570 1 12992755079760644823
12716758 59 17346047675094664102
13538477 17 18341609360620504135
13839132 238 16915951655733586040
13898156 1 18343301465717604353
14817 1 12311658920910321943
15207287 21 15719384070599213698
15219456 202 15936408944270528556
15775835 57 18410865360033502060
16945 1 18408603651777289487
18534176 82 16917076585077812628
20201158 50 16370720396612820178
22802520 49 16701202809923356381
23236772 104 18410857693632572672
23402539 116 17203600459027494965
23559900 14 17060063614821814228
5084963 1 18335145301368925308
528886 8 17821719576518909744
63268167 104 18187083970661923348
77492 1 18410575084663078918

> <PUBCHEM_SHAPE_MULTIPOLES>
254.67
4.15
1.51
1.51
0
0
0
0
0
0.04
0
-0.04
0
-1.2

> <PUBCHEM_SHAPE_SELFOVERLAP>
545.522

> <PUBCHEM_SHAPE_VOLUME>
143.6

> <PUBCHEM_COORDINATE_TYPE>
2
5
10

$$$$
