600030
  -OEChem-11012400313D

 34 35  0     0  0  0  0  0  0999 V2000
    3.1013   -0.4241   -0.0119 S   0  0  0  0  0  0  0  0  0  0  0  0
    0.2678    0.4970   -0.0019 Si  0  0  0  0  0  0  0  0  0  0  0  0
   -0.0618   -0.4327   -1.3605 O   0  0  0  0  0  0  0  0  0  0  0  0
   -0.0598   -0.4269    1.3613 O   0  0  0  0  0  0  0  0  0  0  0  0
   -0.7670    1.8191   -0.0040 O   0  0  0  0  0  0  0  0  0  0  0  0
   -2.8793   -0.4913    0.0026 N   0  0  0  0  0  0  0  0  0  0  0  0
   -2.4180   -1.2008   -1.1871 C   0  0  0  0  0  0  0  0  0  0  0  0
   -2.4725   -1.0158    1.3029 C   0  0  0  0  0  0  0  0  0  0  0  0
   -3.0914    0.9489   -0.1091 C   0  0  0  0  0  0  0  0  0  0  0  0
   -0.9253   -1.5621   -1.2593 C   0  0  0  0  0  0  0  0  0  0  0  0
   -1.3165   -0.3013    2.0222 C   0  0  0  0  0  0  0  0  0  0  0  0
   -1.9735    1.7789   -0.7617 C   0  0  0  0  0  0  0  0  0  0  0  0
    2.0490    1.0563   -0.0043 C   0  0  0  0  0  0  0  0  0  0  0  0
    4.7154    0.3911    0.0067 C   0  0  0  0  0  0  0  0  0  0  0  0
    5.8314   -0.6364    0.0041 C   0  0  0  0  0  0  0  0  0  0  0  0
   -2.7002   -0.6443   -2.0894 H   0  0  0  0  0  0  0  0  0  0  0  0
   -2.9824   -2.1405   -1.2422 H   0  0  0  0  0  0  0  0  0  0  0  0
   -2.2426   -2.0855    1.2213 H   0  0  0  0  0  0  0  0  0  0  0  0
   -3.3483   -0.9608    1.9621 H   0  0  0  0  0  0  0  0  0  0  0  0
   -3.3288    1.3711    0.8753 H   0  0  0  0  0  0  0  0  0  0  0  0
   -3.9981    1.0965   -0.7099 H   0  0  0  0  0  0  0  0  0  0  0  0
   -0.6156   -2.2286   -0.4446 H   0  0  0  0  0  0  0  0  0  0  0  0
   -0.7711   -2.1418   -2.1780 H   0  0  0  0  0  0  0  0  0  0  0  0
   -1.5465    0.7482    2.2452 H   0  0  0  0  0  0  0  0  0  0  0  0
   -1.1910   -0.7813    3.0006 H   0  0  0  0  0  0  0  0  0  0  0  0
   -1.7824    1.4809   -1.8003 H   0  0  0  0  0  0  0  0  0  0  0  0
   -2.3259    2.8161   -0.8215 H   0  0  0  0  0  0  0  0  0  0  0  0
    2.2587    1.6589   -0.8928 H   0  0  0  0  0  0  0  0  0  0  0  0
    2.2620    1.6529    0.8875 H   0  0  0  0  0  0  0  0  0  0  0  0
    4.8062    1.0337   -0.8746 H   0  0  0  0  0  0  0  0  0  0  0  0
    4.7945    1.0162    0.9016 H   0  0  0  0  0  0  0  0  0  0  0  0
    5.7849   -1.2834    0.8867 H   0  0  0  0  0  0  0  0  0  0  0  0
    5.7967   -1.2660   -0.8916 H   0  0  0  0  0  0  0  0  0  0  0  0
    6.8030   -0.1313    0.0154 H   0  0  0  0  0  0  0  0  0  0  0  0
  1 13  1  0  0  0  0
  1 14  1  0  0  0  0
  2  3  1  0  0  0  0
  2  4  1  0  0  0  0
  2  5  1  0  0  0  0
  2 13  1  0  0  0  0
  3 10  1  0  0  0  0
  4 11  1  0  0  0  0
  5 12  1  0  0  0  0
  6  7  1  0  0  0  0
  6  8  1  0  0  0  0
  6  9  1  0  0  0  0
  7 10  1  0  0  0  0
  7 16  1  0  0  0  0
  7 17  1  0  0  0  0
  8 11  1  0  0  0  0
  8 18  1  0  0  0  0
  8 19  1  0  0  0  0
  9 12  1  0  0  0  0
  9 20  1  0  0  0  0
  9 21  1  0  0  0  0
 10 22  1  0  0  0  0
 10 23  1  0  0  0  0
 11 24  1  0  0  0  0
 11 25  1  0  0  0  0
 12 26  1  0  0  0  0
 12 27  1  0  0  0  0
 13 28  1  0  0  0  0
 13 29  1  0  0  0  0
 14 15  1  0  0  0  0
 14 30  1  0  0  0  0
 14 31  1  0  0  0  0
 15 32  1  0  0  0  0
 15 33  1  0  0  0  0
 15 34  1  0  0  0  0
M  END
> <PUBCHEM_COMPOUND_CID>
600030

> <PUBCHEM_CONFORMER_RMSD>
0.6

> <PUBCHEM_CONFORMER_DIVERSEORDER>
1
3
5
2
6
4

> <PUBCHEM_MMFF94_PARTIAL_CHARGES>
14
1 -0.46
10 0.28
11 0.28
12 0.28
13 0.15
14 0.23
2 0.97
3 -0.58
4 -0.58
5 -0.58
6 -0.81
7 0.27
8 0.27
9 0.27

> <PUBCHEM_EFFECTIVE_ROTOR_COUNT>
4.8

> <PUBCHEM_PHARMACOPHORE_FEATURES>
2
1 15 hydrophobe
1 6 cation

> <PUBCHEM_HEAVY_ATOM_COUNT>
15

> <PUBCHEM_ATOM_DEF_STEREO_COUNT>
0

> <PUBCHEM_ATOM_UDEF_STEREO_COUNT>
0

> <PUBCHEM_BOND_DEF_STEREO_COUNT>
0

> <PUBCHEM_BOND_UDEF_STEREO_COUNT>
0

> <PUBCHEM_ISOTOPIC_ATOM_COUNT>
0

> <PUBCHEM_COMPONENT_COUNT>
1

> <PUBCHEM_CACTVS_TAUTO_COUNT>
1

> <PUBCHEM_CONFORMER_ID>
000927DE00000001

> <PUBCHEM_MMFF94_ENERGY>
41.5462

> <PUBCHEM_FEATURE_SELFOVERLAP>
10.148

> <PUBCHEM_SHAPE_FINGERPRINT>
10680689 15 18412829084254367804
11132069 177 17703799123736035182
12423570 1 17911217444214636107
13024252 1 17240482515919244105
14577589 140 18412826884571716292
14817 1 13575927449141219417
15309172 13 17989214741425269022
16945 1 17604134996074600961
18186145 218 17095516336013983228
200 152 18342174475384973312
2306618 200 17846499218455544296
23402539 116 18335419089013448719
23419403 2 14278780571824287501
23559900 14 17895194450342305524
4175511 318 18343864402991975732
559249 180 18044647612857374594

> <PUBCHEM_SHAPE_MULTIPOLES>
308.17
7.75
1.59
1.44
14.94
0.34
0.43
-1.04
-0.02
-0.98
-0.39
-1.1
-0.48
0.12

> <PUBCHEM_SHAPE_SELFOVERLAP>
584.533

> <PUBCHEM_SHAPE_VOLUME>
189.1

> <PUBCHEM_COORDINATE_TYPE>
2
5
10

$$$$
