141195
  -OEChem-11012401093D

 11 10  0     0  0  0  0  0  0999 V2000
    2.1612   -0.4974    0.3322 O   0  5  0  0  0  0  0  0  0  0  0  0
   -2.2539   -0.3976   -0.0862 O   0  5  0  0  0  0  0  0  0  0  0  0
    1.2514    1.3963   -0.3323 O   0  0  0  0  0  0  0  0  0  0  0  0
   -1.1158    1.4291    0.3570 O   0  0  0  0  0  0  0  0  0  0  0  0
   -0.0123   -0.4589   -0.2570 N   0  0  0  0  0  0  0  0  0  0  0  0
    1.2093    0.1907   -0.0561 N   0  3  0  0  0  0  0  0  0  0  0  0
   -1.1993    0.2396    0.0273 N   0  3  0  0  0  0  0  0  0  0  0  0
   -0.0407   -1.9018    0.0152 C   0  0  0  0  0  0  0  0  0  0  0  0
    0.8166   -2.4134   -0.4389 H   0  0  0  0  0  0  0  0  0  0  0  0
   -0.9222   -2.3851   -0.4220 H   0  0  0  0  0  0  0  0  0  0  0  0
   -0.0357   -2.1019    1.0928 H   0  0  0  0  0  0  0  0  0  0  0  0
  1  6  1  0  0  0  0
  2  7  1  0  0  0  0
  3  6  2  0  0  0  0
  4  7  2  0  0  0  0
  5  6  1  0  0  0  0
  5  7  1  0  0  0  0
  5  8  1  0  0  0  0
  8  9  1  0  0  0  0
  8 10  1  0  0  0  0
  8 11  1  0  0  0  0
M  CHG  4   1  -1   2  -1   6   1   7   1
M  END
> <PUBCHEM_COMPOUND_CID>
141195

> <PUBCHEM_CONFORMER_RMSD>
0.4

> <PUBCHEM_CONFORMER_DIVERSEORDER>
2
6
5
1
4
3

> <PUBCHEM_MMFF94_PARTIAL_CHARGES>
8
1 -0.52
2 -0.52
3 -0.52
4 -0.52
5 -0.26
6 1.03
7 1.03
8 0.27

> <PUBCHEM_EFFECTIVE_ROTOR_COUNT>
2

> <PUBCHEM_PHARMACOPHORE_FEATURES>
4
1 1 acceptor
1 2 acceptor
1 3 acceptor
1 4 acceptor

> <PUBCHEM_HEAVY_ATOM_COUNT>
8

> <PUBCHEM_ATOM_DEF_STEREO_COUNT>
0

> <PUBCHEM_ATOM_UDEF_STEREO_COUNT>
0

> <PUBCHEM_BOND_DEF_STEREO_COUNT>
0

> <PUBCHEM_BOND_UDEF_STEREO_COUNT>
0

> <PUBCHEM_ISOTOPIC_ATOM_COUNT>
0

> <PUBCHEM_COMPONENT_COUNT>
1

> <PUBCHEM_CACTVS_TAUTO_COUNT>
1

> <PUBCHEM_CONFORMER_ID>
0002278B00000002

> <PUBCHEM_MMFF94_ENERGY>
27.7449

> <PUBCHEM_FEATURE_SELFOVERLAP>
20.482

> <PUBCHEM_SHAPE_FINGERPRINT>
18185500 45 18268145357834348019
20096714 4 18410014363924330284
21040471 1 18339080522225194444
5084963 1 18202004308795576274

> <PUBCHEM_SHAPE_MULTIPOLES>
126.22
2.34
1.65
0.57
0.08
0.3
0
-0.16
0.12
-0.01
0.02
-0.02
0
-0.19

> <PUBCHEM_SHAPE_SELFOVERLAP>
237.028

> <PUBCHEM_SHAPE_VOLUME>
79.2

> <PUBCHEM_COORDINATE_TYPE>
2
5
10

$$$$
