21596543
  -OEChem-11012400573D

 37 41  0     1  0  0  0  0  0999 V2000
   -0.3998    0.4166    0.7744 C   0  0  2  0  0  0  0  0  0  0  0  0
   -0.3997    0.4172   -0.7739 C   0  0  1  0  0  0  0  0  0  0  0  0
    0.3712   -0.8743    1.1208 C   0  0  2  0  0  0  0  0  0  0  0  0
    0.3711   -0.8735   -1.1213 C   0  0  1  0  0  0  0  0  0  0  0  0
    1.8852   -0.7271    0.7765 C   0  0  1  0  0  0  0  0  0  0  0  0
    1.8851   -0.7264   -0.7771 C   0  0  2  0  0  0  0  0  0  0  0  0
   -1.8954    0.6244    1.1170 C   0  0  1  0  0  0  0  0  0  0  0  0
   -1.8952    0.6254   -1.1165 C   0  0  2  0  0  0  0  0  0  0  0  0
   -0.0023   -1.8532   -0.0006 C   0  0  0  0  0  0  0  0  0  0  0  0
   -2.2908    1.6066    0.0005 C   0  0  0  0  0  0  0  0  0  0  0  0
   -2.8070   -0.5589    0.7695 C   0  0  0  0  0  0  0  0  0  0  0  0
   -2.8070   -0.5583   -0.7701 C   0  0  0  0  0  0  0  0  0  0  0  0
    2.6474    0.5188    1.2123 C   0  0  0  0  0  0  0  0  0  0  0  0
    2.6472    0.5198   -1.2120 C   0  0  0  0  0  0  0  0  0  0  0  0
    2.6900    1.4429    0.0005 C   0  0  0  0  0  0  0  0  0  0  0  0
    0.1273    1.2933    1.1642 H   0  0  0  0  0  0  0  0  0  0  0  0
    0.1275    1.2942   -1.1629 H   0  0  0  0  0  0  0  0  0  0  0  0
    0.1963   -1.2377    2.1356 H   0  0  0  0  0  0  0  0  0  0  0  0
    0.1961   -1.2360   -2.1362 H   0  0  0  0  0  0  0  0  0  0  0  0
    2.4115   -1.6164    1.1495 H   0  0  0  0  0  0  0  0  0  0  0  0
    2.4114   -1.6154   -1.1508 H   0  0  0  0  0  0  0  0  0  0  0  0
   -2.0513    1.0003    2.1308 H   0  0  0  0  0  0  0  0  0  0  0  0
   -2.0509    1.0019   -2.1302 H   0  0  0  0  0  0  0  0  0  0  0  0
    0.6195   -2.7583   -0.0010 H   0  0  0  0  0  0  0  0  0  0  0  0
   -1.0265   -2.1998   -0.0007 H   0  0  0  0  0  0  0  0  0  0  0  0
   -3.3567    1.8604    0.0005 H   0  0  0  0  0  0  0  0  0  0  0  0
   -1.7008    2.5298    0.0010 H   0  0  0  0  0  0  0  0  0  0  0  0
   -3.8258   -0.3673    1.1296 H   0  0  0  0  0  0  0  0  0  0  0  0
   -2.4915   -1.5002    1.2228 H   0  0  0  0  0  0  0  0  0  0  0  0
   -2.4913   -1.4992   -1.2240 H   0  0  0  0  0  0  0  0  0  0  0  0
   -3.8257   -0.3664   -1.1302 H   0  0  0  0  0  0  0  0  0  0  0  0
    3.6758    0.2334    1.4675 H   0  0  0  0  0  0  0  0  0  0  0  0
    2.2219    1.0007    2.0973 H   0  0  0  0  0  0  0  0  0  0  0  0
    2.2217    1.0022   -2.0967 H   0  0  0  0  0  0  0  0  0  0  0  0
    3.6757    0.2345   -1.4676 H   0  0  0  0  0  0  0  0  0  0  0  0
    1.8373    2.1272    0.0008 H   0  0  0  0  0  0  0  0  0  0  0  0
    3.5910    2.0652    0.0007 H   0  0  0  0  0  0  0  0  0  0  0  0
  1  2  1  0  0  0  0
  1  3  1  0  0  0  0
  1  7  1  0  0  0  0
  1 16  1  0  0  0  0
  2  4  1  0  0  0  0
  2  8  1  0  0  0  0
  2 17  1  0  0  0  0
  3  5  1  0  0  0  0
  3  9  1  0  0  0  0
  3 18  1  0  0  0  0
  4  6  1  0  0  0  0
  4  9  1  0  0  0  0
  4 19  1  0  0  0  0
  5  6  1  0  0  0  0
  5 13  1  0  0  0  0
  5 20  1  0  0  0  0
  6 14  1  0  0  0  0
  6 21  1  0  0  0  0
  7 10  1  0  0  0  0
  7 11  1  0  0  0  0
  7 22  1  0  0  0  0
  8 10  1  0  0  0  0
  8 12  1  0  0  0  0
  8 23  1  0  0  0  0
  9 24  1  0  0  0  0
  9 25  1  0  0  0  0
 10 26  1  0  0  0  0
 10 27  1  0  0  0  0
 11 12  1  0  0  0  0
 11 28  1  0  0  0  0
 11 29  1  0  0  0  0
 12 30  1  0  0  0  0
 12 31  1  0  0  0  0
 13 15  1  0  0  0  0
 13 32  1  0  0  0  0
 13 33  1  0  0  0  0
 14 15  1  0  0  0  0
 14 34  1  0  0  0  0
 14 35  1  0  0  0  0
 15 36  1  0  0  0  0
 15 37  1  0  0  0  0
M  END
> <PUBCHEM_COMPOUND_CID>
21596543

> <PUBCHEM_CONFORMER_RMSD>
0.6

> <PUBCHEM_CONFORMER_DIVERSEORDER>
1

> <PUBCHEM_MMFF94_PARTIAL_CHARGES>
0

> <PUBCHEM_EFFECTIVE_ROTOR_COUNT>
1.4

> <PUBCHEM_PHARMACOPHORE_FEATURES>
3
5 5 6 13 14 15 rings
7 1 2 3 4 5 6 9 rings
7 1 2 7 8 10 11 12 rings

> <PUBCHEM_HEAVY_ATOM_COUNT>
15

> <PUBCHEM_ATOM_DEF_STEREO_COUNT>
8

> <PUBCHEM_ATOM_UDEF_STEREO_COUNT>
0

> <PUBCHEM_BOND_DEF_STEREO_COUNT>
0

> <PUBCHEM_BOND_UDEF_STEREO_COUNT>
0

> <PUBCHEM_ISOTOPIC_ATOM_COUNT>
0

> <PUBCHEM_COMPONENT_COUNT>
1

> <PUBCHEM_CACTVS_TAUTO_COUNT>
1

> <PUBCHEM_CONFORMER_ID>
0149897F00000001

> <PUBCHEM_MMFF94_ENERGY>
83.406

> <PUBCHEM_FEATURE_SELFOVERLAP>
15.433

> <PUBCHEM_SHAPE_FINGERPRINT>
10353120 184 13829864499255279411
10863032 1 16226037937999397763
11769659 78 10665522854319436161
12423570 1 13745196344650460342
12491281 212 18339656584745464416
12808571 1 16630261254578955843
13024252 1 15647323203859541587
13296908 3 11097859575013908984
13299463 15 16056602083783653004
13571099 22 11314302854099273777
13571099 52 18263350426169845069
13581323 91 18335134332428581370
15775835 57 18260266356368046444
15852999 172 16298376959938311971
16945 1 18338799025773705735
17844478 74 16702024218371759531
18186145 218 17418099810350575516
18511873 20 10735890460330454759
19422 9 15482680090943895031
20361792 2 9295287240037144488
20525323 117 18259702289955054813
21028194 46 18272085011286894120
21069387 34 13262670482717122489
22802520 49 16056887926620823436
23402539 116 17632286883360622112
23419403 2 16680312406781039903
2748010 2 15936696956266812419
296302 2 16733264633593103437
305870 269 18339914905854253730
369184 2 16008750203882109281
5084963 1 18411982425398000918
528886 8 15267346214463556087
57812782 119 17603575331391216528
74978 22 9655568617504751651
81228 2 17836928167531551178

> <PUBCHEM_SHAPE_MULTIPOLES>
308.69
4.43
1.48
1.39
0
0.05
0
-1.1
0
0.02
0
0.16
0.01
0

> <PUBCHEM_SHAPE_SELFOVERLAP>
701.046

> <PUBCHEM_SHAPE_VOLUME>
158.6

> <PUBCHEM_COORDINATE_TYPE>
2
5
10

$$$$
