136850
  -OEChem-11012401283D

 27 27  0     0  0  0  0  0  0999 V2000
   -1.0150   -2.0968   -1.2026 O   0  0  0  0  0  0  0  0  0  0  0  0
   -1.1469   -2.1936    1.0645 O   0  0  0  0  0  0  0  0  0  0  0  0
   -1.2017    1.1300    0.0049 C   0  0  0  0  0  0  0  0  0  0  0  0
    0.2405    0.5965    0.0062 C   0  0  0  0  0  0  0  0  0  0  0  0
   -1.1844    2.6737   -0.0204 C   0  0  0  0  0  0  0  0  0  0  0  0
   -1.9340    0.6513    1.2773 C   0  0  0  0  0  0  0  0  0  0  0  0
   -2.0399    0.6631   -1.2066 C   0  0  0  0  0  0  0  0  0  0  0  0
    0.4615   -0.7584    0.0264 C   0  0  0  0  0  0  0  0  0  0  0  0
    1.2554    1.5231   -0.0142 C   0  0  0  0  0  0  0  0  0  0  0  0
    1.7789   -1.2167    0.0261 C   0  0  0  0  0  0  0  0  0  0  0  0
    2.5729    1.0647   -0.0147 C   0  0  0  0  0  0  0  0  0  0  0  0
    2.8345   -0.3051    0.0056 C   0  0  0  0  0  0  0  0  0  0  0  0
   -0.6217   -1.7321    0.0475 C   0  0  0  0  0  0  0  0  0  0  0  0
   -0.7293    3.0770   -0.9333 H   0  0  0  0  0  0  0  0  0  0  0  0
   -2.2109    3.0644   -0.0068 H   0  0  0  0  0  0  0  0  0  0  0  0
   -0.7024    3.1059    0.8651 H   0  0  0  0  0  0  0  0  0  0  0  0
   -1.2656    0.5992    2.1445 H   0  0  0  0  0  0  0  0  0  0  0  0
   -2.7322    1.3578    1.5407 H   0  0  0  0  0  0  0  0  0  0  0  0
   -2.4484   -0.3044    1.1684 H   0  0  0  0  0  0  0  0  0  0  0  0
   -2.8831    1.3437   -1.3806 H   0  0  0  0  0  0  0  0  0  0  0  0
   -1.4415    0.6516   -2.1247 H   0  0  0  0  0  0  0  0  0  0  0  0
   -2.5018   -0.3168   -1.0780 H   0  0  0  0  0  0  0  0  0  0  0  0
    1.1456    2.5985   -0.0325 H   0  0  0  0  0  0  0  0  0  0  0  0
    1.9957   -2.2818    0.0417 H   0  0  0  0  0  0  0  0  0  0  0  0
    3.3961    1.7732   -0.0312 H   0  0  0  0  0  0  0  0  0  0  0  0
    3.8604   -0.6619    0.0051 H   0  0  0  0  0  0  0  0  0  0  0  0
   -1.7436   -2.7534   -1.1790 H   0  0  0  0  0  0  0  0  0  0  0  0
  1 13  1  0  0  0  0
  1 27  1  0  0  0  0
  2 13  2  0  0  0  0
  3  4  1  0  0  0  0
  3  5  1  0  0  0  0
  3  6  1  0  0  0  0
  3  7  1  0  0  0  0
  4  8  1  0  0  0  0
  4  9  2  0  0  0  0
  5 14  1  0  0  0  0
  5 15  1  0  0  0  0
  5 16  1  0  0  0  0
  6 17  1  0  0  0  0
  6 18  1  0  0  0  0
  6 19  1  0  0  0  0
  7 20  1  0  0  0  0
  7 21  1  0  0  0  0
  7 22  1  0  0  0  0
  8 10  2  0  0  0  0
  8 13  1  0  0  0  0
  9 11  1  0  0  0  0
  9 23  1  0  0  0  0
 10 12  1  0  0  0  0
 10 24  1  0  0  0  0
 11 12  2  0  0  0  0
 11 25  1  0  0  0  0
 12 26  1  0  0  0  0
M  END
> <PUBCHEM_COMPOUND_CID>
136850

> <PUBCHEM_CONFORMER_RMSD>
0.6

> <PUBCHEM_CONFORMER_DIVERSEORDER>
1
2

> <PUBCHEM_MMFF94_PARTIAL_CHARGES>
15
1 -0.65
10 -0.15
11 -0.15
12 -0.15
13 0.63
2 -0.57
23 0.15
24 0.15
25 0.15
26 0.15
27 0.5
3 0.14
4 -0.14
8 0.09
9 -0.15

> <PUBCHEM_EFFECTIVE_ROTOR_COUNT>
2

> <PUBCHEM_PHARMACOPHORE_FEATURES>
5
1 1 acceptor
1 2 acceptor
3 1 2 13 anion
4 3 5 6 7 hydrophobe
6 4 8 9 10 11 12 rings

> <PUBCHEM_HEAVY_ATOM_COUNT>
13

> <PUBCHEM_ATOM_DEF_STEREO_COUNT>
0

> <PUBCHEM_ATOM_UDEF_STEREO_COUNT>
0

> <PUBCHEM_BOND_DEF_STEREO_COUNT>
0

> <PUBCHEM_BOND_UDEF_STEREO_COUNT>
0

> <PUBCHEM_ISOTOPIC_ATOM_COUNT>
0

> <PUBCHEM_COMPONENT_COUNT>
1

> <PUBCHEM_CACTVS_TAUTO_COUNT>
1

> <PUBCHEM_CONFORMER_ID>
0002169200000001

> <PUBCHEM_MMFF94_ENERGY>
62.787

> <PUBCHEM_FEATURE_SELFOVERLAP>
25.429

> <PUBCHEM_SHAPE_FINGERPRINT>
1 1 17977381633877965364
11206711 2 18120655996528037020
12423570 1 17556578742686992183
13024252 1 16877659101653663504
14614273 12 18117268375227469828
14817 1 12011476127668485643
15490181 8 18267026055097498862
15775835 57 18200592467135894792
16945 1 18408890603101150624
20645476 183 17607275094046808878
20871998 184 18270693063751892230
21040471 1 18338235955956903984
2334 1 17978229688356318020
23419403 2 16321104006897173036
23559900 14 18198634233966514294
241688 4 15384433907917071136
2748010 2 18123748922668535132
430814 3 17415290425008249425
5084963 1 17986941973328101936
528886 8 18049999991789152112
63268167 104 18055065454785273072
81228 2 18339358698688121050

> <PUBCHEM_SHAPE_MULTIPOLES>
255.8
3.23
2.57
1
1.35
0.57
0.01
-1.1
0.02
-0.65
0.01
-0.62
0.27
0.01

> <PUBCHEM_SHAPE_SELFOVERLAP>
536.399

> <PUBCHEM_SHAPE_VOLUME>
146

> <PUBCHEM_COORDINATE_TYPE>
2
5
10

$$$$
