15594675
  -OEChem-11012400363D

 22 21  0     1  0  0  0  0  0999 V2000
   -1.3728   -0.2133    0.7869 O   0  0  0  0  0  0  0  0  0  0  0  0
   -1.5277    0.4548   -1.4132 O   0  0  0  0  0  0  0  0  0  0  0  0
    1.3324    0.3493    0.3810 N   0  0  0  0  0  0  0  0  0  0  0  0
    0.5521   -0.4750   -0.5399 C   0  0  1  0  0  0  0  0  0  0  0  0
    0.6674   -1.9404   -0.1426 C   0  0  0  0  0  0  0  0  0  0  0  0
   -0.8923   -0.0149   -0.4780 C   0  0  0  0  0  0  0  0  0  0  0  0
    1.2491    1.7595    0.0018 C   0  0  0  0  0  0  0  0  0  0  0  0
    2.7270   -0.0911    0.4062 C   0  0  0  0  0  0  0  0  0  0  0  0
   -2.7352    0.1713    0.9979 C   0  0  0  0  0  0  0  0  0  0  0  0
    0.8917   -0.3594   -1.5779 H   0  0  0  0  0  0  0  0  0  0  0  0
    0.5305   -2.0948    0.9344 H   0  0  0  0  0  0  0  0  0  0  0  0
   -0.1077   -2.5319   -0.6448 H   0  0  0  0  0  0  0  0  0  0  0  0
    1.6301   -2.3727   -0.4354 H   0  0  0  0  0  0  0  0  0  0  0  0
    1.5897    1.9332   -1.0257 H   0  0  0  0  0  0  0  0  0  0  0  0
    1.8702    2.3700    0.6682 H   0  0  0  0  0  0  0  0  0  0  0  0
    0.2347    2.1581    0.1066 H   0  0  0  0  0  0  0  0  0  0  0  0
    2.8422   -1.0665    0.8895 H   0  0  0  0  0  0  0  0  0  0  0  0
    3.3329    0.5960    1.0095 H   0  0  0  0  0  0  0  0  0  0  0  0
    3.1702   -0.1319   -0.5957 H   0  0  0  0  0  0  0  0  0  0  0  0
   -2.8581    1.2431    0.8153 H   0  0  0  0  0  0  0  0  0  0  0  0
   -2.9901   -0.0388    2.0399 H   0  0  0  0  0  0  0  0  0  0  0  0
   -3.3975   -0.4106    0.3499 H   0  0  0  0  0  0  0  0  0  0  0  0
  1  6  1  0  0  0  0
  1  9  1  0  0  0  0
  2  6  2  0  0  0  0
  3  4  1  0  0  0  0
  3  7  1  0  0  0  0
  3  8  1  0  0  0  0
  4  5  1  0  0  0  0
  4  6  1  0  0  0  0
  4 10  1  0  0  0  0
  5 11  1  0  0  0  0
  5 12  1  0  0  0  0
  5 13  1  0  0  0  0
  7 14  1  0  0  0  0
  7 15  1  0  0  0  0
  7 16  1  0  0  0  0
  8 17  1  0  0  0  0
  8 18  1  0  0  0  0
  8 19  1  0  0  0  0
  9 20  1  0  0  0  0
  9 21  1  0  0  0  0
  9 22  1  0  0  0  0
M  END
> <PUBCHEM_COMPOUND_CID>
15594675

> <PUBCHEM_CONFORMER_RMSD>
0.6

> <PUBCHEM_CONFORMER_DIVERSEORDER>
8
11
10
9
13
4
6
5
7
2
12
14
3
1

> <PUBCHEM_MMFF94_PARTIAL_CHARGES>
8
1 -0.43
2 -0.57
3 -0.81
4 0.33
6 0.66
7 0.27
8 0.27
9 0.28

> <PUBCHEM_EFFECTIVE_ROTOR_COUNT>
3

> <PUBCHEM_PHARMACOPHORE_FEATURES>
2
1 2 acceptor
1 3 cation

> <PUBCHEM_HEAVY_ATOM_COUNT>
9

> <PUBCHEM_ATOM_DEF_STEREO_COUNT>
0

> <PUBCHEM_ATOM_UDEF_STEREO_COUNT>
1

> <PUBCHEM_BOND_DEF_STEREO_COUNT>
0

> <PUBCHEM_BOND_UDEF_STEREO_COUNT>
0

> <PUBCHEM_ISOTOPIC_ATOM_COUNT>
0

> <PUBCHEM_COMPONENT_COUNT>
1

> <PUBCHEM_CACTVS_TAUTO_COUNT>
1

> <PUBCHEM_CONFORMER_ID>
00EDF4B300000008

> <PUBCHEM_MMFF94_ENERGY>
20.7987

> <PUBCHEM_FEATURE_SELFOVERLAP>
10.148

> <PUBCHEM_SHAPE_FINGERPRINT>
12423570 1 11760695375251658630
137420 1 12891073906375888214
21040471 1 18128823130064966576
23235685 24 18343587364784982144
24536 1 17772748505665639724
29004967 10 18336267834174297834
5084963 1 18127954485692939766

> <PUBCHEM_SHAPE_MULTIPOLES>
168.5
3.32
1.49
1.03
0.65
0.21
-0.16
-0.5
1.08
-0.74
-0.06
0.56
-0.07
0.03

> <PUBCHEM_SHAPE_SELFOVERLAP>
312.409

> <PUBCHEM_SHAPE_VOLUME>
108.3

> <PUBCHEM_COORDINATE_TYPE>
2
5
10

$$$$
