5462962
  -OEChem-11012401063D

 17 17  0     0  0  0  0  0  0999 V2000
    0.4145    0.2381    0.0126 O   0  0  0  0  0  0  0  0  0  0  0  0
    3.8952    0.5760   -0.0138 O   0  5  0  0  0  0  0  0  0  0  0  0
    2.2849    2.0678    0.0116 O   0  0  0  0  0  0  0  0  0  0  0  0
   -4.6667    1.2084   -0.0198 O   0  0  0  0  0  0  0  0  0  0  0  0
    2.6606    0.8584   -0.0010 N   0  3  0  0  0  0  0  0  0  0  0  0
   -0.3438   -0.8896    0.0094 C   0  0  0  0  0  0  0  0  0  0  0  0
    0.4551   -2.0091   -0.0060 C   0  0  0  0  0  0  0  0  0  0  0  0
    1.7118   -0.1659   -0.0013 C   0  0  0  0  0  0  0  0  0  0  0  0
    1.7901   -1.5391   -0.0131 C   0  0  0  0  0  0  0  0  0  0  0  0
   -1.7570   -0.8451    0.0218 C   0  0  0  0  0  0  0  0  0  0  0  0
   -2.4848    0.2927    0.0005 C   0  0  0  0  0  0  0  0  0  0  0  0
   -3.9600    0.2075   -0.0007 C   0  0  0  0  0  0  0  0  0  0  0  0
    0.1267   -3.0393   -0.0117 H   0  0  0  0  0  0  0  0  0  0  0  0
    2.6929   -2.1335   -0.0253 H   0  0  0  0  0  0  0  0  0  0  0  0
   -2.2769   -1.8008    0.0402 H   0  0  0  0  0  0  0  0  0  0  0  0
   -2.0367    1.2794   -0.0221 H   0  0  0  0  0  0  0  0  0  0  0  0
   -4.3907   -0.8075    0.0179 H   0  0  0  0  0  0  0  0  0  0  0  0
  1  6  1  0  0  0  0
  1  8  1  0  0  0  0
  2  5  1  0  0  0  0
  3  5  2  0  0  0  0
  4 12  2  0  0  0  0
  5  8  1  0  0  0  0
  6  7  2  0  0  0  0
  6 10  1  0  0  0  0
  7  9  1  0  0  0  0
  7 13  1  0  0  0  0
  8  9  2  0  0  0  0
  9 14  1  0  0  0  0
 10 11  2  0  0  0  0
 10 15  1  0  0  0  0
 11 12  1  0  0  0  0
 11 16  1  0  0  0  0
 12 17  1  0  0  0  0
M  CHG  2   2  -1   5   1
M  END
> <PUBCHEM_COMPOUND_CID>
5462962

> <PUBCHEM_CONFORMER_RMSD>
0.6

> <PUBCHEM_CONFORMER_DIVERSEORDER>
1
2

> <PUBCHEM_MMFF94_PARTIAL_CHARGES>
17
1 -0.28
10 -0.11
11 -0.14
12 0.5
13 0.15
14 0.15
15 0.15
16 0.15
17 0.06
2 -0.52
3 -0.52
4 -0.57
5 0.96
6 0.09
7 -0.15
8 0.22
9 -0.15

> <PUBCHEM_EFFECTIVE_ROTOR_COUNT>
3

> <PUBCHEM_PHARMACOPHORE_FEATURES>
6
1 1 acceptor
1 2 acceptor
1 2 anion
1 3 acceptor
1 4 acceptor
5 1 6 7 8 9 rings

> <PUBCHEM_HEAVY_ATOM_COUNT>
12

> <PUBCHEM_ATOM_DEF_STEREO_COUNT>
0

> <PUBCHEM_ATOM_UDEF_STEREO_COUNT>
0

> <PUBCHEM_BOND_DEF_STEREO_COUNT>
1

> <PUBCHEM_BOND_UDEF_STEREO_COUNT>
0

> <PUBCHEM_ISOTOPIC_ATOM_COUNT>
0

> <PUBCHEM_COMPONENT_COUNT>
1

> <PUBCHEM_CACTVS_TAUTO_COUNT>
1

> <PUBCHEM_CONFORMER_ID>
00535BB200000001

> <PUBCHEM_MMFF94_ENERGY>
16.8048

> <PUBCHEM_FEATURE_SELFOVERLAP>
30.54

> <PUBCHEM_SHAPE_FINGERPRINT>
10608611 8 18334856065971808349
11471102 20 18411134693306114823
11769659 78 9151181939034097559
122479 349 18261958569018683771
12346645 6 18341612572913260735
12932764 1 17531523179573140455
13380535 76 18409729581775777219
14325111 11 18410575085185558691
14415576 193 18341051818109796007
14897335 6 18412822499626703167
15775835 57 18342457053988866053
170605 34 18408040702087904731
18186145 218 18202016429283053731
20606313 2 18411699859351890964
20645477 70 18269553845647778863
21499 59 18411976983838077823
21524375 3 18337668714925089023
231179 274 18261108547793689861
23402539 116 18131343142112514100
23402655 69 18272365331249893613
25 1 18410572889992949414
449060 62 18341614785280126585
7364860 26 18268993098543107734

> <PUBCHEM_SHAPE_MULTIPOLES>
218.5
6.88
1.78
0.58
5.73
0.06
0
-3.79
-0.04
-1.06
0
0.04
0.05
0.02

> <PUBCHEM_SHAPE_SELFOVERLAP>
454.368

> <PUBCHEM_SHAPE_VOLUME>
124.7

> <PUBCHEM_COORDINATE_TYPE>
2
5
10

$$$$
