140792
  -OEChem-11012400523D

 28 27  0     0  0  0  0  0  0999 V2000
   -0.5598    0.1209    0.2039 N   0  0  0  0  0  0  0  0  0  0  0  0
    0.5972   -0.0834   -0.4601 N   0  0  0  0  0  0  0  0  0  0  0  0
   -3.0323   -0.1089    0.3447 C   0  0  0  0  0  0  0  0  0  0  0  0
   -1.7299   -0.5358   -0.3540 C   0  0  0  0  0  0  0  0  0  0  0  0
   -3.1994    1.4096    0.2427 C   0  0  0  0  0  0  0  0  0  0  0  0
   -4.2662   -0.8026   -0.2382 C   0  0  0  0  0  0  0  0  0  0  0  0
    3.0252   -0.0973   -0.2935 C   0  0  0  0  0  0  0  0  0  0  0  0
    1.6408    0.0934    0.2815 C   0  0  0  0  0  0  0  0  0  0  0  0
    3.7919    1.2153   -0.1947 C   0  0  0  0  0  0  0  0  0  0  0  0
    3.7325   -1.2112    0.4678 C   0  0  0  0  0  0  0  0  0  0  0  0
   -2.9683   -0.3766    1.4075 H   0  0  0  0  0  0  0  0  0  0  0  0
   -1.6130   -1.6230   -0.2680 H   0  0  0  0  0  0  0  0  0  0  0  0
   -1.8041   -0.3054   -1.4246 H   0  0  0  0  0  0  0  0  0  0  0  0
   -3.2103    1.7405   -0.8017 H   0  0  0  0  0  0  0  0  0  0  0  0
   -4.1427    1.7245    0.7027 H   0  0  0  0  0  0  0  0  0  0  0  0
   -2.3968    1.9427    0.7622 H   0  0  0  0  0  0  0  0  0  0  0  0
   -4.3966   -0.5555   -1.2972 H   0  0  0  0  0  0  0  0  0  0  0  0
   -5.1732   -0.5015    0.2964 H   0  0  0  0  0  0  0  0  0  0  0  0
   -4.1716   -1.8902   -0.1535 H   0  0  0  0  0  0  0  0  0  0  0  0
    2.9349   -0.3832   -1.3481 H   0  0  0  0  0  0  0  0  0  0  0  0
   -0.4797   -0.0786    1.2006 H   0  0  0  0  0  0  0  0  0  0  0  0
    1.5817    0.3886    1.3470 H   0  0  0  0  0  0  0  0  0  0  0  0
    4.7943    1.1149   -0.6233 H   0  0  0  0  0  0  0  0  0  0  0  0
    3.8965    1.5412    0.8463 H   0  0  0  0  0  0  0  0  0  0  0  0
    3.2692    2.0114   -0.7362 H   0  0  0  0  0  0  0  0  0  0  0  0
    4.7331   -1.3881    0.0601 H   0  0  0  0  0  0  0  0  0  0  0  0
    3.1673   -2.1472    0.3993 H   0  0  0  0  0  0  0  0  0  0  0  0
    3.8350   -0.9675    1.5313 H   0  0  0  0  0  0  0  0  0  0  0  0
  1  2  1  0  0  0  0
  1  4  1  0  0  0  0
  1 21  1  0  0  0  0
  2  8  2  3  0  0  0
  3  4  1  0  0  0  0
  3  5  1  0  0  0  0
  3  6  1  0  0  0  0
  3 11  1  0  0  0  0
  4 12  1  0  0  0  0
  4 13  1  0  0  0  0
  5 14  1  0  0  0  0
  5 15  1  0  0  0  0
  5 16  1  0  0  0  0
  6 17  1  0  0  0  0
  6 18  1  0  0  0  0
  6 19  1  0  0  0  0
  7  8  1  0  0  0  0
  7  9  1  0  0  0  0
  7 10  1  0  0  0  0
  7 20  1  0  0  0  0
  8 22  1  0  0  0  0
  9 23  1  0  0  0  0
  9 24  1  0  0  0  0
  9 25  1  0  0  0  0
 10 26  1  0  0  0  0
 10 27  1  0  0  0  0
 10 28  1  0  0  0  0
M  END
> <PUBCHEM_COMPOUND_CID>
140792

> <PUBCHEM_CONFORMER_RMSD>
0.6

> <PUBCHEM_CONFORMER_DIVERSEORDER>
1
16
17
8
9
3
14
18
11
2
15
4
19
5
12
6
10
7
13

> <PUBCHEM_MMFF94_PARTIAL_CHARGES>
7
1 -0.58
2 -0.5
21 0.36
22 0.06
4 0.27
7 0.06
8 0.33

> <PUBCHEM_EFFECTIVE_ROTOR_COUNT>
4

> <PUBCHEM_PHARMACOPHORE_FEATURES>
4
1 1 donor
1 2 acceptor
3 3 5 6 hydrophobe
3 7 9 10 hydrophobe

> <PUBCHEM_HEAVY_ATOM_COUNT>
10

> <PUBCHEM_ATOM_DEF_STEREO_COUNT>
0

> <PUBCHEM_ATOM_UDEF_STEREO_COUNT>
0

> <PUBCHEM_BOND_DEF_STEREO_COUNT>
0

> <PUBCHEM_BOND_UDEF_STEREO_COUNT>
1

> <PUBCHEM_ISOTOPIC_ATOM_COUNT>
0

> <PUBCHEM_COMPONENT_COUNT>
1

> <PUBCHEM_CACTVS_TAUTO_COUNT>
1

> <PUBCHEM_CONFORMER_ID>
000225F800000001

> <PUBCHEM_MMFF94_ENERGY>
7.6384

> <PUBCHEM_FEATURE_SELFOVERLAP>
20.297

> <PUBCHEM_SHAPE_FINGERPRINT>
11062470 55 18410576201375687916
12932764 1 17418083334586911759
14123238 8 17988924500293615607
14144814 61 18409730655453810505
14325111 11 18410857650566770498
18186145 218 17675925374226644426
190213 19 17385726906452159883
1986462 14 18341333318819432637
20279233 1 15285355128405224945
20281407 28 14851606578750738777
20645477 70 18334010567131540914
20719005 15 18412263943197783950
20828058 21 17917715707604507132
22485316 2 18187361051739455499
23402539 116 18343575249315217103

> <PUBCHEM_SHAPE_MULTIPOLES>
195.83
9.14
1.22
0.7
0.48
0.23
-0.01
-0.29
-0.15
-0.16
-0.07
-0.04
-0.03
-0.52

> <PUBCHEM_SHAPE_SELFOVERLAP>
351.957

> <PUBCHEM_SHAPE_VOLUME>
127.1

> <PUBCHEM_COORDINATE_TYPE>
2
5
10

$$$$
