9834161
  -OEChem-11012401153D

 18 19  0     0  0  0  0  0  0999 V2000
   -0.8218    2.2370   -0.0565 S   0  0  0  0  0  0  0  0  0  0  0  0
   -2.4561    1.0620    0.2346 S   0  0  0  0  0  0  0  0  0  0  0  0
   -2.5405   -1.8926   -0.2244 S   0  0  0  0  0  0  0  0  0  0  0  0
    2.1818   -1.2127    0.3902 C   0  0  0  0  0  0  0  0  0  0  0  0
    2.6511    0.0329   -0.3514 C   0  0  0  0  0  0  0  0  0  0  0  0
    0.7311   -1.5516    0.0369 C   0  0  0  0  0  0  0  0  0  0  0  0
    1.7726    1.2387   -0.0094 C   0  0  0  0  0  0  0  0  0  0  0  0
   -0.1668   -0.3449    0.0011 C   0  0  0  0  0  0  0  0  0  0  0  0
    0.3010    0.9168   -0.0026 C   0  0  0  0  0  0  0  0  0  0  0  0
   -1.6525   -0.4856   -0.0184 C   0  0  0  0  0  0  0  0  0  0  0  0
    2.2681   -1.0471    1.4718 H   0  0  0  0  0  0  0  0  0  0  0  0
    2.8286   -2.0630    0.1461 H   0  0  0  0  0  0  0  0  0  0  0  0
    2.6190   -0.1520   -1.4328 H   0  0  0  0  0  0  0  0  0  0  0  0
    3.6940    0.2528   -0.0965 H   0  0  0  0  0  0  0  0  0  0  0  0
    0.3675   -2.2809    0.7698 H   0  0  0  0  0  0  0  0  0  0  0  0
    0.7073   -2.0356   -0.9474 H   0  0  0  0  0  0  0  0  0  0  0  0
    1.9899    2.0362   -0.7305 H   0  0  0  0  0  0  0  0  0  0  0  0
    2.0517    1.6174    0.9823 H   0  0  0  0  0  0  0  0  0  0  0  0
  1  2  1  0  0  0  0
  1  9  1  0  0  0  0
  2 10  1  0  0  0  0
  3 10  2  0  0  0  0
  4  5  1  0  0  0  0
  4  6  1  0  0  0  0
  4 11  1  0  0  0  0
  4 12  1  0  0  0  0
  5  7  1  0  0  0  0
  5 13  1  0  0  0  0
  5 14  1  0  0  0  0
  6  8  1  0  0  0  0
  6 15  1  0  0  0  0
  6 16  1  0  0  0  0
  7  9  1  0  0  0  0
  7 17  1  0  0  0  0
  7 18  1  0  0  0  0
  8  9  2  0  0  0  0
  8 10  1  0  0  0  0
M  END
> <PUBCHEM_COMPOUND_CID>
9834161

> <PUBCHEM_CONFORMER_RMSD>
0.4

> <PUBCHEM_CONFORMER_DIVERSEORDER>
1

> <PUBCHEM_MMFF94_PARTIAL_CHARGES>
8
1 -0.1
10 0.51
2 -0.14
3 -0.38
6 0.14
7 0.14
8 -0.12
9 -0.04

> <PUBCHEM_EFFECTIVE_ROTOR_COUNT>
0.8

> <PUBCHEM_PHARMACOPHORE_FEATURES>
3
1 3 acceptor
5 1 2 8 9 10 rings
6 4 5 6 7 8 9 rings

> <PUBCHEM_HEAVY_ATOM_COUNT>
10

> <PUBCHEM_ATOM_DEF_STEREO_COUNT>
0

> <PUBCHEM_ATOM_UDEF_STEREO_COUNT>
0

> <PUBCHEM_BOND_DEF_STEREO_COUNT>
0

> <PUBCHEM_BOND_UDEF_STEREO_COUNT>
0

> <PUBCHEM_ISOTOPIC_ATOM_COUNT>
0

> <PUBCHEM_COMPONENT_COUNT>
1

> <PUBCHEM_CACTVS_TAUTO_COUNT>
1

> <PUBCHEM_CONFORMER_ID>
00960EB100000001

> <PUBCHEM_MMFF94_ENERGY>
2.3937

> <PUBCHEM_FEATURE_SELFOVERLAP>
15.262

> <PUBCHEM_SHAPE_FINGERPRINT>
11206711 2 18336550507288583405
12524768 44 18267873787131466735
12897270 3 18410572915704653046
14128692 85 18340773744335830998
15775835 57 18338808831236971936
161256 15 18198058277506662016
16945 1 18267021665451148140
18185500 45 18411136982439242015
193761 8 18410572842711281892
20871998 184 18202002114341783247
21040471 1 17979071587639769744
21501502 16 18409448080949647731
2334 1 18338516468475708057
23552423 10 18333734649462196564
241688 4 18410291445186589593
2748010 2 18339640147884517229
5084963 1 18129669736601095184
528886 8 18411134723212552425
66348 1 18266740362309922691

> <PUBCHEM_SHAPE_MULTIPOLES>
217.34
3.84
2.36
0.68
0.15
0.27
0
-0.92
-0.07
-0.94
-0.03
-0.01
-0.01
-0.28

> <PUBCHEM_SHAPE_SELFOVERLAP>
415.864

> <PUBCHEM_SHAPE_VOLUME>
128.4

> <PUBCHEM_COORDINATE_TYPE>
2
5
10

$$$$
