12534138
  -OEChem-10312420102D

 47 45  0     0  0  0  0  0  0999 V2000
    0.5369    2.0369    0.0000 S   0  0  0  0  0  0  0  0  0  0  0  0
    1.4030    3.5369    0.0000 S   0  0  0  0  0  0  0  0  0  0  0  0
    2.2690    2.0369    0.0000 N   0  0  0  0  0  0  0  0  0  0  0  0
    2.2690    8.2769    0.0000 N   0  0  0  0  0  0  0  0  0  0  0  0
    3.1350    2.5369    0.0000 C   0  0  0  0  0  0  0  0  0  0  0  0
    2.2690    1.0369    0.0000 C   0  0  0  0  0  0  0  0  0  0  0  0
    1.4030    7.7769    0.0000 C   0  0  0  0  0  0  0  0  0  0  0  0
    3.1350    7.7769    0.0000 C   0  0  0  0  0  0  0  0  0  0  0  0
    4.0010    2.0369    0.0000 C   0  0  0  0  0  0  0  0  0  0  0  0
    3.1350    3.5369    0.0000 C   0  0  0  0  0  0  0  0  0  0  0  0
    1.4030    0.5369    0.0000 C   0  0  0  0  0  0  0  0  0  0  0  0
    3.1350    0.5369    0.0000 C   0  0  0  0  0  0  0  0  0  0  0  0
    1.4030    2.5369    0.0000 C   0  0  0  0  0  0  0  0  0  0  0  0
    0.5369    8.2769    0.0000 C   0  0  0  0  0  0  0  0  0  0  0  0
    1.4030    6.7769    0.0000 C   0  0  0  0  0  0  0  0  0  0  0  0
    4.0010    8.2769    0.0000 C   0  0  0  0  0  0  0  0  0  0  0  0
    3.1350    6.7769    0.0000 C   0  0  0  0  0  0  0  0  0  0  0  0
    3.1350    1.9169    0.0000 H   0  0  0  0  0  0  0  0  0  0  0  0
    2.8059    1.3469    0.0000 H   0  0  0  0  0  0  0  0  0  0  0  0
    1.4030    8.3969    0.0000 H   0  0  0  0  0  0  0  0  0  0  0  0
    2.5981    7.4669    0.0000 H   0  0  0  0  0  0  0  0  0  0  0  0
    3.6910    1.5000    0.0000 H   0  0  0  0  0  0  0  0  0  0  0  0
    4.5380    1.7269    0.0000 H   0  0  0  0  0  0  0  0  0  0  0  0
    4.3110    2.5739    0.0000 H   0  0  0  0  0  0  0  0  0  0  0  0
    3.7550    3.5369    0.0000 H   0  0  0  0  0  0  0  0  0  0  0  0
    3.1350    4.1569    0.0000 H   0  0  0  0  0  0  0  0  0  0  0  0
    2.5150    3.5369    0.0000 H   0  0  0  0  0  0  0  0  0  0  0  0
    1.0930    1.0739    0.0000 H   0  0  0  0  0  0  0  0  0  0  0  0
    0.8660    0.2269    0.0000 H   0  0  0  0  0  0  0  0  0  0  0  0
    1.7130    0.0000    0.0000 H   0  0  0  0  0  0  0  0  0  0  0  0
    2.8250    0.0000    0.0000 H   0  0  0  0  0  0  0  0  0  0  0  0
    3.6720    0.2269    0.0000 H   0  0  0  0  0  0  0  0  0  0  0  0
    3.4450    1.0739    0.0000 H   0  0  0  0  0  0  0  0  0  0  0  0
    2.2690    8.8969    0.0000 H   0  0  0  0  0  0  0  0  0  0  0  0
    0.8469    8.8139    0.0000 H   0  0  0  0  0  0  0  0  0  0  0  0
    0.0000    8.5869    0.0000 H   0  0  0  0  0  0  0  0  0  0  0  0
    0.2269    7.7400    0.0000 H   0  0  0  0  0  0  0  0  0  0  0  0
    0.7830    6.7769    0.0000 H   0  0  0  0  0  0  0  0  0  0  0  0
    1.4030    6.1569    0.0000 H   0  0  0  0  0  0  0  0  0  0  0  0
    2.0230    6.7769    0.0000 H   0  0  0  0  0  0  0  0  0  0  0  0
    4.3110    7.7400    0.0000 H   0  0  0  0  0  0  0  0  0  0  0  0
    4.5380    8.5869    0.0000 H   0  0  0  0  0  0  0  0  0  0  0  0
    3.6910    8.8139    0.0000 H   0  0  0  0  0  0  0  0  0  0  0  0
    2.5150    6.7769    0.0000 H   0  0  0  0  0  0  0  0  0  0  0  0
    3.1350    6.1569    0.0000 H   0  0  0  0  0  0  0  0  0  0  0  0
    3.7550    6.7769    0.0000 H   0  0  0  0  0  0  0  0  0  0  0  0
    0.0000    2.3469    0.0000 H   0  0  0  0  0  0  0  0  0  0  0  0
  1 13  1  0  0  0  0
  1 47  1  0  0  0  0
  2 13  2  0  0  0  0
  3  5  1  0  0  0  0
  3  6  1  0  0  0  0
  3 13  1  0  0  0  0
  4  7  1  0  0  0  0
  4  8  1  0  0  0  0
  4 34  1  0  0  0  0
  5  9  1  0  0  0  0
  5 10  1  0  0  0  0
  5 18  1  0  0  0  0
  6 11  1  0  0  0  0
  6 12  1  0  0  0  0
  6 19  1  0  0  0  0
  7 14  1  0  0  0  0
  7 15  1  0  0  0  0
  7 20  1  0  0  0  0
  8 16  1  0  0  0  0
  8 17  1  0  0  0  0
  8 21  1  0  0  0  0
  9 22  1  0  0  0  0
  9 23  1  0  0  0  0
  9 24  1  0  0  0  0
 10 25  1  0  0  0  0
 10 26  1  0  0  0  0
 10 27  1  0  0  0  0
 11 28  1  0  0  0  0
 11 29  1  0  0  0  0
 11 30  1  0  0  0  0
 12 31  1  0  0  0  0
 12 32  1  0  0  0  0
 12 33  1  0  0  0  0
 14 35  1  0  0  0  0
 14 36  1  0  0  0  0
 14 37  1  0  0  0  0
 15 38  1  0  0  0  0
 15 39  1  0  0  0  0
 15 40  1  0  0  0  0
 16 41  1  0  0  0  0
 16 42  1  0  0  0  0
 16 43  1  0  0  0  0
 17 44  1  0  0  0  0
 17 45  1  0  0  0  0
 17 46  1  0  0  0  0
M  END
> <PUBCHEM_COMPOUND_CID>
12534138

> <PUBCHEM_COMPOUND_CANONICALIZED>
1

> <PUBCHEM_CACTVS_COMPLEXITY>
146

> <PUBCHEM_CACTVS_HBOND_ACCEPTOR>
3

> <PUBCHEM_CACTVS_HBOND_DONOR>
2

> <PUBCHEM_CACTVS_ROTATABLE_BOND>
4

> <PUBCHEM_CACTVS_SUBSKEYS>
AAADceBzAABgAAAAAAAAAAAAAAAAAAAAAAAAAAAAAAAAAAAAAAAAHAQQAAAACCjBAAQCAAPAAAQEAAAAAAAAAAAAAAgAAIAIAAAAAAAAAAAAAAAAEACAAAAAAAAAAAAAAAAAAAAAAAAAAAAAAAAAAAAAAA==

> <PUBCHEM_IUPAC_OPENEYE_NAME>
diisopropylcarbamodithioic acid;N-isopropylpropan-2-amine

> <PUBCHEM_IUPAC_CAS_NAME>
di(propan-2-yl)carbamodithioic acid;N-propan-2-yl-2-propanamine

> <PUBCHEM_IUPAC_NAME_MARKUP>
di(propan-2-yl)carbamodithioic acid;<I>N</I>-propan-2-ylpropan-2-amine

> <PUBCHEM_IUPAC_NAME>
di(propan-2-yl)carbamodithioic acid;N-propan-2-ylpropan-2-amine

> <PUBCHEM_IUPAC_SYSTEMATIC_NAME>
di(propan-2-yl)carbamodithioic acid;N-propan-2-ylpropan-2-amine

> <PUBCHEM_IUPAC_TRADITIONAL_NAME>
diisopropylamine;diisopropylcarbamodithioic acid

> <PUBCHEM_IUPAC_INCHI>
InChI=1S/C7H15NS2.C6H15N/c1-5(2)8(6(3)4)7(9)10;1-5(2)7-6(3)4/h5-6H,1-4H3,(H,9,10);5-7H,1-4H3

> <PUBCHEM_IUPAC_INCHIKEY>
WQSSOUGGTMWBEP-UHFFFAOYSA-N

> <PUBCHEM_EXACT_MASS>
278.18504131

> <PUBCHEM_MOLECULAR_FORMULA>
C13H30N2S2

> <PUBCHEM_MOLECULAR_WEIGHT>
278.5

> <PUBCHEM_OPENEYE_CAN_SMILES>
CC(C)NC(C)C.CC(C)N(C(C)C)C(=S)S

> <PUBCHEM_OPENEYE_ISO_SMILES>
CC(C)NC(C)C.CC(C)N(C(C)C)C(=S)S

> <PUBCHEM_CACTVS_TPSA>
48.4

> <PUBCHEM_MONOISOTOPIC_WEIGHT>
278.18504131

> <PUBCHEM_TOTAL_CHARGE>
0

> <PUBCHEM_HEAVY_ATOM_COUNT>
17

> <PUBCHEM_ATOM_DEF_STEREO_COUNT>
0

> <PUBCHEM_ATOM_UDEF_STEREO_COUNT>
0

> <PUBCHEM_BOND_DEF_STEREO_COUNT>
0

> <PUBCHEM_BOND_UDEF_STEREO_COUNT>
0

> <PUBCHEM_ISOTOPIC_ATOM_COUNT>
0

> <PUBCHEM_COMPONENT_COUNT>
2

> <PUBCHEM_CACTVS_TAUTO_COUNT>
-1

> <PUBCHEM_COORDINATE_TYPE>
1
5
255

$$$$
