17389497
  -OEChem-11012401193D

 20 21  0     0  0  0  0  0  0999 V2000
   -3.7787   -0.1424   -0.0008 N   0  0  0  0  0  0  0  0  0  0  0  0
    3.7813    0.1398   -0.0007 N   0  0  0  0  0  0  0  0  0  0  0  0
   -2.7279   -0.9746    0.0003 N   0  0  0  0  0  0  0  0  0  0  0  0
    2.7319    0.9740    0.0003 N   0  0  0  0  0  0  0  0  0  0  0  0
   -3.4937    1.1672    0.0004 N   0  0  0  0  0  0  0  0  0  0  0  0
    3.4939   -1.1692    0.0004 N   0  0  0  0  0  0  0  0  0  0  0  0
   -2.1674    1.2194    0.0016 N   0  0  0  0  0  0  0  0  0  0  0  0
    2.1674   -1.2189    0.0016 N   0  0  0  0  0  0  0  0  0  0  0  0
   -0.4060   -0.4804    0.0014 N   0  0  0  0  0  0  0  0  0  0  0  0
    0.3933    0.4889    0.0014 N   0  0  0  0  0  0  0  0  0  0  0  0
   -5.1344   -0.6264   -0.0044 C   0  0  0  0  0  0  0  0  0  0  0  0
    5.1378    0.6214   -0.0044 C   0  0  0  0  0  0  0  0  0  0  0  0
   -1.7406   -0.0754    0.0015 C   0  0  0  0  0  0  0  0  0  0  0  0
    1.7430    0.0766    0.0015 C   0  0  0  0  0  0  0  0  0  0  0  0
   -5.5331   -0.5287    1.0080 H   0  0  0  0  0  0  0  0  0  0  0  0
   -5.7191   -0.0268   -0.7062 H   0  0  0  0  0  0  0  0  0  0  0  0
   -5.1438   -1.6740   -0.3158 H   0  0  0  0  0  0  0  0  0  0  0  0
    5.5349    0.5272    1.0088 H   0  0  0  0  0  0  0  0  0  0  0  0
    5.7226    0.0179   -0.7030 H   0  0  0  0  0  0  0  0  0  0  0  0
    5.1495    1.6676   -0.3203 H   0  0  0  0  0  0  0  0  0  0  0  0
  1  3  1  0  0  0  0
  1  5  1  0  0  0  0
  1 11  1  0  0  0  0
  2  4  1  0  0  0  0
  2  6  1  0  0  0  0
  2 12  1  0  0  0  0
  3 13  2  0  0  0  0
  4 14  2  0  0  0  0
  5  7  2  0  0  0  0
  6  8  2  0  0  0  0
  7 13  1  0  0  0  0
  8 14  1  0  0  0  0
  9 10  2  0  0  0  0
  9 13  1  0  0  0  0
 10 14  1  0  0  0  0
 11 15  1  0  0  0  0
 11 16  1  0  0  0  0
 11 17  1  0  0  0  0
 12 18  1  0  0  0  0
 12 19  1  0  0  0  0
 12 20  1  0  0  0  0
M  END
> <PUBCHEM_COMPOUND_CID>
17389497

> <PUBCHEM_CONFORMER_RMSD>
0.6

> <PUBCHEM_CONFORMER_DIVERSEORDER>
1
6
5
2
3
4

> <PUBCHEM_MMFF94_PARTIAL_CHARGES>
14
1 0.58
10 -0.12
11 0.26
12 0.26
13 0.64
14 0.64
2 0.58
3 -0.71
4 -0.71
5 -0.42
6 -0.42
7 -0.23
8 -0.23
9 -0.12

> <PUBCHEM_EFFECTIVE_ROTOR_COUNT>
2

> <PUBCHEM_PHARMACOPHORE_FEATURES>
4
4 3 7 9 13 cation
4 4 8 10 14 cation
5 1 3 5 7 13 rings
5 2 4 6 8 14 rings

> <PUBCHEM_HEAVY_ATOM_COUNT>
14

> <PUBCHEM_ATOM_DEF_STEREO_COUNT>
0

> <PUBCHEM_ATOM_UDEF_STEREO_COUNT>
0

> <PUBCHEM_BOND_DEF_STEREO_COUNT>
1

> <PUBCHEM_BOND_UDEF_STEREO_COUNT>
0

> <PUBCHEM_ISOTOPIC_ATOM_COUNT>
0

> <PUBCHEM_COMPONENT_COUNT>
1

> <PUBCHEM_CACTVS_TAUTO_COUNT>
1

> <PUBCHEM_CONFORMER_ID>
010957B900000001

> <PUBCHEM_MMFF94_ENERGY>
10.2599

> <PUBCHEM_FEATURE_SELFOVERLAP>
20.297

> <PUBCHEM_SHAPE_FINGERPRINT>
11062470 55 18412826880456109968
114248 4 18410573998036353080
12932764 1 17203313507798358374
14123238 8 18410575097547980808
14144814 61 18410856529575018608
14325111 11 18410573959418577131
17834072 33 18410574032470003172
17834076 25 18261112989417530348
18522853 276 18413108368133411625
190213 19 17458067057856611819
200 152 18201717362473551131
20279233 1 15719113547794382296
20645477 70 18341332185043635750
22485316 2 18335135384284190059
23402539 116 18342168978053584093
23402655 69 18341046337357233317
3545911 37 18411420626559020958
42 15 18408887317250722063
4214541 1 18410573955287361001
42788 4 18410856568535750724
449060 50 18410293631472577692
5104073 3 18338797818845594570
77779 3 18411139112653298020

> <PUBCHEM_SHAPE_MULTIPOLES>
238.3
10.71
1.15
0.55
0.03
0
0
0.01
0.02
0
0
0
0
0

> <PUBCHEM_SHAPE_SELFOVERLAP>
496.59

> <PUBCHEM_SHAPE_VOLUME>
133.7

> <PUBCHEM_COORDINATE_TYPE>
2
5
10

$$$$
