2724486
  -OEChem-11012401033D

 38 37  0     0  0  0  0  0  0999 V2000
   -2.5789    1.4504   -0.0307 O   0  0  0  0  0  0  0  0  0  0  0  0
   -2.6539   -0.8975    0.1772 O   0  0  0  0  0  0  0  0  0  0  0  0
    2.6549   -0.8954   -0.1763 O   0  0  0  0  0  0  0  0  0  0  0  0
    2.5770    1.4520    0.0295 O   0  0  0  0  0  0  0  0  0  0  0  0
   -2.0178    0.2082   -0.4724 C   0  0  0  0  0  0  0  0  0  0  0  0
    2.0154    0.2098    0.4708 C   0  0  0  0  0  0  0  0  0  0  0  0
   -3.9702    1.5449   -0.3085 C   0  0  0  0  0  0  0  0  0  0  0  0
   -2.1106   -2.1528   -0.2124 C   0  0  0  0  0  0  0  0  0  0  0  0
    2.1130   -2.1516    0.2123 C   0  0  0  0  0  0  0  0  0  0  0  0
    3.9677    1.5471    0.3106 C   0  0  0  0  0  0  0  0  0  0  0  0
   -0.5858    0.2157   -0.1383 C   0  0  0  0  0  0  0  0  0  0  0  0
    0.5841    0.2162    0.1335 C   0  0  0  0  0  0  0  0  0  0  0  0
   -4.4824    2.8804    0.1873 C   0  0  0  0  0  0  0  0  0  0  0  0
   -2.8421   -3.2560    0.5219 C   0  0  0  0  0  0  0  0  0  0  0  0
    2.8488   -3.2537   -0.5198 C   0  0  0  0  0  0  0  0  0  0  0  0
    4.4807    2.8823   -0.1848 C   0  0  0  0  0  0  0  0  0  0  0  0
   -2.1564    0.1250   -1.5575 H   0  0  0  0  0  0  0  0  0  0  0  0
    2.1514    0.1276    1.5563 H   0  0  0  0  0  0  0  0  0  0  0  0
   -4.1371    1.4616   -1.3880 H   0  0  0  0  0  0  0  0  0  0  0  0
   -4.5153    0.7419    0.1990 H   0  0  0  0  0  0  0  0  0  0  0  0
   -2.2228   -2.2862   -1.2940 H   0  0  0  0  0  0  0  0  0  0  0  0
   -1.0566   -2.2280    0.0530 H   0  0  0  0  0  0  0  0  0  0  0  0
    2.2223   -2.2844    1.2942 H   0  0  0  0  0  0  0  0  0  0  0  0
    1.0599   -2.2286   -0.0563 H   0  0  0  0  0  0  0  0  0  0  0  0
    4.1321    1.4644    1.3906 H   0  0  0  0  0  0  0  0  0  0  0  0
    4.5143    0.7439   -0.1951 H   0  0  0  0  0  0  0  0  0  0  0  0
   -5.5521    2.9878   -0.0129 H   0  0  0  0  0  0  0  0  0  0  0  0
   -4.3124    2.9829    1.2642 H   0  0  0  0  0  0  0  0  0  0  0  0
   -3.9477    3.7030   -0.2989 H   0  0  0  0  0  0  0  0  0  0  0  0
   -2.4503   -4.2385    0.2436 H   0  0  0  0  0  0  0  0  0  0  0  0
   -2.7433   -3.1301    1.6053 H   0  0  0  0  0  0  0  0  0  0  0  0
   -3.9128   -3.2259    0.2946 H   0  0  0  0  0  0  0  0  0  0  0  0
    2.4580   -4.2367   -0.2424 H   0  0  0  0  0  0  0  0  0  0  0  0
    2.7529   -3.1281   -1.6034 H   0  0  0  0  0  0  0  0  0  0  0  0
    3.9188   -3.2214   -0.2893 H   0  0  0  0  0  0  0  0  0  0  0  0
    5.5500    2.9902    0.0178 H   0  0  0  0  0  0  0  0  0  0  0  0
    4.3131    2.9843   -1.2621 H   0  0  0  0  0  0  0  0  0  0  0  0
    3.9447    3.7051    0.2997 H   0  0  0  0  0  0  0  0  0  0  0  0
  1  5  1  0  0  0  0
  1  7  1  0  0  0  0
  2  5  1  0  0  0  0
  2  8  1  0  0  0  0
  3  6  1  0  0  0  0
  3  9  1  0  0  0  0
  4  6  1  0  0  0  0
  4 10  1  0  0  0  0
  5 11  1  0  0  0  0
  5 17  1  0  0  0  0
  6 12  1  0  0  0  0
  6 18  1  0  0  0  0
  7 13  1  0  0  0  0
  7 19  1  0  0  0  0
  7 20  1  0  0  0  0
  8 14  1  0  0  0  0
  8 21  1  0  0  0  0
  8 22  1  0  0  0  0
  9 15  1  0  0  0  0
  9 23  1  0  0  0  0
  9 24  1  0  0  0  0
 10 16  1  0  0  0  0
 10 25  1  0  0  0  0
 10 26  1  0  0  0  0
 11 12  3  0  0  0  0
 13 27  1  0  0  0  0
 13 28  1  0  0  0  0
 13 29  1  0  0  0  0
 14 30  1  0  0  0  0
 14 31  1  0  0  0  0
 14 32  1  0  0  0  0
 15 33  1  0  0  0  0
 15 34  1  0  0  0  0
 15 35  1  0  0  0  0
 16 36  1  0  0  0  0
 16 37  1  0  0  0  0
 16 38  1  0  0  0  0
M  END
> <PUBCHEM_COMPOUND_CID>
2724486

> <PUBCHEM_CONFORMER_RMSD>
0.8

> <PUBCHEM_CONFORMER_DIVERSEORDER>
1
46
38
48
15
36
32
14
41
18
28
30
8
42
4
11
34
31
16
49
51
39
37
25
53
29
47
7
10
50
2
52
26
13
20
23
45
17
3
22
44
6
9
12
43
24
21
40
5
33
27
19
35

> <PUBCHEM_MMFF94_PARTIAL_CHARGES>
12
1 -0.56
10 0.28
11 -0.2
12 -0.2
2 -0.56
3 -0.56
4 -0.56
5 0.76
6 0.76
7 0.28
8 0.28
9 0.28

> <PUBCHEM_EFFECTIVE_ROTOR_COUNT>
8

> <PUBCHEM_PHARMACOPHORE_FEATURES>
4
1 1 acceptor
1 2 acceptor
1 3 acceptor
1 4 acceptor

> <PUBCHEM_HEAVY_ATOM_COUNT>
16

> <PUBCHEM_ATOM_DEF_STEREO_COUNT>
0

> <PUBCHEM_ATOM_UDEF_STEREO_COUNT>
0

> <PUBCHEM_BOND_DEF_STEREO_COUNT>
0

> <PUBCHEM_BOND_UDEF_STEREO_COUNT>
0

> <PUBCHEM_ISOTOPIC_ATOM_COUNT>
0

> <PUBCHEM_COMPONENT_COUNT>
1

> <PUBCHEM_CACTVS_TAUTO_COUNT>
1

> <PUBCHEM_CONFORMER_ID>
0029928600000001

> <PUBCHEM_MMFF94_ENERGY>
20.9877

> <PUBCHEM_FEATURE_SELFOVERLAP>
20.377

> <PUBCHEM_SHAPE_FINGERPRINT>
10366900 7 18056468676635852843
10616163 171 18337952414705538414
12500047 106 18411694379131961361
12788726 201 18191572246289412107
12930653 34 18338799034485037742
13380535 21 18410576184174713188
14178342 30 18334851766192560824
18186145 218 18194109716988256957
20286276 3 18410863148125591511
20645477 56 18261110742786079549
20645477 70 17988644060493701158
21501502 16 18410564093852642770
21618674 54 18410853291291094086
23557571 272 18270972352442991629
23558518 356 18187368778312028083
23559900 14 18270393889684589658
474229 33 17977383060282062586
58051976 378 18266739280147138342
633830 44 18126559025666240653
7364860 26 18341047411710733502
74978 22 18339644425640509819
81228 2 18188483700983737683
9709674 26 18412260623309942255
9999458 23 18120375350580124215

> <PUBCHEM_SHAPE_MULTIPOLES>
305.8
9.02
4.37
0.69
0.01
1.82
0
-6.85
0
-0.01
0
0
0.1
0.52

> <PUBCHEM_SHAPE_SELFOVERLAP>
565.385

> <PUBCHEM_SHAPE_VOLUME>
191.2

> <PUBCHEM_COORDINATE_TYPE>
2
5
10

$$$$
