141942
  -OEChem-11012400303D

 35 35  0     0  0  0  0  0  0999 V2000
   -0.1935   -1.9262    0.2503 O   0  0  0  0  0  0  0  0  0  0  0  0
   -2.3151   -1.3392    0.8676 O   0  0  0  0  0  0  0  0  0  0  0  0
    1.9858   -1.8605   -0.4376 O   0  0  0  0  0  0  0  0  0  0  0  0
   -0.7702    0.3307   -0.0228 C   0  0  0  0  0  0  0  0  0  0  0  0
    0.7735    0.2018    0.0576 C   0  0  0  0  0  0  0  0  0  0  0  0
   -1.3616    1.4203    0.8769 C   0  0  0  0  0  0  0  0  0  0  0  0
   -1.3199    0.5021   -1.4504 C   0  0  0  0  0  0  0  0  0  0  0  0
    1.3708    0.5684    1.4280 C   0  0  0  0  0  0  0  0  0  0  0  0
    1.5294    0.9595   -1.0386 C   0  0  0  0  0  0  0  0  0  0  0  0
   -1.2097   -1.0385    0.4435 C   0  0  0  0  0  0  0  0  0  0  0  0
    0.9583   -1.2897   -0.1052 C   0  0  0  0  0  0  0  0  0  0  0  0
   -2.8724    1.3568    0.8815 C   0  0  0  0  0  0  0  0  0  0  0  0
   -0.8028   -0.5838   -2.3711 C   0  0  0  0  0  0  0  0  0  0  0  0
    2.8493    0.2444    1.4859 C   0  0  0  0  0  0  0  0  0  0  0  0
    1.3782    2.4539   -0.8659 C   0  0  0  0  0  0  0  0  0  0  0  0
   -1.0512    2.4187    0.5588 H   0  0  0  0  0  0  0  0  0  0  0  0
   -1.0415    1.3027    1.9180 H   0  0  0  0  0  0  0  0  0  0  0  0
   -1.0799    1.4852   -1.8651 H   0  0  0  0  0  0  0  0  0  0  0  0
   -2.4091    0.4103   -1.4936 H   0  0  0  0  0  0  0  0  0  0  0  0
    0.8792   -0.0134    2.2197 H   0  0  0  0  0  0  0  0  0  0  0  0
    1.2193    1.6194    1.6914 H   0  0  0  0  0  0  0  0  0  0  0  0
    1.2336    0.7389   -2.0608 H   0  0  0  0  0  0  0  0  0  0  0  0
    2.5940    0.7015   -1.0495 H   0  0  0  0  0  0  0  0  0  0  0  0
   -3.3502    1.4099   -0.0966 H   0  0  0  0  0  0  0  0  0  0  0  0
   -3.2910    0.5307    1.4571 H   0  0  0  0  0  0  0  0  0  0  0  0
   -3.2327    2.2503    1.4105 H   0  0  0  0  0  0  0  0  0  0  0  0
    0.2572   -0.8100   -2.4180 H   0  0  0  0  0  0  0  0  0  0  0  0
   -1.3158   -1.5326   -2.1705 H   0  0  0  0  0  0  0  0  0  0  0  0
   -1.0887   -0.3206   -3.3978 H   0  0  0  0  0  0  0  0  0  0  0  0
    3.0814   -0.8139    1.3563 H   0  0  0  0  0  0  0  0  0  0  0  0
    3.4576    0.8396    0.8013 H   0  0  0  0  0  0  0  0  0  0  0  0
    3.2139    0.4980    2.4897 H   0  0  0  0  0  0  0  0  0  0  0  0
    0.3537    2.8104   -0.9653 H   0  0  0  0  0  0  0  0  0  0  0  0
    1.7956    2.8274    0.0718 H   0  0  0  0  0  0  0  0  0  0  0  0
    1.9449    2.9559   -1.6602 H   0  0  0  0  0  0  0  0  0  0  0  0
  1 10  1  0  0  0  0
  1 11  1  0  0  0  0
  2 10  2  0  0  0  0
  3 11  2  0  0  0  0
  4  5  1  0  0  0  0
  4  6  1  0  0  0  0
  4  7  1  0  0  0  0
  4 10  1  0  0  0  0
  5  8  1  0  0  0  0
  5  9  1  0  0  0  0
  5 11  1  0  0  0  0
  6 12  1  0  0  0  0
  6 16  1  0  0  0  0
  6 17  1  0  0  0  0
  7 13  1  0  0  0  0
  7 18  1  0  0  0  0
  7 19  1  0  0  0  0
  8 14  1  0  0  0  0
  8 20  1  0  0  0  0
  8 21  1  0  0  0  0
  9 15  1  0  0  0  0
  9 22  1  0  0  0  0
  9 23  1  0  0  0  0
 12 24  1  0  0  0  0
 12 25  1  0  0  0  0
 12 26  1  0  0  0  0
 13 27  1  0  0  0  0
 13 28  1  0  0  0  0
 13 29  1  0  0  0  0
 14 30  1  0  0  0  0
 14 31  1  0  0  0  0
 14 32  1  0  0  0  0
 15 33  1  0  0  0  0
 15 34  1  0  0  0  0
 15 35  1  0  0  0  0
M  END
> <PUBCHEM_COMPOUND_CID>
141942

> <PUBCHEM_CONFORMER_RMSD>
0.6

> <PUBCHEM_CONFORMER_DIVERSEORDER>
1
4
2
3

> <PUBCHEM_MMFF94_PARTIAL_CHARGES>
7
1 -0.3
10 0.66
11 0.66
2 -0.57
3 -0.57
4 0.06
5 0.06

> <PUBCHEM_EFFECTIVE_ROTOR_COUNT>
4.6

> <PUBCHEM_PHARMACOPHORE_FEATURES>
7
1 12 hydrophobe
1 13 hydrophobe
1 14 hydrophobe
1 15 hydrophobe
1 2 acceptor
1 3 acceptor
5 1 4 5 10 11 rings

> <PUBCHEM_HEAVY_ATOM_COUNT>
15

> <PUBCHEM_ATOM_DEF_STEREO_COUNT>
0

> <PUBCHEM_ATOM_UDEF_STEREO_COUNT>
0

> <PUBCHEM_BOND_DEF_STEREO_COUNT>
0

> <PUBCHEM_BOND_UDEF_STEREO_COUNT>
0

> <PUBCHEM_ISOTOPIC_ATOM_COUNT>
0

> <PUBCHEM_COMPONENT_COUNT>
1

> <PUBCHEM_CACTVS_TAUTO_COUNT>
1

> <PUBCHEM_CONFORMER_ID>
00022A7600000001

> <PUBCHEM_MMFF94_ENERGY>
51.5926

> <PUBCHEM_FEATURE_SELFOVERLAP>
35.523

> <PUBCHEM_SHAPE_FINGERPRINT>
11680611 10 17894921758040459123
12423570 1 10000778988895488356
12491281 212 17560218246397208912
13024252 1 13986319407793227096
14817 1 14729902869464938653
15557651 10 17406264435023564412
15775835 57 17560794399227940665
16945 1 18195546988722380683
20082192 1 18040989657065606824
20511035 2 18130233644442986707
22344851 262 18271230656213259784
23419403 2 15537749019015003203
2748010 2 18338520720472550402
430814 3 18265353848083091332
5084963 1 18126575513607794273
528886 8 18263381200021659364

> <PUBCHEM_SHAPE_MULTIPOLES>
291.09
3.21
2.08
1.75
0
0.07
-0.7
0.62
1.28
0.18
-0.15
-0.11
0.15
-0.31

> <PUBCHEM_SHAPE_SELFOVERLAP>
600.081

> <PUBCHEM_SHAPE_VOLUME>
169.8

> <PUBCHEM_COORDINATE_TYPE>
2
5
10

$$$$
