136389
  -OEChem-11012401013D

 42 44  0     0  0  0  0  0  0999 V2000
    0.0215   -0.0286    2.3903 O   0  0  0  0  0  0  0  0  0  0  0  0
    5.8555   -0.9432   -1.6326 O   0  5  0  0  0  0  0  0  0  0  0  0
   -3.1157   -5.5013    0.2090 O   0  5  0  0  0  0  0  0  0  0  0  0
   -1.9699    5.7064   -1.1813 O   0  5  0  0  0  0  0  0  0  0  0  0
    6.4083    0.2796    0.1047 O   0  0  0  0  0  0  0  0  0  0  0  0
   -3.5924   -4.5394   -1.7059 O   0  0  0  0  0  0  0  0  0  0  0  0
   -3.8186    4.9643   -0.2589 O   0  0  0  0  0  0  0  0  0  0  0  0
    5.5470   -0.2994   -0.6006 N   0  3  0  0  0  0  0  0  0  0  0  0
   -3.0240   -4.5356   -0.5871 N   0  3  0  0  0  0  0  0  0  0  0  0
   -2.6089    4.8225   -0.5607 N   0  3  0  0  0  0  0  0  0  0  0  0
    0.0634    0.0114    0.9273 C   0  0  0  0  0  0  0  0  0  0  0  0
    1.4979   -0.0701    0.5279 C   0  0  0  0  0  0  0  0  0  0  0  0
   -0.7841   -1.2373    0.5112 C   0  0  0  0  0  0  0  0  0  0  0  0
   -0.6710    1.3337    0.5187 C   0  0  0  0  0  0  0  0  0  0  0  0
    1.8642   -0.7821   -0.6143 C   0  0  0  0  0  0  0  0  0  0  0  0
   -0.8582   -2.2640    1.3990 C   0  0  0  0  0  0  0  0  0  0  0  0
    0.0552    2.2672   -0.1501 C   0  0  0  0  0  0  0  0  0  0  0  0
    2.4734    0.5652    1.2962 C   0  0  0  0  0  0  0  0  0  0  0  0
   -1.3847   -1.2053   -0.7078 C   0  0  0  0  0  0  0  0  0  0  0  0
   -1.9800    1.4506    0.8632 C   0  0  0  0  0  0  0  0  0  0  0  0
    3.2059   -0.8586   -0.9880 C   0  0  0  0  0  0  0  0  0  0  0  0
   -1.6132   -3.3768    1.0285 C   0  0  0  0  0  0  0  0  0  0  0  0
   -0.5982    3.4447   -0.5138 C   0  0  0  0  0  0  0  0  0  0  0  0
    3.8151    0.4886    0.9226 C   0  0  0  0  0  0  0  0  0  0  0  0
   -2.1396   -2.3182   -1.0784 C   0  0  0  0  0  0  0  0  0  0  0  0
   -2.6336    2.6280    0.4995 C   0  0  0  0  0  0  0  0  0  0  0  0
    4.1813   -0.2234   -0.2195 C   0  0  0  0  0  0  0  0  0  0  0  0
   -2.2537   -3.4040   -0.2102 C   0  0  0  0  0  0  0  0  0  0  0  0
   -1.9426    3.6250   -0.1889 C   0  0  0  0  0  0  0  0  0  0  0  0
    1.1497   -1.2813   -1.2575 H   0  0  0  0  0  0  0  0  0  0  0  0
   -0.3519   -2.2887    2.3569 H   0  0  0  0  0  0  0  0  0  0  0  0
    1.0931    2.1723   -0.4389 H   0  0  0  0  0  0  0  0  0  0  0  0
    2.2155    1.1370    2.1835 H   0  0  0  0  0  0  0  0  0  0  0  0
   -1.2906   -0.3835   -1.4086 H   0  0  0  0  0  0  0  0  0  0  0  0
   -2.5256    0.6927    1.4144 H   0  0  0  0  0  0  0  0  0  0  0  0
   -0.2080    0.8504    2.7354 H   0  0  0  0  0  0  0  0  0  0  0  0
    3.4547   -1.4186   -1.8859 H   0  0  0  0  0  0  0  0  0  0  0  0
   -1.6755   -4.2070    1.7276 H   0  0  0  0  0  0  0  0  0  0  0  0
   -0.0298    4.1987   -1.0526 H   0  0  0  0  0  0  0  0  0  0  0  0
    4.5473    0.9986    1.5434 H   0  0  0  0  0  0  0  0  0  0  0  0
   -2.6206   -2.3065   -2.0532 H   0  0  0  0  0  0  0  0  0  0  0  0
   -3.6804    2.7354    0.7726 H   0  0  0  0  0  0  0  0  0  0  0  0
  1 11  1  0  0  0  0
  1 36  1  0  0  0  0
  2  8  1  0  0  0  0
  3  9  1  0  0  0  0
  4 10  1  0  0  0  0
  5  8  2  0  0  0  0
  6  9  2  0  0  0  0
  7 10  2  0  0  0  0
  8 27  1  0  0  0  0
  9 28  1  0  0  0  0
 10 29  1  0  0  0  0
 11 12  1  0  0  0  0
 11 13  1  0  0  0  0
 11 14  1  0  0  0  0
 12 15  2  0  0  0  0
 12 18  1  0  0  0  0
 13 16  2  0  0  0  0
 13 19  1  0  0  0  0
 14 17  2  0  0  0  0
 14 20  1  0  0  0  0
 15 21  1  0  0  0  0
 15 30  1  0  0  0  0
 16 22  1  0  0  0  0
 16 31  1  0  0  0  0
 17 23  1  0  0  0  0
 17 32  1  0  0  0  0
 18 24  2  0  0  0  0
 18 33  1  0  0  0  0
 19 25  2  0  0  0  0
 19 34  1  0  0  0  0
 20 26  2  0  0  0  0
 20 35  1  0  0  0  0
 21 27  2  0  0  0  0
 21 37  1  0  0  0  0
 22 28  2  0  0  0  0
 22 38  1  0  0  0  0
 23 29  2  0  0  0  0
 23 39  1  0  0  0  0
 24 27  1  0  0  0  0
 24 40  1  0  0  0  0
 25 28  1  0  0  0  0
 25 41  1  0  0  0  0
 26 29  1  0  0  0  0
 26 42  1  0  0  0  0
M  CHG  6   2  -1   3  -1   4  -1   8   1   9   1  10   1
M  END
> <PUBCHEM_COMPOUND_CID>
136389

> <PUBCHEM_CONFORMER_RMSD>
0.8

> <PUBCHEM_CONFORMER_DIVERSEORDER>
1
2

> <PUBCHEM_MMFF94_PARTIAL_CHARGES>
42
1 -0.68
10 0.91
11 0.71
12 -0.14
13 -0.14
14 -0.14
15 -0.15
16 -0.15
17 -0.15
18 -0.15
19 -0.15
2 -0.52
20 -0.15
21 -0.15
22 -0.15
23 -0.15
24 -0.15
25 -0.15
26 -0.15
27 0.13
28 0.13
29 0.13
3 -0.52
30 0.15
31 0.15
32 0.15
33 0.15
34 0.15
35 0.15
36 0.4
37 0.15
38 0.15
39 0.15
4 -0.52
40 0.15
41 0.15
42 0.15
5 -0.52
6 -0.52
7 -0.52
8 0.91
9 0.91

> <PUBCHEM_EFFECTIVE_ROTOR_COUNT>
6

> <PUBCHEM_PHARMACOPHORE_FEATURES>
14
1 1 acceptor
1 1 donor
1 2 acceptor
1 2 anion
1 3 acceptor
1 3 anion
1 4 acceptor
1 4 anion
1 5 acceptor
1 6 acceptor
1 7 acceptor
6 12 15 18 21 24 27 rings
6 13 16 19 22 25 28 rings
6 14 17 20 23 26 29 rings

> <PUBCHEM_HEAVY_ATOM_COUNT>
29

> <PUBCHEM_ATOM_DEF_STEREO_COUNT>
0

> <PUBCHEM_ATOM_UDEF_STEREO_COUNT>
0

> <PUBCHEM_BOND_DEF_STEREO_COUNT>
0

> <PUBCHEM_BOND_UDEF_STEREO_COUNT>
0

> <PUBCHEM_ISOTOPIC_ATOM_COUNT>
0

> <PUBCHEM_COMPONENT_COUNT>
1

> <PUBCHEM_CACTVS_TAUTO_COUNT>
1

> <PUBCHEM_CONFORMER_ID>
000214C500000001

> <PUBCHEM_MMFF94_ENERGY>
119.4236

> <PUBCHEM_FEATURE_SELFOVERLAP>
71.296

> <PUBCHEM_SHAPE_FINGERPRINT>
10411042 1 18122344846251605258
10721379 63 17402068080519656439
10815517 723 18271534169500447299
11045515 52 18267305528577524330
11101153 10 18120383309746088484
11386260 185 17764000856345195935
11578080 2 17416964109091020216
11763715 3 18119270577627979830
12730499 353 17690005535739455705
12788726 201 18334287669430293323
13540713 4 17989199366254739416
13590594 115 18264495173189534155
13681431 1 17834675280911123155
13690498 29 18198926828175646022
13757389 114 18263944167108062228
13955234 65 9649306933129085917
140371 6 17545600518473461961
14508225 48 18195805395382278230
14556957 393 17972058065513139348
15131766 46 14999141317399539478
15219462 58 17764822040979922586
15463212 79 18261671459440461384
15664445 248 17547589522366208964
15775530 1 18200013166606170256
15878777 1 10805650225089402979
16087824 20 18410013226871034625
17539 30 18411698811459017998
1813 80 17840609289627574118
20101258 96 18192167077415410160
21033648 29 18196368126910325968
21304303 282 17978472439564704382
21641784 216 18122924276352971652
21703447 108 18197202845603979754
21927370 108 18119543277855006386
23559900 14 17617085250175252379
23929065 36 18267281258260537392
24771750 20 17615703833788309926
24893989 43 16399073632340219493
255183 313 18269858457333251627
255183 451 17838623614387930615
3057174 1 17905888072024841557
3103668 31 18408598180896270775
3729539 64 17406009361791513230
376196 1 17465389616372410472
437795 70 18057015078486699455
4461854 278 18268732562660210723
44802255 64 17831335755467045422
46194498 28 17400338540271839983
5219985 13 17973450905911435660
5969126 39 18268988864316822382
59755656 520 17914348891531795056
6442390 28 18195524792495328081
6669772 16 17838619951001938006
6700243 42 17840347507555529356
7399639 24 17914320536817096472
77188 2 17977948208730881007
81228 2 18339639039862037665
9925002 15 18264507232904235341

> <PUBCHEM_SHAPE_MULTIPOLES>
540.78
8.34
7.84
1.4
16.91
3.47
0.22
-2.84
-2.9
-16.47
-2.78
0.15
-0.54
0.23

> <PUBCHEM_SHAPE_SELFOVERLAP>
1199.21

> <PUBCHEM_SHAPE_VOLUME>
288.5

> <PUBCHEM_COORDINATE_TYPE>
2
5
10

$$$$
