145153
  -OEChem-11012400383D

 51 53  0     0  0  0  0  0  0999 V2000
   -3.6728   -0.0723    0.5693 O   0  0  0  0  0  0  0  0  0  0  0  0
    7.8661    0.2694   -0.4550 O   0  0  0  0  0  0  0  0  0  0  0  0
    1.8771    0.0692    0.6413 N   0  0  0  0  0  0  0  0  0  0  0  0
    2.3192    0.1259   -0.5302 N   0  0  0  0  0  0  0  0  0  0  0  0
   -2.3033   -0.0373    0.5873 C   0  0  0  0  0  0  0  0  0  0  0  0
   -1.6436    1.1871    0.6430 C   0  0  0  0  0  0  0  0  0  0  0  0
   -1.5810   -1.2264    0.5496 C   0  0  0  0  0  0  0  0  0  0  0  0
   -0.2493    1.2225    0.6609 C   0  0  0  0  0  0  0  0  0  0  0  0
   -0.1867   -1.1908    0.5676 C   0  0  0  0  0  0  0  0  0  0  0  0
    0.4792    0.0337    0.6232 C   0  0  0  0  0  0  0  0  0  0  0  0
   -4.2978   -0.0393   -0.7079 C   0  0  0  0  0  0  0  0  0  0  0  0
   -2.4060    2.4705    0.6828 C   0  0  0  0  0  0  0  0  0  0  0  0
   -2.2757   -2.5469    0.4896 C   0  0  0  0  0  0  0  0  0  0  0  0
   -5.7791   -0.0406   -0.5346 C   0  0  0  0  0  0  0  0  0  0  0  0
   -6.4743   -1.2489   -0.4832 C   0  0  0  0  0  0  0  0  0  0  0  0
   -6.4696    1.1664   -0.4235 C   0  0  0  0  0  0  0  0  0  0  0  0
   -7.8596   -1.2504   -0.3209 C   0  0  0  0  0  0  0  0  0  0  0  0
   -7.8551    1.1649   -0.2611 C   0  0  0  0  0  0  0  0  0  0  0  0
    3.7241    0.1620   -0.5127 C   0  0  0  0  0  0  0  0  0  0  0  0
   -8.5500   -0.0435   -0.2098 C   0  0  0  0  0  0  0  0  0  0  0  0
    6.5057    0.2341   -0.4738 C   0  0  0  0  0  0  0  0  0  0  0  0
    4.4460   -1.0268   -0.5505 C   0  0  0  0  0  0  0  0  0  0  0  0
    4.3823    1.3865   -0.4554 C   0  0  0  0  0  0  0  0  0  0  0  0
    5.8403   -0.9906   -0.5309 C   0  0  0  0  0  0  0  0  0  0  0  0
    5.7766    1.4227   -0.4360 C   0  0  0  0  0  0  0  0  0  0  0  0
    8.5362   -0.8380    0.1454 C   0  0  0  0  0  0  0  0  0  0  0  0
    9.8512   -0.3630    0.7257 C   0  0  0  0  0  0  0  0  0  0  0  0
    0.2749    2.1746    0.7027 H   0  0  0  0  0  0  0  0  0  0  0  0
    0.3862   -2.1149    0.5369 H   0  0  0  0  0  0  0  0  0  0  0  0
   -3.9888   -0.9065   -1.3045 H   0  0  0  0  0  0  0  0  0  0  0  0
   -3.9859    0.8538   -1.2639 H   0  0  0  0  0  0  0  0  0  0  0  0
   -1.7911    3.2883    1.0745 H   0  0  0  0  0  0  0  0  0  0  0  0
   -2.7370    2.7468   -0.3229 H   0  0  0  0  0  0  0  0  0  0  0  0
   -3.2790    2.3926    1.3395 H   0  0  0  0  0  0  0  0  0  0  0  0
   -2.5865   -2.7658   -0.5365 H   0  0  0  0  0  0  0  0  0  0  0  0
   -1.6208   -3.3580    0.8265 H   0  0  0  0  0  0  0  0  0  0  0  0
   -3.1550   -2.5629    1.1422 H   0  0  0  0  0  0  0  0  0  0  0  0
   -5.9472   -2.1958   -0.5660 H   0  0  0  0  0  0  0  0  0  0  0  0
   -5.9389    2.1141   -0.4594 H   0  0  0  0  0  0  0  0  0  0  0  0
   -8.4007   -2.1912   -0.2802 H   0  0  0  0  0  0  0  0  0  0  0  0
   -8.3926    2.1045   -0.1738 H   0  0  0  0  0  0  0  0  0  0  0  0
   -9.6286   -0.0446   -0.0830 H   0  0  0  0  0  0  0  0  0  0  0  0
    3.9351   -1.9846   -0.6016 H   0  0  0  0  0  0  0  0  0  0  0  0
    3.8220    2.3172   -0.4259 H   0  0  0  0  0  0  0  0  0  0  0  0
    6.3696   -1.9370   -0.5897 H   0  0  0  0  0  0  0  0  0  0  0  0
    6.2894    2.3797   -0.3912 H   0  0  0  0  0  0  0  0  0  0  0  0
    7.9523   -1.2721    0.9667 H   0  0  0  0  0  0  0  0  0  0  0  0
    8.7222   -1.6025   -0.6170 H   0  0  0  0  0  0  0  0  0  0  0  0
   10.3980   -1.1908    1.1861 H   0  0  0  0  0  0  0  0  0  0  0  0
   10.4777    0.0833   -0.0536 H   0  0  0  0  0  0  0  0  0  0  0  0
    9.6823    0.4121    1.4805 H   0  0  0  0  0  0  0  0  0  0  0  0
  1  5  1  0  0  0  0
  1 11  1  0  0  0  0
  2 21  1  0  0  0  0
  2 26  1  0  0  0  0
  3  4  2  0  0  0  0
  3 10  1  0  0  0  0
  4 19  1  0  0  0  0
  5  6  2  0  0  0  0
  5  7  1  0  0  0  0
  6  8  1  0  0  0  0
  6 12  1  0  0  0  0
  7  9  2  0  0  0  0
  7 13  1  0  0  0  0
  8 10  2  0  0  0  0
  8 28  1  0  0  0  0
  9 10  1  0  0  0  0
  9 29  1  0  0  0  0
 11 14  1  0  0  0  0
 11 30  1  0  0  0  0
 11 31  1  0  0  0  0
 12 32  1  0  0  0  0
 12 33  1  0  0  0  0
 12 34  1  0  0  0  0
 13 35  1  0  0  0  0
 13 36  1  0  0  0  0
 13 37  1  0  0  0  0
 14 15  2  0  0  0  0
 14 16  1  0  0  0  0
 15 17  1  0  0  0  0
 15 38  1  0  0  0  0
 16 18  2  0  0  0  0
 16 39  1  0  0  0  0
 17 20  2  0  0  0  0
 17 40  1  0  0  0  0
 18 20  1  0  0  0  0
 18 41  1  0  0  0  0
 19 22  2  0  0  0  0
 19 23  1  0  0  0  0
 20 42  1  0  0  0  0
 21 24  2  0  0  0  0
 21 25  1  0  0  0  0
 22 24  1  0  0  0  0
 22 43  1  0  0  0  0
 23 25  2  0  0  0  0
 23 44  1  0  0  0  0
 24 45  1  0  0  0  0
 25 46  1  0  0  0  0
 26 27  1  0  0  0  0
 26 47  1  0  0  0  0
 26 48  1  0  0  0  0
 27 49  1  0  0  0  0
 27 50  1  0  0  0  0
 27 51  1  0  0  0  0
M  END
> <PUBCHEM_COMPOUND_CID>
145153

> <PUBCHEM_CONFORMER_RMSD>
0.8

> <PUBCHEM_CONFORMER_DIVERSEORDER>
1
27
13
29
32
15
20
28
17
31
4
24
30
9
23
19
25
10
26
5
16
12
18
21
3
22
8
11
6
7
14
2

> <PUBCHEM_MMFF94_PARTIAL_CHARGES>
37
1 -0.36
10 0.18
11 0.42
12 0.14
13 0.14
14 -0.14
15 -0.15
16 -0.15
17 -0.15
18 -0.15
19 0.18
2 -0.36
20 -0.15
21 0.08
22 -0.15
23 -0.15
24 -0.15
25 -0.15
26 0.28
28 0.15
29 0.15
3 -0.18
38 0.15
39 0.15
4 -0.18
40 0.15
41 0.15
42 0.15
43 0.15
44 0.15
45 0.15
46 0.15
5 0.08
6 -0.14
7 -0.14
8 -0.15
9 -0.15

> <PUBCHEM_EFFECTIVE_ROTOR_COUNT>
7

> <PUBCHEM_PHARMACOPHORE_FEATURES>
5
1 1 acceptor
1 2 acceptor
6 14 15 16 17 18 20 rings
6 19 21 22 23 24 25 rings
6 5 6 7 8 9 10 rings

> <PUBCHEM_HEAVY_ATOM_COUNT>
27

> <PUBCHEM_ATOM_DEF_STEREO_COUNT>
0

> <PUBCHEM_ATOM_UDEF_STEREO_COUNT>
0

> <PUBCHEM_BOND_DEF_STEREO_COUNT>
0

> <PUBCHEM_BOND_UDEF_STEREO_COUNT>
0

> <PUBCHEM_ISOTOPIC_ATOM_COUNT>
0

> <PUBCHEM_COMPONENT_COUNT>
1

> <PUBCHEM_CACTVS_TAUTO_COUNT>
1

> <PUBCHEM_CONFORMER_ID>
0002370100000001

> <PUBCHEM_MMFF94_ENERGY>
88.6237

> <PUBCHEM_FEATURE_SELFOVERLAP>
25.373

> <PUBCHEM_SHAPE_FINGERPRINT>
10 15 8790887380232893397
10050765 1 18052823546555414687
10076449 9 17132114645474798889
10299344 5 18130790062305051853
106641 1 12679459794350287290
10670039 82 18186795856130471269
10674148 151 17989204837641985617
10883706 142 15936412234917116945
12013929 2 8935009165847832503
12013929 94 10015569632672344341
12082328 90 17774724164936788373
12741549 16 16774076259333733176
13533116 47 17240754043741109586
13540713 4 18053097612787406547
13540713 5 18048876299890827425
13914758 101 17968094196866250068
14123256 10 17989488519619988788
14150022 121 10737552913728867895
14251764 46 12035449432592232725
14294032 229 18191588554201801777
15131766 46 16373845394276133668
15183329 4 18410575072200196363
15247644 1 16343986909608057039
15347591 1 17825396429966144394
15461852 350 18341337721345904428
15849732 13 17967816067879917239
18006028 8 15410896262796163865
19841028 212 18339078177912588114
20105231 36 18339364180343796507
21033648 29 13768500850605600892
21150785 3 18334295366233018987
21267235 1 18342739650948975579
21792961 116 18187367640963021739
22224240 67 12823294598123583180
232437 2 18408885131787770598
23559900 14 18269270334513724176
23576562 1 18042966670142465133
249057 3 18114184159417667606
2838139 119 16298103207666123935
3004659 81 18408038528533694657
3092352 35 17022903458850422763
335352 9 18408042930896142252
33684 2 18410292505879779694
4325135 7 18131633378880576412
5283156 175 18272933808667793798
58902169 19 17604152630788611839
59682541 35 11023819583117813174
59755656 520 17385438860519040851
6081469 158 17894910716249253308
9663363 56 16630522925403585417

> <PUBCHEM_SHAPE_MULTIPOLES>
533.95
29.4
1.81
0.88
20.36
0.03
0.03
-2.39
-4.62
-1.39
0.23
0.11
0.02
-0.35

> <PUBCHEM_SHAPE_SELFOVERLAP>
1143.947

> <PUBCHEM_SHAPE_VOLUME>
296.6

> <PUBCHEM_COORDINATE_TYPE>
2
5
10

$$$$
