136376
  -OEChem-11012400333D

 23 22  0     1  0  0  0  0  0999 V2000
   -0.2177    0.4332   -0.1223 O   0  0  0  0  0  0  0  0  0  0  0  0
    1.3093   -0.6613    1.2170 O   0  0  0  0  0  0  0  0  0  0  0  0
   -1.2473   -0.5166    0.1381 C   0  0  1  0  0  0  0  0  0  0  0  0
   -2.5840    0.0469   -0.3489 C   0  0  0  0  0  0  0  0  0  0  0  0
   -0.9062   -1.8192   -0.5732 C   0  0  0  0  0  0  0  0  0  0  0  0
   -2.9294    1.3713    0.3190 C   0  0  0  0  0  0  0  0  0  0  0  0
    1.0414    0.0685    0.2726 C   0  0  0  0  0  0  0  0  0  0  0  0
    2.0537    0.7115   -0.6461 C   0  0  0  0  0  0  0  0  0  0  0  0
    3.4802    0.3658   -0.2562 C   0  0  0  0  0  0  0  0  0  0  0  0
   -1.3126   -0.6890    1.2200 H   0  0  0  0  0  0  0  0  0  0  0  0
   -2.5432    0.2148   -1.4322 H   0  0  0  0  0  0  0  0  0  0  0  0
   -3.3861   -0.6750   -0.1572 H   0  0  0  0  0  0  0  0  0  0  0  0
   -0.7001   -1.6438   -1.6351 H   0  0  0  0  0  0  0  0  0  0  0  0
   -0.0197   -2.3045   -0.1542 H   0  0  0  0  0  0  0  0  0  0  0  0
   -1.7324   -2.5337   -0.4952 H   0  0  0  0  0  0  0  0  0  0  0  0
   -2.1934    2.1450    0.0796 H   0  0  0  0  0  0  0  0  0  0  0  0
   -2.9728    1.2610    1.4072 H   0  0  0  0  0  0  0  0  0  0  0  0
   -3.9074    1.7223   -0.0254 H   0  0  0  0  0  0  0  0  0  0  0  0
    1.8624    0.3658   -1.6674 H   0  0  0  0  0  0  0  0  0  0  0  0
    1.9197    1.7974   -0.6035 H   0  0  0  0  0  0  0  0  0  0  0  0
    3.6470   -0.7159   -0.2946 H   0  0  0  0  0  0  0  0  0  0  0  0
    4.1888    0.8459   -0.9379 H   0  0  0  0  0  0  0  0  0  0  0  0
    3.7022    0.7027    0.7620 H   0  0  0  0  0  0  0  0  0  0  0  0
  1  3  1  0  0  0  0
  1  7  1  0  0  0  0
  2  7  2  0  0  0  0
  3  4  1  0  0  0  0
  3  5  1  0  0  0  0
  3 10  1  0  0  0  0
  4  6  1  0  0  0  0
  4 11  1  0  0  0  0
  4 12  1  0  0  0  0
  5 13  1  0  0  0  0
  5 14  1  0  0  0  0
  5 15  1  0  0  0  0
  6 16  1  0  0  0  0
  6 17  1  0  0  0  0
  6 18  1  0  0  0  0
  7  8  1  0  0  0  0
  8  9  1  0  0  0  0
  8 19  1  0  0  0  0
  8 20  1  0  0  0  0
  9 21  1  0  0  0  0
  9 22  1  0  0  0  0
  9 23  1  0  0  0  0
M  END
> <PUBCHEM_COMPOUND_CID>
136376

> <PUBCHEM_CONFORMER_RMSD>
0.6

> <PUBCHEM_CONFORMER_DIVERSEORDER>
1
57
54
34
24
51
8
46
16
42
39
26
14
48
6
56
21
18
35
11
32
9
41
22
33
36
4
31
27
49
2
53
23
28
3
58
7
12
47
20
38
19
25
13
37
5
40
44
30
55
43
45
17
50
15
52
29
10

> <PUBCHEM_MMFF94_PARTIAL_CHARGES>
5
1 -0.43
2 -0.57
3 0.28
7 0.66
8 0.06

> <PUBCHEM_EFFECTIVE_ROTOR_COUNT>
4

> <PUBCHEM_PHARMACOPHORE_FEATURES>
3
1 2 acceptor
1 6 hydrophobe
1 9 hydrophobe

> <PUBCHEM_HEAVY_ATOM_COUNT>
9

> <PUBCHEM_ATOM_DEF_STEREO_COUNT>
0

> <PUBCHEM_ATOM_UDEF_STEREO_COUNT>
1

> <PUBCHEM_BOND_DEF_STEREO_COUNT>
0

> <PUBCHEM_BOND_UDEF_STEREO_COUNT>
0

> <PUBCHEM_ISOTOPIC_ATOM_COUNT>
0

> <PUBCHEM_COMPONENT_COUNT>
1

> <PUBCHEM_CACTVS_TAUTO_COUNT>
1

> <PUBCHEM_CONFORMER_ID>
000214B800000001

> <PUBCHEM_MMFF94_ENERGY>
8.0645

> <PUBCHEM_FEATURE_SELFOVERLAP>
15.223

> <PUBCHEM_SHAPE_FINGERPRINT>
11062470 55 16487259867692908348
12716758 59 18200875174936660786
12932741 1 16988274390987331506
12932764 1 17677039226876971820
14325111 11 18412829066462633893
14390081 3 18410571816246065017
15775835 57 18334296439990998541
20653085 51 18263380207752598420
21040471 1 18272080583159969523
23235685 24 18343864394491705309
29004967 10 15502373409159406901
9939556 21 18337675329570149684

> <PUBCHEM_SHAPE_MULTIPOLES>
173.48
4.9
1.37
0.85
1.51
0.4
-0.11
-1.89
0.42
-0.89
0.12
0.22
0.09
-0.39

> <PUBCHEM_SHAPE_SELFOVERLAP>
316.604

> <PUBCHEM_SHAPE_VOLUME>
111.3

> <PUBCHEM_COORDINATE_TYPE>
2
5
10

$$$$
