142127
  -OEChem-11012400313D

 34 33  0     1  0  0  0  0  0999 V2000
   -1.7926    0.2476   -0.4288 O   0  0  0  0  0  0  0  0  0  0  0  0
   -1.1696   -0.1683    1.7520 O   0  0  0  0  0  0  0  0  0  0  0  0
    1.4214    0.2319    0.4049 N   0  0  0  0  0  0  0  0  0  0  0  0
    0.3583   -0.6497   -0.0817 C   0  0  1  0  0  0  0  0  0  0  0  0
    0.6536   -2.1044    0.2975 C   0  0  0  0  0  0  0  0  0  0  0  0
    1.1525    1.6156    0.0177 C   0  0  0  0  0  0  0  0  0  0  0  0
    2.7187   -0.2018   -0.1105 C   0  0  0  0  0  0  0  0  0  0  0  0
   -0.9333   -0.1640    0.5503 C   0  0  0  0  0  0  0  0  0  0  0  0
   -0.4176   -3.0716   -0.1897 C   0  0  0  0  0  0  0  0  0  0  0  0
    2.2143    2.5549    0.5644 C   0  0  0  0  0  0  0  0  0  0  0  0
    2.7620   -0.1203   -1.6270 C   0  0  0  0  0  0  0  0  0  0  0  0
   -3.0702    0.7069    0.0242 C   0  0  0  0  0  0  0  0  0  0  0  0
   -3.8974    1.1234   -1.1733 C   0  0  0  0  0  0  0  0  0  0  0  0
    0.2318   -0.5852   -1.1696 H   0  0  0  0  0  0  0  0  0  0  0  0
    0.7548   -2.2105    1.3849 H   0  0  0  0  0  0  0  0  0  0  0  0
    1.5778   -2.4712   -0.1571 H   0  0  0  0  0  0  0  0  0  0  0  0
    1.0162    1.7664   -1.0588 H   0  0  0  0  0  0  0  0  0  0  0  0
    0.2189    1.9579    0.4801 H   0  0  0  0  0  0  0  0  0  0  0  0
    3.5249    0.4148    0.3034 H   0  0  0  0  0  0  0  0  0  0  0  0
    3.0051   -1.1983    0.2375 H   0  0  0  0  0  0  0  0  0  0  0  0
   -0.5414   -3.0054   -1.2754 H   0  0  0  0  0  0  0  0  0  0  0  0
   -1.3848   -2.8695    0.2806 H   0  0  0  0  0  0  0  0  0  0  0  0
   -0.1372   -4.1009    0.0568 H   0  0  0  0  0  0  0  0  0  0  0  0
    2.4207    2.3638    1.6233 H   0  0  0  0  0  0  0  0  0  0  0  0
    3.1523    2.5019    0.0036 H   0  0  0  0  0  0  0  0  0  0  0  0
    1.8630    3.5901    0.4854 H   0  0  0  0  0  0  0  0  0  0  0  0
    2.0600   -0.7921   -2.1273 H   0  0  0  0  0  0  0  0  0  0  0  0
    2.6396    0.8905   -2.0238 H   0  0  0  0  0  0  0  0  0  0  0  0
    3.7582   -0.4422   -1.9563 H   0  0  0  0  0  0  0  0  0  0  0  0
   -3.5785   -0.1008    0.5626 H   0  0  0  0  0  0  0  0  0  0  0  0
   -2.9333    1.5621    0.6953 H   0  0  0  0  0  0  0  0  0  0  0  0
   -4.8830    1.4811   -0.8626 H   0  0  0  0  0  0  0  0  0  0  0  0
   -3.3926    1.9182   -1.7325 H   0  0  0  0  0  0  0  0  0  0  0  0
   -4.0273    0.2829   -1.8629 H   0  0  0  0  0  0  0  0  0  0  0  0
  1  8  1  0  0  0  0
  1 12  1  0  0  0  0
  2  8  2  0  0  0  0
  3  4  1  0  0  0  0
  3  6  1  0  0  0  0
  3  7  1  0  0  0  0
  4  5  1  0  0  0  0
  4  8  1  0  0  0  0
  4 14  1  0  0  0  0
  5  9  1  0  0  0  0
  5 15  1  0  0  0  0
  5 16  1  0  0  0  0
  6 10  1  0  0  0  0
  6 17  1  0  0  0  0
  6 18  1  0  0  0  0
  7 11  1  0  0  0  0
  7 19  1  0  0  0  0
  7 20  1  0  0  0  0
  9 21  1  0  0  0  0
  9 22  1  0  0  0  0
  9 23  1  0  0  0  0
 10 24  1  0  0  0  0
 10 25  1  0  0  0  0
 10 26  1  0  0  0  0
 11 27  1  0  0  0  0
 11 28  1  0  0  0  0
 11 29  1  0  0  0  0
 12 13  1  0  0  0  0
 12 30  1  0  0  0  0
 12 31  1  0  0  0  0
 13 32  1  0  0  0  0
 13 33  1  0  0  0  0
 13 34  1  0  0  0  0
M  END
> <PUBCHEM_COMPOUND_CID>
142127

> <PUBCHEM_CONFORMER_RMSD>
0.8

> <PUBCHEM_CONFORMER_DIVERSEORDER>
1
9
26
14
22
12
21
4
13
27
20
8
7
31
30
29
11
18
28
25
15
2
17
10
24
6
16
23
3
5
19

> <PUBCHEM_MMFF94_PARTIAL_CHARGES>
8
1 -0.43
12 0.28
2 -0.57
3 -0.81
4 0.33
6 0.27
7 0.27
8 0.66

> <PUBCHEM_EFFECTIVE_ROTOR_COUNT>
7

> <PUBCHEM_PHARMACOPHORE_FEATURES>
3
1 2 acceptor
1 3 cation
1 9 hydrophobe

> <PUBCHEM_HEAVY_ATOM_COUNT>
13

> <PUBCHEM_ATOM_DEF_STEREO_COUNT>
0

> <PUBCHEM_ATOM_UDEF_STEREO_COUNT>
1

> <PUBCHEM_BOND_DEF_STEREO_COUNT>
0

> <PUBCHEM_BOND_UDEF_STEREO_COUNT>
0

> <PUBCHEM_ISOTOPIC_ATOM_COUNT>
0

> <PUBCHEM_COMPONENT_COUNT>
1

> <PUBCHEM_CACTVS_TAUTO_COUNT>
1

> <PUBCHEM_CONFORMER_ID>
00022B2F00000001

> <PUBCHEM_MMFF94_ENERGY>
19.1505

> <PUBCHEM_FEATURE_SELFOVERLAP>
15.223

> <PUBCHEM_SHAPE_FINGERPRINT>
1 1 18408880707296177047
11031198 65 18261683558231530239
13380535 239 17624155084165857734
13380536 237 17983292917927091384
13380536 305 18412825780717765280
14614273 12 17550957317844347912
15279308 100 18337115669466848396
15490181 7 18264492947684681898
15775835 57 18333732424732414942
15852999 172 17987787657058029352
16945 1 18341620273799866659
18186145 218 18343586248151650233
20233049 118 18114740439250403196
20511035 2 17967537908216895586
20653085 51 18412266176739065937
20820808 20 18342726430190682937
21028194 46 18114181938798424953
21524375 3 18114175328769792955
21947302 44 18271799185355851504
22959321 8 18261681384978188821
23559900 14 18270415953580078934
23598291 2 17556021277971271241
25 1 18263371304221940849
2748010 2 18265624353670746713
3060560 45 18340756053608203767
3250762 1 18053388979015861398
5084963 1 17989213650287174616
7832392 63 17838898136118374873
81228 2 17687756351212122491

> <PUBCHEM_SHAPE_MULTIPOLES>
250.81
4.88
2.68
1.19
3.66
1.27
-0.11
-2.9
-1.99
-0.77
0.22
0.01
-0.11
0.71

> <PUBCHEM_SHAPE_SELFOVERLAP>
467.928

> <PUBCHEM_SHAPE_VOLUME>
159.3

> <PUBCHEM_COORDINATE_TYPE>
2
5
10

$$$$
