88332
  -OEChem-11012400303D

 24 24  0     0  0  0  0  0  0999 V2000
   -0.2378    2.0594   -0.1487 O   0  0  0  0  0  0  0  0  0  0  0  0
    1.1733    0.1009    0.0329 C   0  0  0  0  0  0  0  0  0  0  0  0
    1.0587   -1.2821   -0.6301 C   0  0  0  0  0  0  0  0  0  0  0  0
   -0.1012   -2.1069   -0.0832 C   0  0  0  0  0  0  0  0  0  0  0  0
   -0.1729    0.8320   -0.0703 C   0  0  0  0  0  0  0  0  0  0  0  0
    1.5513   -0.0087    1.5178 C   0  0  0  0  0  0  0  0  0  0  0  0
    2.2574    0.9088   -0.7003 C   0  0  0  0  0  0  0  0  0  0  0  0
   -1.4357    0.0286   -0.0016 C   0  0  0  0  0  0  0  0  0  0  0  0
   -1.3639   -1.3107    0.0177 C   0  0  0  0  0  0  0  0  0  0  0  0
   -2.7293    0.7787    0.0658 C   0  0  0  0  0  0  0  0  0  0  0  0
    1.9921   -1.8468   -0.5123 H   0  0  0  0  0  0  0  0  0  0  0  0
    0.9093   -1.1550   -1.7118 H   0  0  0  0  0  0  0  0  0  0  0  0
    0.1444   -2.5162    0.9031 H   0  0  0  0  0  0  0  0  0  0  0  0
   -0.2683   -2.9626   -0.7478 H   0  0  0  0  0  0  0  0  0  0  0  0
    2.4908   -0.5573    1.6467 H   0  0  0  0  0  0  0  0  0  0  0  0
    1.6787    0.9847    1.9640 H   0  0  0  0  0  0  0  0  0  0  0  0
    0.7798   -0.5189    2.1040 H   0  0  0  0  0  0  0  0  0  0  0  0
    3.2220    0.3898   -0.6765 H   0  0  0  0  0  0  0  0  0  0  0  0
    1.9867    1.0725   -1.7499 H   0  0  0  0  0  0  0  0  0  0  0  0
    2.3996    1.8958   -0.2453 H   0  0  0  0  0  0  0  0  0  0  0  0
   -2.2816   -1.8883    0.1025 H   0  0  0  0  0  0  0  0  0  0  0  0
   -2.8618    1.3934   -0.8306 H   0  0  0  0  0  0  0  0  0  0  0  0
   -2.7469    1.4332    0.9434 H   0  0  0  0  0  0  0  0  0  0  0  0
   -3.5904    0.1057    0.1368 H   0  0  0  0  0  0  0  0  0  0  0  0
  1  5  2  0  0  0  0
  2  3  1  0  0  0  0
  2  5  1  0  0  0  0
  2  6  1  0  0  0  0
  2  7  1  0  0  0  0
  3  4  1  0  0  0  0
  3 11  1  0  0  0  0
  3 12  1  0  0  0  0
  4  9  1  0  0  0  0
  4 13  1  0  0  0  0
  4 14  1  0  0  0  0
  5  8  1  0  0  0  0
  6 15  1  0  0  0  0
  6 16  1  0  0  0  0
  6 17  1  0  0  0  0
  7 18  1  0  0  0  0
  7 19  1  0  0  0  0
  7 20  1  0  0  0  0
  8  9  2  0  0  0  0
  8 10  1  0  0  0  0
  9 21  1  0  0  0  0
 10 22  1  0  0  0  0
 10 23  1  0  0  0  0
 10 24  1  0  0  0  0
M  END
> <PUBCHEM_COMPOUND_CID>
88332

> <PUBCHEM_CONFORMER_RMSD>
0.4

> <PUBCHEM_CONFORMER_DIVERSEORDER>
1
2

> <PUBCHEM_MMFF94_PARTIAL_CHARGES>
8
1 -0.57
10 0.14
2 0.06
21 0.15
4 0.14
5 0.49
8 -0.12
9 -0.29

> <PUBCHEM_EFFECTIVE_ROTOR_COUNT>
0.6

> <PUBCHEM_PHARMACOPHORE_FEATURES>
3
1 1 acceptor
3 2 6 7 hydrophobe
6 2 3 4 5 8 9 rings

> <PUBCHEM_HEAVY_ATOM_COUNT>
10

> <PUBCHEM_ATOM_DEF_STEREO_COUNT>
0

> <PUBCHEM_ATOM_UDEF_STEREO_COUNT>
0

> <PUBCHEM_BOND_DEF_STEREO_COUNT>
0

> <PUBCHEM_BOND_UDEF_STEREO_COUNT>
0

> <PUBCHEM_ISOTOPIC_ATOM_COUNT>
0

> <PUBCHEM_COMPONENT_COUNT>
1

> <PUBCHEM_CACTVS_TAUTO_COUNT>
3

> <PUBCHEM_CONFORMER_ID>
0001590C00000001

> <PUBCHEM_MMFF94_ENERGY>
15.7656

> <PUBCHEM_FEATURE_SELFOVERLAP>
15.223

> <PUBCHEM_SHAPE_FINGERPRINT>
12423570 1 8324044874869950114
16945 1 18122640348295813231
18185500 45 17973429185955221290
21040471 1 18413105078167168879
21922407 69 16299220388098440283
23235685 24 18411982459631190741
23552423 10 18048323249573233069
241688 4 17183626490157587987
2748010 2 18411990160586901255
5084963 1 18128535955450395731
528886 8 18411709789321508668

> <PUBCHEM_SHAPE_MULTIPOLES>
199.93
2.82
1.94
0.94
0.8
0.4
0.3
-0.82
-0.03
0.21
-0.25
-0.52
0.01
-0.07

> <PUBCHEM_SHAPE_SELFOVERLAP>
401.497

> <PUBCHEM_SHAPE_VOLUME>
118.2

> <PUBCHEM_COORDINATE_TYPE>
2
5
10

$$$$
