40300
  -OEChem-11012401113D

 30 32  0     0  0  0  0  0  0999 V2000
    0.6295    0.4194    0.1544 C   0  0  0  0  0  0  0  0  0  0  0  0
    0.4489   -0.9764    0.0381 C   0  0  0  0  0  0  0  0  0  0  0  0
   -1.7970    0.7423    0.0493 C   0  0  0  0  0  0  0  0  0  0  0  0
    3.0385    0.0883    0.2578 C   0  0  0  0  0  0  0  0  0  0  0  0
   -1.9776   -0.6535   -0.0669 C   0  0  0  0  0  0  0  0  0  0  0  0
   -0.4957    1.2605    0.1584 C   0  0  0  0  0  0  0  0  0  0  0  0
    1.9310    0.9368    0.2634 C   0  0  0  0  0  0  0  0  0  0  0  0
   -0.8524   -1.4946   -0.0711 C   0  0  0  0  0  0  0  0  0  0  0  0
    1.5746   -1.8167    0.0338 C   0  0  0  0  0  0  0  0  0  0  0  0
    4.4132    0.6554    0.3745 C   0  0  0  0  0  0  0  0  0  0  0  0
    2.8605   -1.2867    0.1431 C   0  0  0  0  0  0  0  0  0  0  0  0
   -2.9226    1.5826    0.0531 C   0  0  0  0  0  0  0  0  0  0  0  0
   -3.2792   -1.1709   -0.1760 C   0  0  0  0  0  0  0  0  0  0  0  0
    5.0232    0.9834   -0.9858 C   0  0  0  0  0  0  0  0  0  0  0  0
   -4.2085    1.0526   -0.0559 C   0  0  0  0  0  0  0  0  0  0  0  0
   -4.3865   -0.3224   -0.1703 C   0  0  0  0  0  0  0  0  0  0  0  0
    2.0803    2.0117    0.3516 H   0  0  0  0  0  0  0  0  0  0  0  0
   -0.3564    2.3379    0.2480 H   0  0  0  0  0  0  0  0  0  0  0  0
   -0.9919   -2.5719   -0.1609 H   0  0  0  0  0  0  0  0  0  0  0  0
    1.4589   -2.8950   -0.0553 H   0  0  0  0  0  0  0  0  0  0  0  0
    4.3936    1.5617    0.9927 H   0  0  0  0  0  0  0  0  0  0  0  0
    5.0653   -0.0497    0.9051 H   0  0  0  0  0  0  0  0  0  0  0  0
    3.7144   -1.9590    0.1353 H   0  0  0  0  0  0  0  0  0  0  0  0
   -2.8070    2.6609    0.1416 H   0  0  0  0  0  0  0  0  0  0  0  0
   -3.4419   -2.2429   -0.2666 H   0  0  0  0  0  0  0  0  0  0  0  0
    5.0989    0.0881   -1.6121 H   0  0  0  0  0  0  0  0  0  0  0  0
    6.0290    1.3961   -0.8591 H   0  0  0  0  0  0  0  0  0  0  0  0
    4.4179    1.7207   -1.5238 H   0  0  0  0  0  0  0  0  0  0  0  0
   -5.0700    1.7138   -0.0515 H   0  0  0  0  0  0  0  0  0  0  0  0
   -5.3872   -0.7358   -0.2553 H   0  0  0  0  0  0  0  0  0  0  0  0
  1  2  1  0  0  0  0
  1  6  2  0  0  0  0
  1  7  1  0  0  0  0
  2  8  2  0  0  0  0
  2  9  1  0  0  0  0
  3  5  1  0  0  0  0
  3  6  1  0  0  0  0
  3 12  2  0  0  0  0
  4  7  2  0  0  0  0
  4 10  1  0  0  0  0
  4 11  1  0  0  0  0
  5  8  1  0  0  0  0
  5 13  2  0  0  0  0
  6 18  1  0  0  0  0
  7 17  1  0  0  0  0
  8 19  1  0  0  0  0
  9 11  2  0  0  0  0
  9 20  1  0  0  0  0
 10 14  1  0  0  0  0
 10 21  1  0  0  0  0
 10 22  1  0  0  0  0
 11 23  1  0  0  0  0
 12 15  1  0  0  0  0
 12 24  1  0  0  0  0
 13 16  1  0  0  0  0
 13 25  1  0  0  0  0
 14 26  1  0  0  0  0
 14 27  1  0  0  0  0
 14 28  1  0  0  0  0
 15 16  2  0  0  0  0
 15 29  1  0  0  0  0
 16 30  1  0  0  0  0
M  END
> <PUBCHEM_COMPOUND_CID>
40300

> <PUBCHEM_CONFORMER_RMSD>
0.6

> <PUBCHEM_CONFORMER_DIVERSEORDER>
1

> <PUBCHEM_MMFF94_PARTIAL_CHARGES>
20
10 0.14
11 -0.15
12 -0.15
13 -0.15
15 -0.15
16 -0.15
17 0.15
18 0.15
19 0.15
20 0.15
23 0.15
24 0.15
25 0.15
29 0.15
30 0.15
4 -0.14
6 -0.15
7 -0.15
8 -0.15
9 -0.15

> <PUBCHEM_EFFECTIVE_ROTOR_COUNT>
1

> <PUBCHEM_PHARMACOPHORE_FEATURES>
4
1 14 hydrophobe
6 1 2 3 5 6 8 rings
6 1 2 4 7 9 11 rings
6 3 5 12 13 15 16 rings

> <PUBCHEM_HEAVY_ATOM_COUNT>
16

> <PUBCHEM_ATOM_DEF_STEREO_COUNT>
0

> <PUBCHEM_ATOM_UDEF_STEREO_COUNT>
0

> <PUBCHEM_BOND_DEF_STEREO_COUNT>
0

> <PUBCHEM_BOND_UDEF_STEREO_COUNT>
0

> <PUBCHEM_ISOTOPIC_ATOM_COUNT>
0

> <PUBCHEM_COMPONENT_COUNT>
1

> <PUBCHEM_CACTVS_TAUTO_COUNT>
1

> <PUBCHEM_CONFORMER_ID>
00009D6C00000001

> <PUBCHEM_MMFF94_ENERGY>
46.1957

> <PUBCHEM_FEATURE_SELFOVERLAP>
20.349

> <PUBCHEM_SHAPE_FINGERPRINT>
10014705 185 18114739348555407493
10498660 4 18410575063468298164
10608611 8 18339636750776577481
10616163 171 18340486772007236031
10967382 1 18411979139584450211
11132069 177 18411693279493590193
11471102 20 18411975836733565502
12236239 1 17967529099887934840
12390115 104 18058747792658312441
12403814 3 17676482843859987597
12954195 1 17773336555867245012
13214271 11 18409447011951372423
13221675 6 18412822490762312539
13380535 76 18410009940013440234
14144814 61 18411979126926356275
14325111 11 18411979126831430113
15196674 1 18411135805665799083
15219456 202 18341613681178262303
15442244 35 18051973623587368915
15536298 74 18343018848538322174
15775835 57 18411419488123649162
16945 1 18340758355520834883
18186145 218 18115024095785520599
200 152 17988916782706779205
20510252 161 18201157663689333409
20645477 70 18271524182736659150
21267235 1 18411989087056008615
21501502 16 18339357453105510995
23366157 5 17970632892027102186
23402539 116 18342729745446272167
23402655 69 18342732979962977229
23463225 33 18409727322706959755
23557571 272 18130515235357804647
23559900 14 18126840491720921266
2748010 2 18340205194082737279
296302 2 17822010912698295023
3312278 4 18413952788968692193
335352 9 17979916008290700599
34934 24 18410284788335323175
3545911 37 18411139129838441957
474 4 17458633366933641724
4990 188 17918001568354763364
5104073 3 18410854322067532275
537710 114 18411702084271765240
57096353 35 18412819205122796615
69090 78 18272362071142959959
7364860 26 18198903617761083494
77779 3 18411138013141676746
9709674 26 18411984658639076711

> <PUBCHEM_SHAPE_MULTIPOLES>
329.27
8.95
1.76
0.7
2.64
0.29
0.05
-2.45
1.17
-0.16
0.02
0.35
-0.07
-0.32

> <PUBCHEM_SHAPE_SELFOVERLAP>
734.15

> <PUBCHEM_SHAPE_VOLUME>
161.5

> <PUBCHEM_COORDINATE_TYPE>
2
5
10

$$$$
