130874463
  -OEChem-11012400593D

 31 34  0     1  0  0  0  0  0999 V2000
   -3.1949   -1.0752   -0.3569 O   0  0  0  0  0  0  0  0  0  0  0  0
    0.3077   -0.3124    0.9665 C   0  0  1  0  0  0  0  0  0  0  0  0
    0.4852    1.0567    0.2625 C   0  0  2  0  0  0  0  0  0  0  0  0
   -1.2243   -0.5120    0.9458 C   0  0  1  0  0  0  0  0  0  0  0  0
   -0.9685    1.4640   -0.0692 C   0  0  2  0  0  0  0  0  0  0  0  0
    1.2855   -1.2241    0.1951 C   0  0  1  0  0  0  0  0  0  0  0  0
    1.5438    0.7547   -0.8189 C   0  0  2  0  0  0  0  0  0  0  0  0
   -1.6844    0.9401    1.1862 C   0  0  0  0  0  0  0  0  0  0  0  0
    1.2921   -0.6932   -1.2389 C   0  0  0  0  0  0  0  0  0  0  0  0
   -1.8072   -0.7621   -0.4543 C   0  0  2  0  0  0  0  0  0  0  0  0
   -1.6463    0.6046   -1.1485 C   0  0  0  0  0  0  0  0  0  0  0  0
    2.7166   -0.8042    0.6152 C   0  0  0  0  0  0  0  0  0  0  0  0
    2.8946    0.5631   -0.0846 C   0  0  0  0  0  0  0  0  0  0  0  0
    0.6182   -0.2366    2.0179 H   0  0  0  0  0  0  0  0  0  0  0  0
    0.8809    1.7948    0.9742 H   0  0  0  0  0  0  0  0  0  0  0  0
   -1.5854   -1.2127    1.7026 H   0  0  0  0  0  0  0  0  0  0  0  0
   -1.0804    2.5363   -0.2449 H   0  0  0  0  0  0  0  0  0  0  0  0
    1.0931   -2.2922    0.3092 H   0  0  0  0  0  0  0  0  0  0  0  0
    1.5864    1.4871   -1.6268 H   0  0  0  0  0  0  0  0  0  0  0  0
   -1.3013    1.3691    2.1188 H   0  0  0  0  0  0  0  0  0  0  0  0
   -2.7716    1.0695    1.1535 H   0  0  0  0  0  0  0  0  0  0  0  0
    0.3850   -0.8624   -1.8053 H   0  0  0  0  0  0  0  0  0  0  0  0
    2.1130   -1.1076   -1.8383 H   0  0  0  0  0  0  0  0  0  0  0  0
   -1.3305   -1.5951   -0.9730 H   0  0  0  0  0  0  0  0  0  0  0  0
   -2.6237    1.0303   -1.4082 H   0  0  0  0  0  0  0  0  0  0  0  0
   -1.0643    0.5659   -2.0713 H   0  0  0  0  0  0  0  0  0  0  0  0
    3.4587   -1.5180    0.2390 H   0  0  0  0  0  0  0  0  0  0  0  0
    2.8384   -0.7297    1.7004 H   0  0  0  0  0  0  0  0  0  0  0  0
    3.1103    1.3650    0.6285 H   0  0  0  0  0  0  0  0  0  0  0  0
    3.7238    0.5135   -0.7999 H   0  0  0  0  0  0  0  0  0  0  0  0
   -3.5355   -1.1657   -1.2633 H   0  0  0  0  0  0  0  0  0  0  0  0
  1 10  1  0  0  0  0
  1 31  1  0  0  0  0
  2  3  1  0  0  0  0
  2  4  1  0  0  0  0
  2  6  1  0  0  0  0
  2 14  1  0  0  0  0
  3  5  1  0  0  0  0
  3  7  1  0  0  0  0
  3 15  1  0  0  0  0
  4  8  1  0  0  0  0
  4 10  1  0  0  0  0
  4 16  1  0  0  0  0
  5  8  1  0  0  0  0
  5 11  1  0  0  0  0
  5 17  1  0  0  0  0
  6  9  1  0  0  0  0
  6 12  1  0  0  0  0
  6 18  1  0  0  0  0
  7  9  1  0  0  0  0
  7 13  1  0  0  0  0
  7 19  1  0  0  0  0
  8 20  1  0  0  0  0
  8 21  1  0  0  0  0
  9 22  1  0  0  0  0
  9 23  1  0  0  0  0
 10 11  1  0  0  0  0
 10 24  1  0  0  0  0
 11 25  1  0  0  0  0
 11 26  1  0  0  0  0
 12 13  1  0  0  0  0
 12 27  1  0  0  0  0
 12 28  1  0  0  0  0
 13 29  1  0  0  0  0
 13 30  1  0  0  0  0
M  END
> <PUBCHEM_COMPOUND_CID>
130874463

> <PUBCHEM_CONFORMER_RMSD>
0.4

> <PUBCHEM_CONFORMER_DIVERSEORDER>
1

> <PUBCHEM_MMFF94_PARTIAL_CHARGES>
3
1 -0.68
10 0.28
31 0.4

> <PUBCHEM_EFFECTIVE_ROTOR_COUNT>
1.2

> <PUBCHEM_PHARMACOPHORE_FEATURES>
4
1 1 acceptor
1 1 donor
7 2 3 4 5 8 10 11 rings
7 2 3 6 7 9 12 13 rings

> <PUBCHEM_HEAVY_ATOM_COUNT>
13

> <PUBCHEM_ATOM_DEF_STEREO_COUNT>
7

> <PUBCHEM_ATOM_UDEF_STEREO_COUNT>
0

> <PUBCHEM_BOND_DEF_STEREO_COUNT>
0

> <PUBCHEM_BOND_UDEF_STEREO_COUNT>
0

> <PUBCHEM_ISOTOPIC_ATOM_COUNT>
0

> <PUBCHEM_COMPONENT_COUNT>
1

> <PUBCHEM_CACTVS_TAUTO_COUNT>
1

> <PUBCHEM_CONFORMER_ID>
07CCFC5F00000001

> <PUBCHEM_MMFF94_ENERGY>
69.7686

> <PUBCHEM_FEATURE_SELFOVERLAP>
20.317

> <PUBCHEM_SHAPE_FINGERPRINT>
12423570 1 18123482574228836112
12897270 3 18408602590878195510
13024252 1 17095531655845647961
13299463 15 18187638128737967189
15775835 57 18186805746690567244
16945 1 17676498267034637176
17844478 74 14692578740158124074
20525323 117 18273497861932041960
20653085 51 14273738447379642671
21922407 69 17917161536675028064
23402539 116 16588570015737576711
2748010 2 18041002774143570614
369184 2 18261114036798862888
5084963 1 18040714779301016072
528886 8 18343301440016450433
8030462 33 17967543345761601806

> <PUBCHEM_SHAPE_MULTIPOLES>
261.66
3.78
1.38
1.2
0.34
0.09
-0.04
-0.63
-0.2
-0.16
0
-0.2
0.01
-0.26

> <PUBCHEM_SHAPE_SELFOVERLAP>
589.31

> <PUBCHEM_SHAPE_VOLUME>
147.8

> <PUBCHEM_COORDINATE_TYPE>
2
5
10

$$$$
