145365
  -OEChem-11012401183D

 28 28  0     0  0  0  0  0  0999 V2000
    2.6938    0.8690   -1.4588 F   0  0  0  0  0  0  0  0  0  0  0  0
    0.1976    0.6277   -0.2128 O   0  0  0  0  0  0  0  0  0  0  0  0
    3.4298   -1.9120    0.2857 O   0  5  0  0  0  0  0  0  0  0  0  0
    2.8582    0.7460    1.9561 O   0  5  0  0  0  0  0  0  0  0  0  0
    4.6726   -0.5795   -0.9430 O   0  0  0  0  0  0  0  0  0  0  0  0
    3.1580    2.3195    0.4512 O   0  0  0  0  0  0  0  0  0  0  0  0
   -2.9949   -2.6964    0.1886 O   0  0  0  0  0  0  0  0  0  0  0  0
   -4.2915    1.7370   -0.0708 O   0  0  0  0  0  0  0  0  0  0  0  0
    3.6358   -0.8538   -0.3242 N   0  3  0  0  0  0  0  0  0  0  0  0
    2.8796    1.1616    0.7895 N   0  3  0  0  0  0  0  0  0  0  0  0
   -2.0351    1.2306   -0.1454 N   0  0  0  0  0  0  0  0  0  0  0  0
   -1.3626   -1.0688   -0.0111 N   0  0  0  0  0  0  0  0  0  0  0  0
   -3.6910   -0.4934    0.0626 N   0  0  0  0  0  0  0  0  0  0  0  0
    2.5507    0.1833   -0.2996 C   0  0  0  0  0  0  0  0  0  0  0  0
    1.1677   -0.4142   -0.1851 C   0  0  0  0  0  0  0  0  0  0  0  0
   -1.1152    0.2492   -0.1197 C   0  0  0  0  0  0  0  0  0  0  0  0
   -2.6695   -1.3649    0.0754 C   0  0  0  0  0  0  0  0  0  0  0  0
   -3.2984    0.7857   -0.0503 C   0  0  0  0  0  0  0  0  0  0  0  0
   -1.9124   -3.6159    0.2019 C   0  0  0  0  0  0  0  0  0  0  0  0
   -3.8732    3.0891   -0.1904 C   0  0  0  0  0  0  0  0  0  0  0  0
    0.9954   -1.0864   -1.0360 H   0  0  0  0  0  0  0  0  0  0  0  0
    1.0642   -0.9828    0.7486 H   0  0  0  0  0  0  0  0  0  0  0  0
   -1.2570   -3.4405    1.0617 H   0  0  0  0  0  0  0  0  0  0  0  0
   -1.3462   -3.5716   -0.7346 H   0  0  0  0  0  0  0  0  0  0  0  0
   -2.3274   -4.6239    0.2961 H   0  0  0  0  0  0  0  0  0  0  0  0
   -3.2541    3.3870    0.6626 H   0  0  0  0  0  0  0  0  0  0  0  0
   -4.7675    3.7195   -0.1922 H   0  0  0  0  0  0  0  0  0  0  0  0
   -3.3431    3.2557   -1.1341 H   0  0  0  0  0  0  0  0  0  0  0  0
  1 14  1  0  0  0  0
  2 15  1  0  0  0  0
  2 16  1  0  0  0  0
  3  9  1  0  0  0  0
  4 10  1  0  0  0  0
  5  9  2  0  0  0  0
  6 10  2  0  0  0  0
  7 17  1  0  0  0  0
  7 19  1  0  0  0  0
  8 18  1  0  0  0  0
  8 20  1  0  0  0  0
  9 14  1  0  0  0  0
 10 14  1  0  0  0  0
 11 16  2  0  0  0  0
 11 18  1  0  0  0  0
 12 16  1  0  0  0  0
 12 17  2  0  0  0  0
 13 17  1  0  0  0  0
 13 18  2  0  0  0  0
 14 15  1  0  0  0  0
 15 21  1  0  0  0  0
 15 22  1  0  0  0  0
 19 23  1  0  0  0  0
 19 24  1  0  0  0  0
 19 25  1  0  0  0  0
 20 26  1  0  0  0  0
 20 27  1  0  0  0  0
 20 28  1  0  0  0  0
M  CHG  4   3  -1   4  -1   9   1  10   1
M  END
> <PUBCHEM_COMPOUND_CID>
145365

> <PUBCHEM_CONFORMER_RMSD>
0.8

> <PUBCHEM_CONFORMER_DIVERSEORDER>
1
33
15
36
25
42
19
27
5
39
12
8
17
32
40
29
11
28
13
14
21
2
23
24
18
26
22
34
4
7
10
6
38
41
30
37
16
20
35
31
3
9

> <PUBCHEM_MMFF94_PARTIAL_CHARGES>
20
1 -0.34
10 0.8
11 -0.62
12 -0.62
13 -0.62
14 0.82
15 0.28
16 0.7
17 0.7
18 0.7
19 0.28
2 -0.36
20 0.28
3 -0.52
4 -0.52
5 -0.52
6 -0.52
7 -0.36
8 -0.36
9 0.8

> <PUBCHEM_EFFECTIVE_ROTOR_COUNT>
7

> <PUBCHEM_PHARMACOPHORE_FEATURES>
10
1 3 acceptor
1 3 anion
1 4 acceptor
1 4 anion
1 5 acceptor
1 6 acceptor
3 11 12 16 cation
3 11 13 18 cation
3 12 13 17 cation
6 11 12 13 16 17 18 rings

> <PUBCHEM_HEAVY_ATOM_COUNT>
20

> <PUBCHEM_ATOM_DEF_STEREO_COUNT>
0

> <PUBCHEM_ATOM_UDEF_STEREO_COUNT>
0

> <PUBCHEM_BOND_DEF_STEREO_COUNT>
0

> <PUBCHEM_BOND_UDEF_STEREO_COUNT>
0

> <PUBCHEM_ISOTOPIC_ATOM_COUNT>
0

> <PUBCHEM_COMPONENT_COUNT>
1

> <PUBCHEM_CACTVS_TAUTO_COUNT>
1

> <PUBCHEM_CONFORMER_ID>
000237D500000001

> <PUBCHEM_MMFF94_ENERGY>
56.748

> <PUBCHEM_FEATURE_SELFOVERLAP>
53.669

> <PUBCHEM_SHAPE_FINGERPRINT>
10608611 8 18341891917681176913
10616163 171 18337398230859931470
11405975 8 18413388730744994552
12173636 292 18409725141375354621
12500047 106 18410293579685011303
12507560 40 18272367611613731468
13296908 3 18271809076580722382
14178342 30 18263069058799308722
14289901 80 18264211476965592856
14866123 147 16615906825621200222
15042514 8 18263655112147082971
18186145 218 18131637759488865793
20510252 161 18342458158270409937
20645477 56 18410299077834123709
20645477 70 17131836460564259068
20681677 155 18187652371065934882
20681677 76 18130216172458277153
21065198 57 18411699898259745736
21065199 12 18341891943545595144
21524375 3 18126847097622852053
221490 88 18340777056383584462
22943178 12 18201718500323418992
23557571 272 18271529804864491644
23558518 356 18188491396853229066
23559900 14 18342736304383682736
23598291 2 17677061242683983965
3084891 72 18126001568543181489
3091708 16 9127099319251507347
4214541 1 18410858750115451589
495365 180 17631716197732984474
5104073 3 18411700997502355552
532947 4 17908425753953570407
59124914 9 17910396087443809193
6049 1 18059583554106131984
633830 44 16805614676280903236
81228 2 18115867584824030899
84936 182 17766836131333475041
9709674 26 18341893047162558863

> <PUBCHEM_SHAPE_MULTIPOLES>
338.33
8.93
3.25
0.9
2.97
1.5
-0.19
-2.4
0.4
-3.67
-0.29
1.02
-0.23
0.69

> <PUBCHEM_SHAPE_SELFOVERLAP>
696.554

> <PUBCHEM_SHAPE_VOLUME>
193.6

> <PUBCHEM_COORDINATE_TYPE>
2
5
10

$$$$
