70700
  -OEChem-11012401243D

 33 32  0     0  0  0  0  0  0999 V2000
   -1.0065   -1.3329    0.9416 O   0  0  0  0  0  0  0  0  0  0  0  0
    1.4632   -1.7001   -0.7088 O   0  0  0  0  0  0  0  0  0  0  0  0
   -2.5807    0.2265   -0.0431 C   0  0  0  0  0  0  0  0  0  0  0  0
    2.4900    0.3321    0.1253 C   0  0  0  0  0  0  0  0  0  0  0  0
   -0.0209    0.1820   -0.6344 C   0  0  0  0  0  0  0  0  0  0  0  0
   -1.1841   -0.3996    0.1554 C   0  0  0  0  0  0  0  0  0  0  0  0
    1.3190   -0.5082   -0.4268 C   0  0  0  0  0  0  0  0  0  0  0  0
   -3.0208    0.1111   -1.5085 C   0  0  0  0  0  0  0  0  0  0  0  0
   -2.5337    1.7175    0.3359 C   0  0  0  0  0  0  0  0  0  0  0  0
   -3.5829   -0.4861    0.8736 C   0  0  0  0  0  0  0  0  0  0  0  0
    2.1398    0.9051    1.5049 C   0  0  0  0  0  0  0  0  0  0  0  0
    3.7405   -0.5514    0.2154 C   0  0  0  0  0  0  0  0  0  0  0  0
    2.7771    1.5038   -0.8305 C   0  0  0  0  0  0  0  0  0  0  0  0
    0.0637    1.2383   -0.3786 H   0  0  0  0  0  0  0  0  0  0  0  0
   -0.2386    0.1127   -1.7045 H   0  0  0  0  0  0  0  0  0  0  0  0
   -2.3877    0.7053   -2.1760 H   0  0  0  0  0  0  0  0  0  0  0  0
   -4.0516    0.4589   -1.6402 H   0  0  0  0  0  0  0  0  0  0  0  0
   -2.9701   -0.9291   -1.8498 H   0  0  0  0  0  0  0  0  0  0  0  0
   -2.1080    1.8553    1.3365 H   0  0  0  0  0  0  0  0  0  0  0  0
   -3.5375    2.1576    0.3329 H   0  0  0  0  0  0  0  0  0  0  0  0
   -1.9232    2.2996   -0.3627 H   0  0  0  0  0  0  0  0  0  0  0  0
   -3.6490   -1.5540    0.6352 H   0  0  0  0  0  0  0  0  0  0  0  0
   -3.2939   -0.4002    1.9276 H   0  0  0  0  0  0  0  0  0  0  0  0
   -4.5879   -0.0617    0.7694 H   0  0  0  0  0  0  0  0  0  0  0  0
    1.2988    1.6048    1.4640 H   0  0  0  0  0  0  0  0  0  0  0  0
    1.8590    0.1033    2.1974 H   0  0  0  0  0  0  0  0  0  0  0  0
    2.9920    1.4402    1.9388 H   0  0  0  0  0  0  0  0  0  0  0  0
    3.5791   -1.4002    0.8901 H   0  0  0  0  0  0  0  0  0  0  0  0
    4.5993    0.0137    0.5952 H   0  0  0  0  0  0  0  0  0  0  0  0
    4.0171   -0.9569   -0.7648 H   0  0  0  0  0  0  0  0  0  0  0  0
    2.9327    1.1436   -1.8541 H   0  0  0  0  0  0  0  0  0  0  0  0
    3.6780    2.0489   -0.5261 H   0  0  0  0  0  0  0  0  0  0  0  0
    1.9567    2.2277   -0.8634 H   0  0  0  0  0  0  0  0  0  0  0  0
  1  6  2  0  0  0  0
  2  7  2  0  0  0  0
  3  6  1  0  0  0  0
  3  8  1  0  0  0  0
  3  9  1  0  0  0  0
  3 10  1  0  0  0  0
  4  7  1  0  0  0  0
  4 11  1  0  0  0  0
  4 12  1  0  0  0  0
  4 13  1  0  0  0  0
  5  6  1  0  0  0  0
  5  7  1  0  0  0  0
  5 14  1  0  0  0  0
  5 15  1  0  0  0  0
  8 16  1  0  0  0  0
  8 17  1  0  0  0  0
  8 18  1  0  0  0  0
  9 19  1  0  0  0  0
  9 20  1  0  0  0  0
  9 21  1  0  0  0  0
 10 22  1  0  0  0  0
 10 23  1  0  0  0  0
 10 24  1  0  0  0  0
 11 25  1  0  0  0  0
 11 26  1  0  0  0  0
 11 27  1  0  0  0  0
 12 28  1  0  0  0  0
 12 29  1  0  0  0  0
 12 30  1  0  0  0  0
 13 31  1  0  0  0  0
 13 32  1  0  0  0  0
 13 33  1  0  0  0  0
M  END
> <PUBCHEM_COMPOUND_CID>
70700

> <PUBCHEM_CONFORMER_RMSD>
0.6

> <PUBCHEM_CONFORMER_DIVERSEORDER>
1
25
19
7
4
10
5
21
24
18
3
12
20
11
23
17
14
13
22
6
16
15
2
9
8

> <PUBCHEM_MMFF94_PARTIAL_CHARGES>
7
1 -0.57
2 -0.57
3 0.06
4 0.06
5 0.12
6 0.45
7 0.45

> <PUBCHEM_EFFECTIVE_ROTOR_COUNT>
4

> <PUBCHEM_PHARMACOPHORE_FEATURES>
5
1 1 acceptor
1 2 acceptor
1 5 anion
4 3 8 9 10 hydrophobe
4 4 11 12 13 hydrophobe

> <PUBCHEM_HEAVY_ATOM_COUNT>
13

> <PUBCHEM_ATOM_DEF_STEREO_COUNT>
0

> <PUBCHEM_ATOM_UDEF_STEREO_COUNT>
0

> <PUBCHEM_BOND_DEF_STEREO_COUNT>
0

> <PUBCHEM_BOND_UDEF_STEREO_COUNT>
0

> <PUBCHEM_ISOTOPIC_ATOM_COUNT>
0

> <PUBCHEM_COMPONENT_COUNT>
1

> <PUBCHEM_CACTVS_TAUTO_COUNT>
2

> <PUBCHEM_CONFORMER_ID>
0001142C00000001

> <PUBCHEM_MMFF94_ENERGY>
31.2435

> <PUBCHEM_FEATURE_SELFOVERLAP>
25.373

> <PUBCHEM_SHAPE_FINGERPRINT>
11031198 65 18131080337158094534
12162725 195 18410573976588124253
12251169 10 18114180873741279760
124424 183 17822563932961621614
12500047 106 16298656218405838467
12932764 1 17632578244993150557
13296908 3 16588021324922473812
13581323 91 17821450174690071442
14144814 61 17385438830042214969
14325111 11 18187085057109171205
15775835 57 17560802164523419812
16945 1 18272646883092825773
17802600 8 18060127730747160801
18186145 218 18261957345111246959
19107657 47 18261663809829432788
200 152 18341321267378694087
20201158 50 18412262809358079290
20645464 45 18187650184764115791
21028194 46 18343581849915105208
22485316 2 10015583887098554477
230 275 18409725153753678570
23402539 116 18410283727452047039
305870 269 18116992183081547731
3248919 1 18407757032129509805
3286 77 17988909090003854500
369184 2 17095237047059328205
57812782 119 18130780157482752136
8030462 33 18202282493943493277

> <PUBCHEM_SHAPE_MULTIPOLES>
255.8
6.47
1.44
1.23
0.28
0.18
-0.02
0.62
-0.24
-0.23
-0.02
0.23
0.11
0.17

> <PUBCHEM_SHAPE_SELFOVERLAP>
490.455

> <PUBCHEM_SHAPE_VOLUME>
159.1

> <PUBCHEM_COORDINATE_TYPE>
2
5
10

$$$$
