18926
  -OEChem-11012400423D

 17 17  0     0  0  0  0  0  0999 V2000
    1.6123   -2.8751    0.0036 Cl  0  0  0  0  0  0  0  0  0  0  0  0
    2.8514    2.1776    0.0042 Cl  0  0  0  0  0  0  0  0  0  0  0  0
   -1.8565    0.6538   -0.0090 N   0  0  0  0  0  0  0  0  0  0  0  0
    0.3860    1.3392   -0.0029 N   0  0  0  0  0  0  0  0  0  0  0  0
   -0.1855   -0.9913   -0.0033 N   0  0  0  0  0  0  0  0  0  0  0  0
    2.1185   -0.3210    0.0032 N   0  0  0  0  0  0  0  0  0  0  0  0
   -2.9227   -0.3400   -0.0117 C   0  0  0  0  0  0  0  0  0  0  0  0
   -0.5180    0.3256   -0.0050 C   0  0  0  0  0  0  0  0  0  0  0  0
   -4.2900    0.3218    0.0188 C   0  0  0  0  0  0  0  0  0  0  0  0
    1.1350   -1.2351    0.0009 C   0  0  0  0  0  0  0  0  0  0  0  0
    1.6694    0.9445    0.0012 C   0  0  0  0  0  0  0  0  0  0  0  0
   -2.8461   -0.9627   -0.9104 H   0  0  0  0  0  0  0  0  0  0  0  0
   -2.8243   -0.9925    0.8635 H   0  0  0  0  0  0  0  0  0  0  0  0
   -2.0956    1.6386   -0.0127 H   0  0  0  0  0  0  0  0  0  0  0  0
   -4.4056    0.9393    0.9158 H   0  0  0  0  0  0  0  0  0  0  0  0
   -4.4306    0.9691   -0.8532 H   0  0  0  0  0  0  0  0  0  0  0  0
   -5.0813   -0.4340    0.0172 H   0  0  0  0  0  0  0  0  0  0  0  0
  1 10  1  0  0  0  0
  2 11  1  0  0  0  0
  3  7  1  0  0  0  0
  3  8  1  0  0  0  0
  3 14  1  0  0  0  0
  4  8  2  0  0  0  0
  4 11  1  0  0  0  0
  5  8  1  0  0  0  0
  5 10  2  0  0  0  0
  6 10  1  0  0  0  0
  6 11  2  0  0  0  0
  7  9  1  0  0  0  0
  7 12  1  0  0  0  0
  7 13  1  0  0  0  0
  9 15  1  0  0  0  0
  9 16  1  0  0  0  0
  9 17  1  0  0  0  0
M  END
> <PUBCHEM_COMPOUND_CID>
18926

> <PUBCHEM_CONFORMER_RMSD>
0.4

> <PUBCHEM_CONFORMER_DIVERSEORDER>
1
4
2
3

> <PUBCHEM_MMFF94_PARTIAL_CHARGES>
11
1 -0.18
10 0.8
11 0.8
14 0.4
2 -0.18
3 -0.87
4 -0.62
5 -0.62
6 -0.62
7 0.37
8 0.72

> <PUBCHEM_EFFECTIVE_ROTOR_COUNT>
2

> <PUBCHEM_PHARMACOPHORE_FEATURES>
3
1 3 donor
4 3 4 5 8 cation
6 4 5 6 8 10 11 rings

> <PUBCHEM_HEAVY_ATOM_COUNT>
11

> <PUBCHEM_ATOM_DEF_STEREO_COUNT>
0

> <PUBCHEM_ATOM_UDEF_STEREO_COUNT>
0

> <PUBCHEM_BOND_DEF_STEREO_COUNT>
0

> <PUBCHEM_BOND_UDEF_STEREO_COUNT>
0

> <PUBCHEM_ISOTOPIC_ATOM_COUNT>
0

> <PUBCHEM_COMPONENT_COUNT>
1

> <PUBCHEM_CACTVS_TAUTO_COUNT>
3

> <PUBCHEM_CONFORMER_ID>
000049EE00000001

> <PUBCHEM_MMFF94_ENERGY>
19.0095

> <PUBCHEM_FEATURE_SELFOVERLAP>
15.223

> <PUBCHEM_SHAPE_FINGERPRINT>
1 1 18410291441023335110
12346645 6 18410291419284825845
13380535 76 18263360446375902642
14251717 144 18411975862867437679
14325111 11 18338797922294288197
15442244 35 18052823542255530073
161256 15 18263081032967643876
16945 1 18410573950955308046
17990270 104 18265894657500869451
193761 8 18122624942580574628
20201158 50 18334859385712658803
20645477 70 18337947905723055423
20871998 22 17982170015686459878
21040471 1 18122343738323713316
21499 59 18265608964950709349
23402655 69 18341885304243768853
23530152 11 18339364196394349134
23552423 10 18339083687621327405
241688 4 17690000033743054314
2748010 2 18193008225232851294
3071541 37 18334863822461082036
366044 4 18265895937733484984
449060 62 18341617035716584009
528862 383 18408595963833464882
581208 293 18411974780466899325
7364860 26 18341331106811217142
81228 2 17044286472728592482
81539 233 18261390082852424468

> <PUBCHEM_SHAPE_MULTIPOLES>
210.19
5.41
2.5
0.59
6.72
1.44
0
-1.86
0.03
-2.99
0
-0.01
0.01
0

> <PUBCHEM_SHAPE_SELFOVERLAP>
404.787

> <PUBCHEM_SHAPE_VOLUME>
124.8

> <PUBCHEM_COORDINATE_TYPE>
2
5
10

$$$$
