145393
  -OEChem-11012400403D

 20 21  0     0  0  0  0  0  0999 V2000
   -1.8583   -0.0001    0.0345 N   0  3  0  0  0  0  0  0  0  0  0  0
   -0.4464   -0.0002   -0.0627 C   0  0  0  0  0  0  0  0  0  0  0  0
    1.6562    0.0002    0.6312 C   0  0  0  0  0  0  0  0  0  0  0  0
    0.2736    0.0001    1.2820 C   0  0  0  0  0  0  0  0  0  0  0  0
    0.1224   -1.2545   -0.7377 C   0  0  0  0  0  0  0  0  0  0  0  0
    0.1225    1.2538   -0.7386 C   0  0  0  0  0  0  0  0  0  0  0  0
    1.5839   -1.2527   -0.2621 C   0  0  0  0  0  0  0  0  0  0  0  0
    1.5834    1.2531   -0.2617 C   0  0  0  0  0  0  0  0  0  0  0  0
   -3.0372    0.0002    0.1152 C   0  5  0  0  0  0  0  0  0  0  0  0
    2.5040    0.0003    1.3188 H   0  0  0  0  0  0  0  0  0  0  0  0
    0.0735   -0.8928    1.8844 H   0  0  0  0  0  0  0  0  0  0  0  0
    0.0733    0.8931    1.8842 H   0  0  0  0  0  0  0  0  0  0  0  0
    0.0453   -1.2167   -1.8293 H   0  0  0  0  0  0  0  0  0  0  0  0
   -0.3873   -2.1640   -0.3987 H   0  0  0  0  0  0  0  0  0  0  0  0
   -0.3880    2.1634   -0.4011 H   0  0  0  0  0  0  0  0  0  0  0  0
    0.0463    1.2146   -1.8304 H   0  0  0  0  0  0  0  0  0  0  0  0
    1.7909   -2.1578    0.3199 H   0  0  0  0  0  0  0  0  0  0  0  0
    2.2891   -1.2141   -1.0983 H   0  0  0  0  0  0  0  0  0  0  0  0
    2.2894    1.2156   -1.0973 H   0  0  0  0  0  0  0  0  0  0  0  0
    1.7891    2.1583    0.3207 H   0  0  0  0  0  0  0  0  0  0  0  0
  1  2  1  0  0  0  0
  1  9  3  0  0  0  0
  2  4  1  0  0  0  0
  2  5  1  0  0  0  0
  2  6  1  0  0  0  0
  3  4  1  0  0  0  0
  3  7  1  0  0  0  0
  3  8  1  0  0  0  0
  3 10  1  0  0  0  0
  4 11  1  0  0  0  0
  4 12  1  0  0  0  0
  5  7  1  0  0  0  0
  5 13  1  0  0  0  0
  5 14  1  0  0  0  0
  6  8  1  0  0  0  0
  6 15  1  0  0  0  0
  6 16  1  0  0  0  0
  7 17  1  0  0  0  0
  7 18  1  0  0  0  0
  8 19  1  0  0  0  0
  8 20  1  0  0  0  0
M  CHG  2   1   1   9  -1
M  END
> <PUBCHEM_COMPOUND_CID>
145393

> <PUBCHEM_CONFORMER_RMSD>
0.4

> <PUBCHEM_CONFORMER_DIVERSEORDER>
1

> <PUBCHEM_MMFF94_PARTIAL_CHARGES>
3
1 0.1
2 0.27
9 -0.37

> <PUBCHEM_EFFECTIVE_ROTOR_COUNT>
1

> <PUBCHEM_PHARMACOPHORE_FEATURES>
1
7 2 3 4 5 6 7 8 rings

> <PUBCHEM_HEAVY_ATOM_COUNT>
9

> <PUBCHEM_ATOM_DEF_STEREO_COUNT>
0

> <PUBCHEM_ATOM_UDEF_STEREO_COUNT>
0

> <PUBCHEM_BOND_DEF_STEREO_COUNT>
0

> <PUBCHEM_BOND_UDEF_STEREO_COUNT>
0

> <PUBCHEM_ISOTOPIC_ATOM_COUNT>
0

> <PUBCHEM_COMPONENT_COUNT>
1

> <PUBCHEM_CACTVS_TAUTO_COUNT>
1

> <PUBCHEM_CONFORMER_ID>
000237F100000001

> <PUBCHEM_MMFF94_ENERGY>
27.2213

> <PUBCHEM_FEATURE_SELFOVERLAP>
5.074

> <PUBCHEM_SHAPE_FINGERPRINT>
12423570 1 17402081914508959992
13024252 1 14720921710654955504
137420 1 16885006214686844806
14128692 85 18059585628575459486
16945 1 18410853261252599298
21040471 1 18129939121276619894
29004967 10 18335139760855767410
5084963 1 18343017774759386627
68250623 7 17754453456871164314

> <PUBCHEM_SHAPE_MULTIPOLES>
180.23
2.88
1.33
0.98
2.63
0
0.17
0
0.19
-0.59
-0.36
-0.16
0
0

> <PUBCHEM_SHAPE_SELFOVERLAP>
380.604

> <PUBCHEM_SHAPE_VOLUME>
105.9

> <PUBCHEM_COORDINATE_TYPE>
2
5
10

$$$$
