66028
  -OEChem-11012401213D

 27 28  0     0  0  0  0  0  0999 V2000
    0.4512   -0.3449   -0.0178 N   0  0  0  0  0  0  0  0  0  0  0  0
   -0.4642    0.7947   -0.0984 C   0  0  0  0  0  0  0  0  0  0  0  0
   -1.8955    0.3785   -0.0424 C   0  0  0  0  0  0  0  0  0  0  0  0
    1.8189   -0.2075   -0.0048 C   0  0  0  0  0  0  0  0  0  0  0  0
   -2.5830    0.0846   -1.2200 C   0  0  0  0  0  0  0  0  0  0  0  0
   -2.5466    0.2838    1.1874 C   0  0  0  0  0  0  0  0  0  0  0  0
    2.4283    1.0658   -0.0700 C   0  0  0  0  0  0  0  0  0  0  0  0
    2.6683   -1.3339    0.0750 C   0  0  0  0  0  0  0  0  0  0  0  0
   -3.9216   -0.3041   -1.1676 C   0  0  0  0  0  0  0  0  0  0  0  0
   -3.8851   -0.1051    1.2399 C   0  0  0  0  0  0  0  0  0  0  0  0
   -4.5726   -0.3990    0.0622 C   0  0  0  0  0  0  0  0  0  0  0  0
    3.8161    1.2055   -0.0560 C   0  0  0  0  0  0  0  0  0  0  0  0
    4.0561   -1.1942    0.0890 C   0  0  0  0  0  0  0  0  0  0  0  0
    4.6300    0.0756    0.0235 C   0  0  0  0  0  0  0  0  0  0  0  0
   -0.2876    1.3499   -1.0289 H   0  0  0  0  0  0  0  0  0  0  0  0
   -0.2686    1.4924    0.7264 H   0  0  0  0  0  0  0  0  0  0  0  0
    0.0619   -1.2803    0.0231 H   0  0  0  0  0  0  0  0  0  0  0  0
   -2.0867    0.1527   -2.1844 H   0  0  0  0  0  0  0  0  0  0  0  0
   -2.0218    0.5080    2.1125 H   0  0  0  0  0  0  0  0  0  0  0  0
    1.8370    1.9755   -0.1348 H   0  0  0  0  0  0  0  0  0  0  0  0
    2.2391   -2.3325    0.1270 H   0  0  0  0  0  0  0  0  0  0  0  0
   -4.4568   -0.5336   -2.0843 H   0  0  0  0  0  0  0  0  0  0  0  0
   -4.3921   -0.1796    2.1975 H   0  0  0  0  0  0  0  0  0  0  0  0
   -5.6148   -0.7019    0.1031 H   0  0  0  0  0  0  0  0  0  0  0  0
    4.2636    2.1938   -0.1075 H   0  0  0  0  0  0  0  0  0  0  0  0
    4.6900   -2.0738    0.1509 H   0  0  0  0  0  0  0  0  0  0  0  0
    5.7105    0.1843    0.0343 H   0  0  0  0  0  0  0  0  0  0  0  0
  1  2  1  0  0  0  0
  1  4  1  0  0  0  0
  1 17  1  0  0  0  0
  2  3  1  0  0  0  0
  2 15  1  0  0  0  0
  2 16  1  0  0  0  0
  3  5  2  0  0  0  0
  3  6  1  0  0  0  0
  4  7  2  0  0  0  0
  4  8  1  0  0  0  0
  5  9  1  0  0  0  0
  5 18  1  0  0  0  0
  6 10  2  0  0  0  0
  6 19  1  0  0  0  0
  7 12  1  0  0  0  0
  7 20  1  0  0  0  0
  8 13  2  0  0  0  0
  8 21  1  0  0  0  0
  9 11  2  0  0  0  0
  9 22  1  0  0  0  0
 10 11  1  0  0  0  0
 10 23  1  0  0  0  0
 11 24  1  0  0  0  0
 12 14  2  0  0  0  0
 12 25  1  0  0  0  0
 13 14  1  0  0  0  0
 13 26  1  0  0  0  0
 14 27  1  0  0  0  0
M  END
> <PUBCHEM_COMPOUND_CID>
66028

> <PUBCHEM_CONFORMER_RMSD>
0.6

> <PUBCHEM_CONFORMER_DIVERSEORDER>
1
8
5
4
6
7
2
3

> <PUBCHEM_MMFF94_PARTIAL_CHARGES>
25
1 -0.87
10 -0.15
11 -0.15
12 -0.15
13 -0.15
14 -0.15
17 0.4
18 0.15
19 0.15
2 0.51
20 0.15
21 0.15
22 0.15
23 0.15
24 0.15
25 0.15
26 0.15
27 0.15
3 -0.14
4 0.1
5 -0.15
6 -0.15
7 -0.15
8 -0.15
9 -0.15

> <PUBCHEM_EFFECTIVE_ROTOR_COUNT>
3

> <PUBCHEM_PHARMACOPHORE_FEATURES>
4
1 1 cation
1 1 donor
6 3 5 6 9 10 11 rings
6 4 7 8 12 13 14 rings

> <PUBCHEM_HEAVY_ATOM_COUNT>
14

> <PUBCHEM_ATOM_DEF_STEREO_COUNT>
0

> <PUBCHEM_ATOM_UDEF_STEREO_COUNT>
0

> <PUBCHEM_BOND_DEF_STEREO_COUNT>
0

> <PUBCHEM_BOND_UDEF_STEREO_COUNT>
0

> <PUBCHEM_ISOTOPIC_ATOM_COUNT>
0

> <PUBCHEM_COMPONENT_COUNT>
1

> <PUBCHEM_CACTVS_TAUTO_COUNT>
1

> <PUBCHEM_CONFORMER_ID>
000101EC00000001

> <PUBCHEM_MMFF94_ENERGY>
45.3163

> <PUBCHEM_FEATURE_SELFOVERLAP>
20.297

> <PUBCHEM_SHAPE_FINGERPRINT>
10680689 15 16153431636325453873
10912923 1 17775284979948195394
11471102 20 18408322198892684732
11615757 297 18272088305294870528
12236239 1 17846781814471330041
13167823 11 17988925565292745238
13296908 3 17748545930902506917
13760787 5 18343019999352109348
14252887 29 18342460301369445454
14386348 63 17676209073864558699
15242439 84 17385721378755416511
15375358 24 17530963592082882611
15375462 189 18060418006127373554
17834072 33 17988640834793900261
18186145 218 17386006143735319041
19050596 39 17847062176993462923
19422 9 17847062172703770343
19489759 90 15791725308709551173
1986462 14 16298105376165613207
200 152 18412258437355607085
20279233 1 17458346333688767330
20281475 54 17775278357071883743
20432913 95 18409169904550168011
20645477 56 15936682680386143813
20645477 70 18261948557777477534
20828058 21 15769776857590631420
21065201 7 16081081571841090288
21079973 296 17095528426077590825
22485316 2 18333731316847182171
22646028 1 18060135435865417366
23402539 116 18131630062749137640
23402655 69 18411978040315636588
23557571 272 16950278477519416861
23559900 14 16732977592534027434
26918003 58 18260548922134406321
300161 21 17846774100715373737
3268164 11 15647043889752911367
42 15 16343706499972950206
474 4 17914040160962143136
542803 24 17418096524573935120
573450 72 17203607060492293171
602551 16 15482377751000243302
69090 78 18261110798320000146

> <PUBCHEM_SHAPE_MULTIPOLES>
283.13
10.59
1.12
1.03
0.65
0.05
-0.01
1.16
-0.19
1.24
0
-1.36
0
-0.17

> <PUBCHEM_SHAPE_SELFOVERLAP>
600.333

> <PUBCHEM_SHAPE_VOLUME>
157.5

> <PUBCHEM_COORDINATE_TYPE>
2
5
10

$$$$
