140130
  -OEChem-11012400593D

 37 39  0     1  0  0  0  0  0999 V2000
    0.0000    1.3987    0.1792 N   0  0  0  0  0  0  0  0  0  0  0  0
    1.2561   -0.7446    0.2821 C   0  0  1  0  0  0  0  0  0  0  0  0
   -1.2564   -0.7447    0.2817 C   0  0  2  0  0  0  0  0  0  0  0  0
    1.2107    0.6958   -0.2670 C   0  0  2  0  0  0  0  0  0  0  0  0
   -1.2107    0.6960   -0.2667 C   0  0  1  0  0  0  0  0  0  0  0  0
    0.0000   -1.5188   -0.1380 C   0  0  0  0  0  0  0  0  0  0  0  0
    2.5331   -1.4582   -0.1784 C   0  0  0  0  0  0  0  0  0  0  0  0
   -2.5330   -1.4580   -0.1800 C   0  0  0  0  0  0  0  0  0  0  0  0
    2.4548    1.4774    0.1751 C   0  0  0  0  0  0  0  0  0  0  0  0
   -2.4547    1.4773    0.1766 C   0  0  0  0  0  0  0  0  0  0  0  0
    3.7815   -0.6776    0.2295 C   0  0  0  0  0  0  0  0  0  0  0  0
   -3.7814   -0.6779    0.2285 C   0  0  0  0  0  0  0  0  0  0  0  0
    3.7358    0.7670   -0.2618 C   0  0  0  0  0  0  0  0  0  0  0  0
   -3.7358    0.7674   -0.2607 C   0  0  0  0  0  0  0  0  0  0  0  0
    1.2734   -0.7031    1.3814 H   0  0  0  0  0  0  0  0  0  0  0  0
   -1.2743   -0.7037    1.3810 H   0  0  0  0  0  0  0  0  0  0  0  0
    1.2091    0.6675   -1.3658 H   0  0  0  0  0  0  0  0  0  0  0  0
   -1.2097    0.6683   -1.3656 H   0  0  0  0  0  0  0  0  0  0  0  0
    0.0002   -1.6727   -1.2249 H   0  0  0  0  0  0  0  0  0  0  0  0
   -0.0001   -2.5124    0.3262 H   0  0  0  0  0  0  0  0  0  0  0  0
    0.0001    1.4618    1.1975 H   0  0  0  0  0  0  0  0  0  0  0  0
    2.5220   -1.5806   -1.2688 H   0  0  0  0  0  0  0  0  0  0  0  0
    2.5775   -2.4644    0.2549 H   0  0  0  0  0  0  0  0  0  0  0  0
   -2.5774   -2.4646    0.2521 H   0  0  0  0  0  0  0  0  0  0  0  0
   -2.5217   -1.5792   -1.2706 H   0  0  0  0  0  0  0  0  0  0  0  0
    2.4627    1.5947    1.2668 H   0  0  0  0  0  0  0  0  0  0  0  0
    2.4395    2.4871   -0.2535 H   0  0  0  0  0  0  0  0  0  0  0  0
   -2.4394    2.4874   -0.2511 H   0  0  0  0  0  0  0  0  0  0  0  0
   -2.4622    1.5935    1.2683 H   0  0  0  0  0  0  0  0  0  0  0  0
    4.6731   -1.1743   -0.1696 H   0  0  0  0  0  0  0  0  0  0  0  0
    3.8741   -0.6862    1.3225 H   0  0  0  0  0  0  0  0  0  0  0  0
   -3.8743   -0.6881    1.3216 H   0  0  0  0  0  0  0  0  0  0  0  0
   -4.6729   -1.1742   -0.1714 H   0  0  0  0  0  0  0  0  0  0  0  0
    4.6069    1.3127    0.1180 H   0  0  0  0  0  0  0  0  0  0  0  0
    3.8034    0.7807   -1.3567 H   0  0  0  0  0  0  0  0  0  0  0  0
   -3.8040    0.7826   -1.3555 H   0  0  0  0  0  0  0  0  0  0  0  0
   -4.6068    1.3125    0.1201 H   0  0  0  0  0  0  0  0  0  0  0  0
  1  4  1  0  0  0  0
  1  5  1  0  0  0  0
  1 21  1  0  0  0  0
  2  4  1  0  0  0  0
  2  6  1  0  0  0  0
  2  7  1  0  0  0  0
  2 15  1  0  0  0  0
  3  5  1  0  0  0  0
  3  6  1  0  0  0  0
  3  8  1  0  0  0  0
  3 16  1  0  0  0  0
  4  9  1  0  0  0  0
  4 17  1  0  0  0  0
  5 10  1  0  0  0  0
  5 18  1  0  0  0  0
  6 19  1  0  0  0  0
  6 20  1  0  0  0  0
  7 11  1  0  0  0  0
  7 22  1  0  0  0  0
  7 23  1  0  0  0  0
  8 12  1  0  0  0  0
  8 24  1  0  0  0  0
  8 25  1  0  0  0  0
  9 13  1  0  0  0  0
  9 26  1  0  0  0  0
  9 27  1  0  0  0  0
 10 14  1  0  0  0  0
 10 28  1  0  0  0  0
 10 29  1  0  0  0  0
 11 13  1  0  0  0  0
 11 30  1  0  0  0  0
 11 31  1  0  0  0  0
 12 14  1  0  0  0  0
 12 32  1  0  0  0  0
 12 33  1  0  0  0  0
 13 34  1  0  0  0  0
 13 35  1  0  0  0  0
 14 36  1  0  0  0  0
 14 37  1  0  0  0  0
M  END
> <PUBCHEM_COMPOUND_CID>
140130

> <PUBCHEM_CONFORMER_RMSD>
0.6

> <PUBCHEM_CONFORMER_DIVERSEORDER>
1
6
9
5
12
11
4
3
8
10
2
7

> <PUBCHEM_MMFF94_PARTIAL_CHARGES>
4
1 -0.9
21 0.36
4 0.27
5 0.27

> <PUBCHEM_EFFECTIVE_ROTOR_COUNT>
2

> <PUBCHEM_PHARMACOPHORE_FEATURES>
5
1 1 cation
1 1 donor
6 1 2 3 4 5 6 rings
6 2 4 7 9 11 13 rings
6 3 5 8 10 12 14 rings

> <PUBCHEM_HEAVY_ATOM_COUNT>
14

> <PUBCHEM_ATOM_DEF_STEREO_COUNT>
0

> <PUBCHEM_ATOM_UDEF_STEREO_COUNT>
4

> <PUBCHEM_BOND_DEF_STEREO_COUNT>
0

> <PUBCHEM_BOND_UDEF_STEREO_COUNT>
0

> <PUBCHEM_ISOTOPIC_ATOM_COUNT>
0

> <PUBCHEM_COMPONENT_COUNT>
1

> <PUBCHEM_CACTVS_TAUTO_COUNT>
1

> <PUBCHEM_CONFORMER_ID>
0002236200000001

> <PUBCHEM_MMFF94_ENERGY>
5.9115

> <PUBCHEM_FEATURE_SELFOVERLAP>
25.411

> <PUBCHEM_SHAPE_FINGERPRINT>
10062212 137 18410564072462273899
10608611 8 18410289215956293749
10967382 1 18411136922235827310
10980938 120 18410856564272555410
11132069 177 18411694383231574472
11471102 20 18410852157546257150
12032990 46 18410298003448610995
12932764 1 17489580203432803175
13221675 6 18410573976566960211
13296908 3 18408887338709818771
13380535 76 18410573976561880334
14144814 61 18411138026052997992
14325111 11 18410293613992079956
14897335 6 18410853261110187558
15196674 1 18410012134709670607
15219456 202 18411136939410402263
15442244 35 18194964041606990082
15536298 74 18342176665765507662
15775835 57 18410015437550109740
16945 1 18412263930228440515
17802600 8 18410287008332307233
17834074 16 18411139125543604631
18186145 218 17967811626382683238
18522853 276 18413105060966168384
200 152 18131060550702652405
20201158 50 18411700963105861926
20510252 161 18272373053168640321
20528008 55 18411414016530557861
20645477 70 18412259498017792455
21267235 1 18410302405800911730
21501502 16 18410293609733860518
21501925 9 18410002235195214362
221490 88 18336554905699350882
2334 1 18410293644046106627
23402539 116 18343010103768435134
23402655 69 18412542089580264613
23463225 33 18408322176948317404
23559900 14 18341609270816574458
2748010 2 18410293613997166463
3312278 4 18411703201031515793
335352 9 18122343471560805855
474 4 17024319728474329836
5104073 3 18410012134714952833
528886 8 18411414007792936850
53812653 166 18342735247558068496
57096353 35 18338236084378499646
69090 78 18342452647415925279
7364860 26 18268711619445503046
8809292 202 18260833734443475075
9709674 26 18411142449954261054

> <PUBCHEM_SHAPE_MULTIPOLES>
283.13
6.97
1.82
0.66
0
0.01
0
-0.21
0.04
0
0
0
0.01
0

> <PUBCHEM_SHAPE_SELFOVERLAP>
582.61

> <PUBCHEM_SHAPE_VOLUME>
157.7

> <PUBCHEM_COORDINATE_TYPE>
2
5
10

$$$$
