20652018
  -OEChem-11012400463D

 25 24  0     0  0  0  0  0  0999 V2000
   -1.5921   -0.4750   -0.6896 O   0  0  0  0  0  0  0  0  0  0  0  0
   -1.5063    0.7731    1.2416 O   0  0  0  0  0  0  0  0  0  0  0  0
    1.1466   -0.7981   -0.1563 N   0  0  0  0  0  0  0  0  0  0  0  0
    0.4958    0.5166   -0.1397 C   0  0  0  0  0  0  0  0  0  0  0  0
    1.2007    1.3905    0.8997 C   0  0  0  0  0  0  0  0  0  0  0  0
    0.5999    1.1249   -1.5397 C   0  0  0  0  0  0  0  0  0  0  0  0
   -0.9698    0.3075    0.2434 C   0  0  0  0  0  0  0  0  0  0  0  0
    1.0608   -1.4224    1.1617 C   0  0  0  0  0  0  0  0  0  0  0  0
    2.5401   -0.6684   -0.5748 C   0  0  0  0  0  0  0  0  0  0  0  0
   -2.9758   -0.7487   -0.4463 C   0  0  0  0  0  0  0  0  0  0  0  0
    2.2530    1.5967    0.6867 H   0  0  0  0  0  0  0  0  0  0  0  0
    0.7195    2.3791    0.9082 H   0  0  0  0  0  0  0  0  0  0  0  0
    1.1077    1.0350    1.9308 H   0  0  0  0  0  0  0  0  0  0  0  0
    1.5856    1.5531   -1.7522 H   0  0  0  0  0  0  0  0  0  0  0  0
   -0.1192    1.9474   -1.6456 H   0  0  0  0  0  0  0  0  0  0  0  0
    0.3557    0.4024   -2.3283 H   0  0  0  0  0  0  0  0  0  0  0  0
    0.0403   -1.5033    1.5485 H   0  0  0  0  0  0  0  0  0  0  0  0
    1.6962   -0.9596    1.9241 H   0  0  0  0  0  0  0  0  0  0  0  0
    1.4073   -2.4605    1.0756 H   0  0  0  0  0  0  0  0  0  0  0  0
    2.6602   -0.2742   -1.5878 H   0  0  0  0  0  0  0  0  0  0  0  0
    2.9763   -1.6749   -0.6315 H   0  0  0  0  0  0  0  0  0  0  0  0
    3.1834   -0.1111    0.1120 H   0  0  0  0  0  0  0  0  0  0  0  0
   -3.3459   -1.3775   -1.2603 H   0  0  0  0  0  0  0  0  0  0  0  0
   -3.5493    0.1830   -0.4334 H   0  0  0  0  0  0  0  0  0  0  0  0
   -3.0940   -1.2898    0.4972 H   0  0  0  0  0  0  0  0  0  0  0  0
  1  7  1  0  0  0  0
  1 10  1  0  0  0  0
  2  7  2  0  0  0  0
  3  4  1  0  0  0  0
  3  8  1  0  0  0  0
  3  9  1  0  0  0  0
  4  5  1  0  0  0  0
  4  6  1  0  0  0  0
  4  7  1  0  0  0  0
  5 11  1  0  0  0  0
  5 12  1  0  0  0  0
  5 13  1  0  0  0  0
  6 14  1  0  0  0  0
  6 15  1  0  0  0  0
  6 16  1  0  0  0  0
  8 17  1  0  0  0  0
  8 18  1  0  0  0  0
  8 19  1  0  0  0  0
  9 20  1  0  0  0  0
  9 21  1  0  0  0  0
  9 22  1  0  0  0  0
 10 23  1  0  0  0  0
 10 24  1  0  0  0  0
 10 25  1  0  0  0  0
M  END
> <PUBCHEM_COMPOUND_CID>
20652018

> <PUBCHEM_CONFORMER_RMSD>
0.6

> <PUBCHEM_CONFORMER_DIVERSEORDER>
2
7
6
8
4
3
9
5
1

> <PUBCHEM_MMFF94_PARTIAL_CHARGES>
8
1 -0.43
10 0.28
2 -0.57
3 -0.81
4 0.33
7 0.66
8 0.27
9 0.27

> <PUBCHEM_EFFECTIVE_ROTOR_COUNT>
3

> <PUBCHEM_PHARMACOPHORE_FEATURES>
3
1 2 acceptor
1 3 cation
3 4 5 6 hydrophobe

> <PUBCHEM_HEAVY_ATOM_COUNT>
10

> <PUBCHEM_ATOM_DEF_STEREO_COUNT>
0

> <PUBCHEM_ATOM_UDEF_STEREO_COUNT>
0

> <PUBCHEM_BOND_DEF_STEREO_COUNT>
0

> <PUBCHEM_BOND_UDEF_STEREO_COUNT>
0

> <PUBCHEM_ISOTOPIC_ATOM_COUNT>
0

> <PUBCHEM_COMPONENT_COUNT>
1

> <PUBCHEM_CACTVS_TAUTO_COUNT>
1

> <PUBCHEM_CONFORMER_ID>
013B1FF200000002

> <PUBCHEM_MMFF94_ENERGY>
33.1138

> <PUBCHEM_FEATURE_SELFOVERLAP>
15.223

> <PUBCHEM_SHAPE_FINGERPRINT>
12423570 1 8357997536401171836
137420 1 12061649102586612368
14128692 85 18412547630019426711
16945 1 17773591822383582480
18185500 45 18338802191148882691
20653091 64 18343301482939795264
21040471 1 17828482805658972412
23552333 60 18270954743371970355
23552423 10 18409447020451402311
23552449 11 18268689719169383819
24536 1 17676778655390176113
29004967 10 17314250889799130136
5084963 1 18262243325366226335
68250623 7 17775300364858841568

> <PUBCHEM_SHAPE_MULTIPOLES>
189.08
3.18
1.44
1.29
1.82
0.11
0.23
0.88
-0.8
-0.62
0.02
-0.07
-0.29
-0.12

> <PUBCHEM_SHAPE_SELFOVERLAP>
359.047

> <PUBCHEM_SHAPE_VOLUME>
119.2

> <PUBCHEM_COORDINATE_TYPE>
2
5
10

$$$$
