137711
  -OEChem-11012400543D

 12 13  0     0  0  0  0  0  0999 V2000
    1.4834   -1.1708   -0.0008 N   0  0  0  0  0  0  0  0  0  0  0  0
   -1.4833   -1.1707    0.0008 N   0  0  0  0  0  0  0  0  0  0  0  0
    1.4275    1.0931    0.0013 N   0  0  0  0  0  0  0  0  0  0  0  0
   -1.4274    1.0930   -0.0012 N   0  0  0  0  0  0  0  0  0  0  0  0
    2.6936   -0.5945   -0.0006 N   0  0  0  0  0  0  0  0  0  0  0  0
   -2.6937   -0.5945    0.0006 N   0  0  0  0  0  0  0  0  0  0  0  0
    2.7086    0.7457    0.0002 N   0  0  0  0  0  0  0  0  0  0  0  0
   -2.7086    0.7457   -0.0002 N   0  0  0  0  0  0  0  0  0  0  0  0
    0.7220   -0.0735    0.0006 C   0  0  0  0  0  0  0  0  0  0  0  0
   -0.7220   -0.0735   -0.0006 C   0  0  0  0  0  0  0  0  0  0  0  0
    3.5483   -1.1407   -0.0017 H   0  0  0  0  0  0  0  0  0  0  0  0
   -3.5484   -1.1408    0.0016 H   0  0  0  0  0  0  0  0  0  0  0  0
  1  5  1  0  0  0  0
  1  9  2  0  0  0  0
  2  6  1  0  0  0  0
  2 10  2  0  0  0  0
  3  7  2  0  0  0  0
  3  9  1  0  0  0  0
  4  8  2  0  0  0  0
  4 10  1  0  0  0  0
  5  7  1  0  0  0  0
  5 11  1  0  0  0  0
  6  8  1  0  0  0  0
  6 12  1  0  0  0  0
  9 10  1  0  0  0  0
M  END
> <PUBCHEM_COMPOUND_CID>
137711

> <PUBCHEM_CONFORMER_RMSD>
0.4

> <PUBCHEM_CONFORMER_DIVERSEORDER>
1
2

> <PUBCHEM_MMFF94_PARTIAL_CHARGES>
12
1 -0.71
10 0.52
11 0.27
12 0.27
2 -0.71
3 -0.23
4 -0.23
5 0.57
6 0.57
7 -0.42
8 -0.42
9 0.52

> <PUBCHEM_EFFECTIVE_ROTOR_COUNT>
1

> <PUBCHEM_PHARMACOPHORE_FEATURES>
4
3 1 3 9 cation
3 2 4 10 cation
5 1 3 5 7 9 rings
5 2 4 6 8 10 rings

> <PUBCHEM_HEAVY_ATOM_COUNT>
10

> <PUBCHEM_ATOM_DEF_STEREO_COUNT>
0

> <PUBCHEM_ATOM_UDEF_STEREO_COUNT>
0

> <PUBCHEM_BOND_DEF_STEREO_COUNT>
0

> <PUBCHEM_BOND_UDEF_STEREO_COUNT>
0

> <PUBCHEM_ISOTOPIC_ATOM_COUNT>
0

> <PUBCHEM_COMPONENT_COUNT>
1

> <PUBCHEM_CACTVS_TAUTO_COUNT>
5

> <PUBCHEM_CONFORMER_ID>
000219EF00000001

> <PUBCHEM_MMFF94_ENERGY>
3.6873

> <PUBCHEM_FEATURE_SELFOVERLAP>
20.326

> <PUBCHEM_SHAPE_FINGERPRINT>
10857977 72 18337665442323273713
12897270 3 18411136969464617364
14325111 11 18410855464428436321
14390081 3 18342173388262563632
19973954 147 18410858762958350208
20871998 184 18129950121036525167
21040471 1 18338797935194858434
23552423 10 18260831509476088775
29004967 10 18410014342539125746
369184 2 18410009935981807699
5084963 1 18411700984570025608
5460574 1 9295289443165443555

> <PUBCHEM_SHAPE_MULTIPOLES>
165.95
4.21
1.19
0.54
0
0.01
0
-0.16
0
0
0
0
0
0

> <PUBCHEM_SHAPE_SELFOVERLAP>
357.871

> <PUBCHEM_SHAPE_VOLUME>
91.3

> <PUBCHEM_COORDINATE_TYPE>
2
5
10

$$$$
