145520
  -OEChem-11012400443D

 16 16  0     0  0  0  0  0  0999 V2000
    2.2665   -0.0008   -0.5473 C   0  0  0  0  0  0  0  0  0  0  0  0
    3.1088   -0.7496    0.4377 C   0  0  0  0  0  0  0  0  0  0  0  0
    3.1088    0.7510    0.4357 C   0  0  0  0  0  0  0  0  0  0  0  0
    0.8365   -0.0006   -0.3734 C   0  0  0  0  0  0  0  0  0  0  0  0
   -0.3552   -0.0004   -0.2285 C   0  0  0  0  0  0  0  0  0  0  0  0
   -1.7173   -0.0001   -0.0628 C   0  0  0  0  0  0  0  0  0  0  0  0
   -4.3390    0.0005    0.2563 C   0  0  0  0  0  0  0  0  0  0  0  0
   -2.9090    0.0001    0.0822 C   0  0  0  0  0  0  0  0  0  0  0  0
    2.6092   -0.0021   -1.5771 H   0  0  0  0  0  0  0  0  0  0  0  0
    3.9932   -1.2534    0.0661 H   0  0  0  0  0  0  0  0  0  0  0  0
    2.6300   -1.2505    1.2706 H   0  0  0  0  0  0  0  0  0  0  0  0
    2.6299    1.2540    1.2674 H   0  0  0  0  0  0  0  0  0  0  0  0
    3.9932    1.2538    0.0629 H   0  0  0  0  0  0  0  0  0  0  0  0
   -4.7732   -0.9594   -0.0399 H   0  0  0  0  0  0  0  0  0  0  0  0
   -4.6096    0.1805    1.3013 H   0  0  0  0  0  0  0  0  0  0  0  0
   -4.8104    0.7807   -0.3493 H   0  0  0  0  0  0  0  0  0  0  0  0
  1  2  1  0  0  0  0
  1  3  1  0  0  0  0
  1  4  1  0  0  0  0
  1  9  1  0  0  0  0
  2  3  1  0  0  0  0
  2 10  1  0  0  0  0
  2 11  1  0  0  0  0
  3 12  1  0  0  0  0
  3 13  1  0  0  0  0
  4  5  3  0  0  0  0
  5  6  1  0  0  0  0
  6  8  3  0  0  0  0
  7  8  1  0  0  0  0
  7 14  1  0  0  0  0
  7 15  1  0  0  0  0
  7 16  1  0  0  0  0
M  END
> <PUBCHEM_COMPOUND_CID>
145520

> <PUBCHEM_CONFORMER_RMSD>
0.4

> <PUBCHEM_CONFORMER_DIVERSEORDER>
1

> <PUBCHEM_MMFF94_PARTIAL_CHARGES>
10
10 0.1
11 0.1
12 0.1
13 0.1
2 -0.2
3 -0.2
4 -0.1
7 0.2
8 -0.2
9 0.1

> <PUBCHEM_EFFECTIVE_ROTOR_COUNT>
0.6

> <PUBCHEM_PHARMACOPHORE_FEATURES>
1
1 7 hydrophobe

> <PUBCHEM_HEAVY_ATOM_COUNT>
8

> <PUBCHEM_ATOM_DEF_STEREO_COUNT>
0

> <PUBCHEM_ATOM_UDEF_STEREO_COUNT>
0

> <PUBCHEM_BOND_DEF_STEREO_COUNT>
0

> <PUBCHEM_BOND_UDEF_STEREO_COUNT>
0

> <PUBCHEM_ISOTOPIC_ATOM_COUNT>
0

> <PUBCHEM_COMPONENT_COUNT>
1

> <PUBCHEM_CACTVS_TAUTO_COUNT>
1

> <PUBCHEM_CONFORMER_ID>
0002387000000001

> <PUBCHEM_MMFF94_ENERGY>
6.2106

> <PUBCHEM_FEATURE_SELFOVERLAP>
5.074

> <PUBCHEM_SHAPE_FINGERPRINT>
11062470 55 17775568641321696409
12932764 1 18410565193501096094
14325111 11 18343302573993363575
14390081 3 14333127463989119026
177051 138 17748826302046326802
190213 19 17313103055615561089
21293036 1 10303808787282962883
22485316 2 17530679931257988107

> <PUBCHEM_SHAPE_MULTIPOLES>
164.64
7.56
0.76
0.74
4.89
0
0.01
0
-1.33
-0.44
-0.06
-0.21
0
0

> <PUBCHEM_SHAPE_SELFOVERLAP>
317.144

> <PUBCHEM_SHAPE_VOLUME>
98.3

> <PUBCHEM_COORDINATE_TYPE>
2
5
10

$$$$
