11043496
  -OEChem-11012400403D

 38 40  0     1  0  0  0  0  0999 V2000
    0.2644    0.0450    1.4063 O   0  0  0  0  0  0  0  0  0  0  0  0
    1.8883   -0.8843   -1.0106 O   0  0  0  0  0  0  0  0  0  0  0  0
    2.4462    0.6622    0.6647 O   0  0  0  0  0  0  0  0  0  0  0  0
   -1.5523    0.2299   -0.9608 O   0  0  0  0  0  0  0  0  0  0  0  0
   -2.6980   -0.3237    1.0464 O   0  0  0  0  0  0  0  0  0  0  0  0
   -0.7517    2.2863    0.1530 O   0  0  0  0  0  0  0  0  0  0  0  0
    0.8150    0.0524   -0.9079 C   0  0  2  0  0  0  0  0  0  0  0  0
    1.0431    0.7500    0.4206 C   0  0  1  0  0  0  0  0  0  0  0  0
   -0.4902   -0.6841   -0.7058 C   0  0  1  0  0  0  0  0  0  0  0  0
   -0.3990   -1.0625    0.7662 C   0  0  2  0  0  0  0  0  0  0  0  0
    2.9487   -0.3471   -0.2156 C   0  0  0  0  0  0  0  0  0  0  0  0
   -1.7430   -1.3095    1.4268 C   0  0  0  0  0  0  0  0  0  0  0  0
    0.6263    2.2115    0.4470 C   0  0  0  0  0  0  0  0  0  0  0  0
   -2.7989   -0.1431   -0.3702 C   0  0  0  0  0  0  0  0  0  0  0  0
    3.9876    0.2867   -1.1344 C   0  0  0  0  0  0  0  0  0  0  0  0
    3.5590   -1.4698    0.6115 C   0  0  0  0  0  0  0  0  0  0  0  0
   -3.4186   -1.3585   -1.0697 C   0  0  0  0  0  0  0  0  0  0  0  0
   -3.7268    1.0586   -0.5676 C   0  0  0  0  0  0  0  0  0  0  0  0
    0.8376    0.7223   -1.7736 H   0  0  0  0  0  0  0  0  0  0  0  0
   -0.5894   -1.5621   -1.3518 H   0  0  0  0  0  0  0  0  0  0  0  0
    0.2481   -1.9356    0.9110 H   0  0  0  0  0  0  0  0  0  0  0  0
   -2.1310   -2.3007    1.1708 H   0  0  0  0  0  0  0  0  0  0  0  0
   -1.6495   -1.2634    2.5168 H   0  0  0  0  0  0  0  0  0  0  0  0
    1.1924    2.8016   -0.2815 H   0  0  0  0  0  0  0  0  0  0  0  0
    0.7949    2.6419    1.4401 H   0  0  0  0  0  0  0  0  0  0  0  0
    4.8142    0.7195   -0.5613 H   0  0  0  0  0  0  0  0  0  0  0  0
    4.3859   -0.4430   -1.8471 H   0  0  0  0  0  0  0  0  0  0  0  0
    3.5408    1.0993   -1.7188 H   0  0  0  0  0  0  0  0  0  0  0  0
    4.3694   -1.1002    1.2485 H   0  0  0  0  0  0  0  0  0  0  0  0
    2.8054   -1.9118    1.2730 H   0  0  0  0  0  0  0  0  0  0  0  0
    3.9399   -2.2737   -0.0269 H   0  0  0  0  0  0  0  0  0  0  0  0
   -4.3841   -1.6191   -0.6231 H   0  0  0  0  0  0  0  0  0  0  0  0
   -2.7843   -2.2469   -0.9933 H   0  0  0  0  0  0  0  0  0  0  0  0
   -3.5565   -1.1666   -2.1394 H   0  0  0  0  0  0  0  0  0  0  0  0
   -4.7251    0.8604   -0.1621 H   0  0  0  0  0  0  0  0  0  0  0  0
   -3.8174    1.3252   -1.6262 H   0  0  0  0  0  0  0  0  0  0  0  0
   -3.3439    1.9405   -0.0427 H   0  0  0  0  0  0  0  0  0  0  0  0
   -1.0010    3.2258    0.1762 H   0  0  0  0  0  0  0  0  0  0  0  0
  1  8  1  0  0  0  0
  1 10  1  0  0  0  0
  2  7  1  0  0  0  0
  2 11  1  0  0  0  0
  3  8  1  0  0  0  0
  3 11  1  0  0  0  0
  4  9  1  0  0  0  0
  4 14  1  0  0  0  0
  5 12  1  0  0  0  0
  5 14  1  0  0  0  0
  6 13  1  0  0  0  0
  6 38  1  0  0  0  0
  7  8  1  0  0  0  0
  7  9  1  0  0  0  0
  7 19  1  0  0  0  0
  8 13  1  0  0  0  0
  9 10  1  0  0  0  0
  9 20  1  0  0  0  0
 10 12  1  0  0  0  0
 10 21  1  0  0  0  0
 11 15  1  0  0  0  0
 11 16  1  0  0  0  0
 12 22  1  0  0  0  0
 12 23  1  0  0  0  0
 13 24  1  0  0  0  0
 13 25  1  0  0  0  0
 14 17  1  0  0  0  0
 14 18  1  0  0  0  0
 15 26  1  0  0  0  0
 15 27  1  0  0  0  0
 15 28  1  0  0  0  0
 16 29  1  0  0  0  0
 16 30  1  0  0  0  0
 16 31  1  0  0  0  0
 17 32  1  0  0  0  0
 17 33  1  0  0  0  0
 17 34  1  0  0  0  0
 18 35  1  0  0  0  0
 18 36  1  0  0  0  0
 18 37  1  0  0  0  0
M  END
> <PUBCHEM_COMPOUND_CID>
11043496

> <PUBCHEM_CONFORMER_RMSD>
0.6

> <PUBCHEM_CONFORMER_DIVERSEORDER>
2
3
1

> <PUBCHEM_MMFF94_PARTIAL_CHARGES>
15
1 -0.56
10 0.28
11 0.56
12 0.28
13 0.28
14 0.56
2 -0.56
3 -0.56
38 0.4
4 -0.56
5 -0.56
6 -0.68
7 0.28
8 0.56
9 0.28

> <PUBCHEM_EFFECTIVE_ROTOR_COUNT>
2.6

> <PUBCHEM_PHARMACOPHORE_FEATURES>
12
1 1 acceptor
1 2 acceptor
1 3 acceptor
1 4 acceptor
1 5 acceptor
1 6 acceptor
1 6 donor
3 11 15 16 hydrophobe
3 14 17 18 hydrophobe
5 1 7 8 9 10 rings
5 2 3 7 8 11 rings
6 4 5 9 10 12 14 rings

> <PUBCHEM_HEAVY_ATOM_COUNT>
18

> <PUBCHEM_ATOM_DEF_STEREO_COUNT>
4

> <PUBCHEM_ATOM_UDEF_STEREO_COUNT>
0

> <PUBCHEM_BOND_DEF_STEREO_COUNT>
0

> <PUBCHEM_BOND_UDEF_STEREO_COUNT>
0

> <PUBCHEM_ISOTOPIC_ATOM_COUNT>
0

> <PUBCHEM_COMPONENT_COUNT>
1

> <PUBCHEM_CACTVS_TAUTO_COUNT>
1

> <PUBCHEM_CONFORMER_ID>
00A882A800000002

> <PUBCHEM_MMFF94_ENERGY>
60.7353

> <PUBCHEM_FEATURE_SELFOVERLAP>
61.985

> <PUBCHEM_SHAPE_FINGERPRINT>
10062212 137 18263630797619756475
10863032 1 17240489130105615390
11315181 36 17967825916899387470
11769659 78 17560508620831194975
124424 183 18408881819602931927
12491281 212 18201165334427090249
12808571 1 13117998902860169832
13571099 22 18114180817796194938
14115302 16 17821733814309167734
14181834 199 17916024744910854028
14943859 89 16008749117155078702
14993402 34 17775290482033332342
15219456 202 18189903200043119728
15775835 57 14201391707358332022
16945 1 17632300055629478682
18186145 218 17989208161234691039
19422 9 13912315793958872147
200 152 18334014973978632454
21130352 189 18341332274794486337
22802520 49 17894917385616032241
22926399 65 18187644670005158341
23236772 104 13551468202763579379
23402539 116 18337100194725892334
23419403 2 14951614029282014540
23526113 38 18260547831386994154
23559900 14 18186239529216398058
25 1 18261670364350420609
2748010 2 18048880985199123184
296302 2 18413392050997287620
31174 14 17832725821521209915
3286 77 18337941398430682311
528886 8 18131061619743398599
57812782 119 16845568725315632531
74978 22 18339641264623649307
76465 3 18341879801589270374
77492 1 16702030806508622290
81228 2 18196666094239251448
9981440 41 14423240345100026132

> <PUBCHEM_SHAPE_MULTIPOLES>
335.22
6.14
1.74
1.29
0.78
0.73
0.07
-1.08
-1.6
-0.2
0.34
-0.14
-0.26
0

> <PUBCHEM_SHAPE_SELFOVERLAP>
715.418

> <PUBCHEM_SHAPE_VOLUME>
186.3

> <PUBCHEM_COORDINATE_TYPE>
2
5
10

$$$$
