136462
  -OEChem-11012401263D

 16 15  0     0  0  0  0  0  0999 V2000
    1.4545    1.1283   -0.0155 F   0  0  0  0  0  0  0  0  0  0  0  0
    1.4561   -1.1270   -0.0152 F   0  0  0  0  0  0  0  0  0  0  0  0
    0.8145    0.0002   -0.4538 N   0  0  0  0  0  0  0  0  0  0  0  0
   -0.5777   -0.0002    0.0075 C   0  0  0  0  0  0  0  0  0  0  0  0
   -1.2791    1.2406   -0.5552 C   0  0  0  0  0  0  0  0  0  0  0  0
   -1.2624   -1.2704   -0.5082 C   0  0  0  0  0  0  0  0  0  0  0  0
   -0.6058    0.0284    1.5402 C   0  0  0  0  0  0  0  0  0  0  0  0
   -1.2471    1.2558   -1.6510 H   0  0  0  0  0  0  0  0  0  0  0  0
   -2.3335    1.2632   -0.2564 H   0  0  0  0  0  0  0  0  0  0  0  0
   -0.8172    2.1672   -0.1951 H   0  0  0  0  0  0  0  0  0  0  0  0
   -0.7919   -2.1770   -0.1103 H   0  0  0  0  0  0  0  0  0  0  0  0
   -1.2263   -1.3281   -1.6025 H   0  0  0  0  0  0  0  0  0  0  0  0
   -2.3176   -1.2933   -0.2122 H   0  0  0  0  0  0  0  0  0  0  0  0
   -0.1183    0.9261    1.9378 H   0  0  0  0  0  0  0  0  0  0  0  0
   -1.6374    0.0249    1.9111 H   0  0  0  0  0  0  0  0  0  0  0  0
   -0.1004   -0.8440    1.9703 H   0  0  0  0  0  0  0  0  0  0  0  0
  1  3  1  0  0  0  0
  2  3  1  0  0  0  0
  3  4  1  0  0  0  0
  4  5  1  0  0  0  0
  4  6  1  0  0  0  0
  4  7  1  0  0  0  0
  5  8  1  0  0  0  0
  5  9  1  0  0  0  0
  5 10  1  0  0  0  0
  6 11  1  0  0  0  0
  6 12  1  0  0  0  0
  6 13  1  0  0  0  0
  7 14  1  0  0  0  0
  7 15  1  0  0  0  0
  7 16  1  0  0  0  0
M  END
> <PUBCHEM_COMPOUND_CID>
136462

> <PUBCHEM_CONFORMER_RMSD>
0.4

> <PUBCHEM_CONFORMER_DIVERSEORDER>
1

> <PUBCHEM_MMFF94_PARTIAL_CHARGES>
4
1 -0.06
2 -0.06
3 -0.14
4 0.27

> <PUBCHEM_EFFECTIVE_ROTOR_COUNT>
1

> <PUBCHEM_PHARMACOPHORE_FEATURES>
1
4 4 5 6 7 hydrophobe

> <PUBCHEM_HEAVY_ATOM_COUNT>
7

> <PUBCHEM_ATOM_DEF_STEREO_COUNT>
0

> <PUBCHEM_ATOM_UDEF_STEREO_COUNT>
0

> <PUBCHEM_BOND_DEF_STEREO_COUNT>
0

> <PUBCHEM_BOND_UDEF_STEREO_COUNT>
0

> <PUBCHEM_ISOTOPIC_ATOM_COUNT>
0

> <PUBCHEM_COMPONENT_COUNT>
1

> <PUBCHEM_CACTVS_TAUTO_COUNT>
1

> <PUBCHEM_CONFORMER_ID>
0002150E00000001

> <PUBCHEM_MMFF94_ENERGY>
-0.1909

> <PUBCHEM_FEATURE_SELFOVERLAP>
5.074

> <PUBCHEM_SHAPE_FINGERPRINT>
137420 1 8822651691433456057
20096714 4 18116708504675896325
21040471 1 18193831548714312597
29004967 10 17972886044544021427
5943 1 17478091527036082521

> <PUBCHEM_SHAPE_MULTIPOLES>
124.53
1.72
1.36
1.08
0.45
0.02
-0.56
0
0.28
-0.18
0.28
-0.26
-0.02
0.01

> <PUBCHEM_SHAPE_SELFOVERLAP>
224.947

> <PUBCHEM_SHAPE_VOLUME>
83

> <PUBCHEM_COORDINATE_TYPE>
2
5
10

$$$$
