3091438
  -OEChem-11012400353D

 12 12  0     0  0  0  0  0  0999 V2000
   -3.0687    0.6335    0.0281 O   0  5  0  0  0  0  0  0  0  0  0  0
   -1.9081   -1.2364   -0.0199 O   0  0  0  0  0  0  0  0  0  0  0  0
   -0.8080    0.6927   -0.0277 N   0  0  0  0  0  0  0  0  0  0  0  0
    1.4964    1.0915   -0.0077 N   0  0  0  0  0  0  0  0  0  0  0  0
    0.9110   -1.0138    0.0039 N   0  0  0  0  0  0  0  0  0  0  0  0
    2.6723    0.4458    0.0090 N   0  0  0  0  0  0  0  0  0  0  0  0
   -2.0129   -0.0057    0.0097 N   0  3  0  0  0  0  0  0  0  0  0  0
    0.4547    0.2170   -0.0108 C   0  0  0  0  0  0  0  0  0  0  0  0
    2.2633   -0.8247    0.0152 C   0  0  0  0  0  0  0  0  0  0  0  0
   -0.8809    1.7103   -0.0431 H   0  0  0  0  0  0  0  0  0  0  0  0
    1.4860    2.1045   -0.0161 H   0  0  0  0  0  0  0  0  0  0  0  0
    2.9729   -1.6384    0.0286 H   0  0  0  0  0  0  0  0  0  0  0  0
  1  7  1  0  0  0  0
  2  7  2  0  0  0  0
  3  7  1  0  0  0  0
  3  8  1  0  0  0  0
  3 10  1  0  0  0  0
  4  6  1  0  0  0  0
  4  8  1  0  0  0  0
  4 11  1  0  0  0  0
  5  8  2  0  0  0  0
  5  9  1  0  0  0  0
  6  9  2  0  0  0  0
  9 12  1  0  0  0  0
M  CHG  2   1  -1   7   1
M  END
> <PUBCHEM_COMPOUND_CID>
3091438

> <PUBCHEM_CONFORMER_RMSD>
0.4

> <PUBCHEM_CONFORMER_DIVERSEORDER>
1
7
8
5
2
6
4
3

> <PUBCHEM_MMFF94_PARTIAL_CHARGES>
12
1 -0.52
10 0.4
11 0.27
12 0.15
2 -0.52
3 -0.49
4 0.3
5 -0.57
6 -0.71
7 1.04
8 0.27
9 0.37

> <PUBCHEM_EFFECTIVE_ROTOR_COUNT>
2

> <PUBCHEM_PHARMACOPHORE_FEATURES>
6
1 1 acceptor
1 2 acceptor
1 3 donor
1 4 donor
4 3 4 5 8 cation
5 4 5 6 8 9 rings

> <PUBCHEM_HEAVY_ATOM_COUNT>
9

> <PUBCHEM_ATOM_DEF_STEREO_COUNT>
0

> <PUBCHEM_ATOM_UDEF_STEREO_COUNT>
0

> <PUBCHEM_BOND_DEF_STEREO_COUNT>
0

> <PUBCHEM_BOND_UDEF_STEREO_COUNT>
0

> <PUBCHEM_ISOTOPIC_ATOM_COUNT>
0

> <PUBCHEM_COMPONENT_COUNT>
1

> <PUBCHEM_CACTVS_TAUTO_COUNT>
5

> <PUBCHEM_CONFORMER_ID>
002F2BEE00000001

> <PUBCHEM_MMFF94_ENERGY>
8.573

> <PUBCHEM_FEATURE_SELFOVERLAP>
30.568

> <PUBCHEM_SHAPE_FINGERPRINT>
12897270 3 18410856572572248780
12932764 1 17385998464265007551
14325111 11 18410855494714785952
14390081 3 18272366494653345753
21040471 1 18266458891976345414
23552423 10 18260550047421229278
29004967 10 18408044009106987264
5460574 1 9295288343659142497

> <PUBCHEM_SHAPE_MULTIPOLES>
148.57
4.12
1.13
0.54
1.58
0.15
0
-0.15
0.04
-0.09
0
-0.05
0.01
-0.01

> <PUBCHEM_SHAPE_SELFOVERLAP>
305.411

> <PUBCHEM_SHAPE_VOLUME>
86.6

> <PUBCHEM_COORDINATE_TYPE>
2
5
10

$$$$
