74458
  -OEChem-11012401253D

 20 20  0     0  0  0  0  0  0999 V2000
   -0.9481   -0.4225   -0.7007 O   0  0  0  0  0  0  0  0  0  0  0  0
    0.3458   -0.2117   -0.3345 C   0  0  0  0  0  0  0  0  0  0  0  0
    0.8312    1.0897   -0.2068 C   0  0  0  0  0  0  0  0  0  0  0  0
    1.1864   -1.2970   -0.0878 C   0  0  0  0  0  0  0  0  0  0  0  0
   -1.9007    0.5687   -0.3190 C   0  0  0  0  0  0  0  0  0  0  0  0
    2.1575    1.3058    0.1676 C   0  0  0  0  0  0  0  0  0  0  0  0
    2.5126   -1.0810    0.2867 C   0  0  0  0  0  0  0  0  0  0  0  0
    2.9982    0.2205    0.4143 C   0  0  0  0  0  0  0  0  0  0  0  0
   -3.2375   -0.0801   -0.1773 C   0  0  0  0  0  0  0  0  0  0  0  0
   -3.9454   -0.0924    0.9574 C   0  0  0  0  0  0  0  0  0  0  0  0
    0.2190    1.9616   -0.4167 H   0  0  0  0  0  0  0  0  0  0  0  0
    0.8139   -2.3130   -0.1858 H   0  0  0  0  0  0  0  0  0  0  0  0
   -1.6285    1.0479    0.6306 H   0  0  0  0  0  0  0  0  0  0  0  0
   -1.9571    1.3322   -1.1032 H   0  0  0  0  0  0  0  0  0  0  0  0
    2.5379    2.3189    0.2609 H   0  0  0  0  0  0  0  0  0  0  0  0
    3.1673   -1.9260    0.4785 H   0  0  0  0  0  0  0  0  0  0  0  0
    4.0312    0.3886    0.7043 H   0  0  0  0  0  0  0  0  0  0  0  0
   -3.6534   -0.5654   -1.0564 H   0  0  0  0  0  0  0  0  0  0  0  0
   -4.9134   -0.5802    0.9950 H   0  0  0  0  0  0  0  0  0  0  0  0
   -3.5778    0.3779    1.8626 H   0  0  0  0  0  0  0  0  0  0  0  0
  1  2  1  0  0  0  0
  1  5  1  0  0  0  0
  2  3  2  0  0  0  0
  2  4  1  0  0  0  0
  3  6  1  0  0  0  0
  3 11  1  0  0  0  0
  4  7  2  0  0  0  0
  4 12  1  0  0  0  0
  5  9  1  0  0  0  0
  5 13  1  0  0  0  0
  5 14  1  0  0  0  0
  6  8  2  0  0  0  0
  6 15  1  0  0  0  0
  7  8  1  0  0  0  0
  7 16  1  0  0  0  0
  8 17  1  0  0  0  0
  9 10  2  0  0  0  0
  9 18  1  0  0  0  0
 10 19  1  0  0  0  0
 10 20  1  0  0  0  0
M  END
> <PUBCHEM_COMPOUND_CID>
74458

> <PUBCHEM_CONFORMER_RMSD>
0.6

> <PUBCHEM_CONFORMER_DIVERSEORDER>
1
4
6
2
5
3

> <PUBCHEM_MMFF94_PARTIAL_CHARGES>
18
1 -0.36
10 -0.3
11 0.15
12 0.15
15 0.15
16 0.15
17 0.15
18 0.15
19 0.15
2 0.08
20 0.15
3 -0.15
4 -0.15
5 0.42
6 -0.15
7 -0.15
8 -0.15
9 -0.29

> <PUBCHEM_EFFECTIVE_ROTOR_COUNT>
3

> <PUBCHEM_PHARMACOPHORE_FEATURES>
3
1 1 acceptor
1 10 hydrophobe
6 2 3 4 6 7 8 rings

> <PUBCHEM_HEAVY_ATOM_COUNT>
10

> <PUBCHEM_ATOM_DEF_STEREO_COUNT>
0

> <PUBCHEM_ATOM_UDEF_STEREO_COUNT>
0

> <PUBCHEM_BOND_DEF_STEREO_COUNT>
0

> <PUBCHEM_BOND_UDEF_STEREO_COUNT>
0

> <PUBCHEM_ISOTOPIC_ATOM_COUNT>
0

> <PUBCHEM_COMPONENT_COUNT>
1

> <PUBCHEM_CACTVS_TAUTO_COUNT>
1

> <PUBCHEM_CONFORMER_ID>
000122DA00000001

> <PUBCHEM_MMFF94_ENERGY>
27.6758

> <PUBCHEM_FEATURE_SELFOVERLAP>
15.223

> <PUBCHEM_SHAPE_FINGERPRINT>
10219947 1 18411133632275028404
10857977 72 17458341948848885469
11471102 22 18334863809270218609
12032990 46 18337111142698068214
12932764 1 18412821391429935725
14325111 11 18411416228523111405
15501101 241 18333730217092980988
15775835 57 17988643042417808873
17844478 74 18113615664387414005
20201158 50 18187083940581341227
20279233 1 17821443560957380699
20281407 28 17313106319764403803
20645477 70 18337378336919218975
20871998 22 17983578507620167414
21040471 1 18194953270203389124
2748010 2 17980184306560818286
29004967 10 18187921746998342848
3248919 1 17275101726273052807

> <PUBCHEM_SHAPE_MULTIPOLES>
199.93
6.01
1.26
0.8
5.35
0.02
-0.07
-0.15
-1.67
-0.91
0
0.33
-0.02
0.07

> <PUBCHEM_SHAPE_SELFOVERLAP>
404.534

> <PUBCHEM_SHAPE_VOLUME>
116.7

> <PUBCHEM_COORDINATE_TYPE>
2
5
10

$$$$
