79065
  -OEChem-11012401093D

 25 24  0     1  0  0  0  0  0999 V2000
    1.6863    0.0622    0.3804 O   0  0  0  0  0  0  0  0  0  0  0  0
   -2.2612   -0.8915   -0.9354 O   0  0  0  0  0  0  0  0  0  0  0  0
    0.4794   -1.3679   -0.9607 O   0  0  0  0  0  0  0  0  0  0  0  0
   -0.6678    0.1568    0.5607 C   0  0  1  0  0  0  0  0  0  0  0  0
   -0.7155    1.6773    0.3424 C   0  0  0  0  0  0  0  0  0  0  0  0
   -2.0112   -0.4721    0.1946 C   0  0  0  0  0  0  0  0  0  0  0  0
    0.5359   -0.4813   -0.1189 C   0  0  0  0  0  0  0  0  0  0  0  0
   -0.9708    2.0906   -1.1026 C   0  0  0  0  0  0  0  0  0  0  0  0
   -3.0544   -0.5299    1.2828 C   0  0  0  0  0  0  0  0  0  0  0  0
    2.9038   -0.4739   -0.1472 C   0  0  0  0  0  0  0  0  0  0  0  0
    4.0754    0.2296    0.5039 C   0  0  0  0  0  0  0  0  0  0  0  0
   -0.5245   -0.0425    1.6321 H   0  0  0  0  0  0  0  0  0  0  0  0
   -1.5059    2.1106    0.9673 H   0  0  0  0  0  0  0  0  0  0  0  0
    0.2247    2.1339    0.6739 H   0  0  0  0  0  0  0  0  0  0  0  0
   -1.9568    1.7653   -1.4471 H   0  0  0  0  0  0  0  0  0  0  0  0
   -0.2133    1.6781   -1.7759 H   0  0  0  0  0  0  0  0  0  0  0  0
   -0.9364    3.1816   -1.1888 H   0  0  0  0  0  0  0  0  0  0  0  0
   -3.9592   -1.0100    0.8998 H   0  0  0  0  0  0  0  0  0  0  0  0
   -2.6757   -1.1172    2.1229 H   0  0  0  0  0  0  0  0  0  0  0  0
   -3.3040    0.4819    1.6105 H   0  0  0  0  0  0  0  0  0  0  0  0
    2.9523   -1.5477    0.0651 H   0  0  0  0  0  0  0  0  0  0  0  0
    2.9328   -0.3154   -1.2310 H   0  0  0  0  0  0  0  0  0  0  0  0
    5.0247   -0.1563    0.1222 H   0  0  0  0  0  0  0  0  0  0  0  0
    4.0304    1.3074    0.3159 H   0  0  0  0  0  0  0  0  0  0  0  0
    4.0501    0.0953    1.5903 H   0  0  0  0  0  0  0  0  0  0  0  0
  1  7  1  0  0  0  0
  1 10  1  0  0  0  0
  2  6  2  0  0  0  0
  3  7  2  0  0  0  0
  4  5  1  0  0  0  0
  4  6  1  0  0  0  0
  4  7  1  0  0  0  0
  4 12  1  0  0  0  0
  5  8  1  0  0  0  0
  5 13  1  0  0  0  0
  5 14  1  0  0  0  0
  6  9  1  0  0  0  0
  8 15  1  0  0  0  0
  8 16  1  0  0  0  0
  8 17  1  0  0  0  0
  9 18  1  0  0  0  0
  9 19  1  0  0  0  0
  9 20  1  0  0  0  0
 10 11  1  0  0  0  0
 10 21  1  0  0  0  0
 10 22  1  0  0  0  0
 11 23  1  0  0  0  0
 11 24  1  0  0  0  0
 11 25  1  0  0  0  0
M  END
> <PUBCHEM_COMPOUND_CID>
79065

> <PUBCHEM_CONFORMER_RMSD>
0.6

> <PUBCHEM_CONFORMER_DIVERSEORDER>
1
98
262
288
178
222
264
168
117
148
180
242
46
103
292
15
64
133
269
213
68
150
144
224
226
241
293
104
274
164
254
159
90
82
160
14
170
278
55
43
218
196
114
260
188
267
297
276
85
131
255
38
195
232
139
134
33
53
51
244
277
57
265
155
92
246
287
128
198
225
12
36
295
284
142
194
165
91
174
154
69
75
77
21
145
27
41
275
149
219
279
175
152
172
247
115
127
19
5
173
161
101
204
282
216
96
71
28
61
296
248
211
281
16
177
263
220
6
107
223
42
243
185
203
189
105
258
209
234
233
285
182
136
122
3
120
20
76
162
157
167
119
179
58
78
228
11
289
72
286
291
236
63
163
70
140
47
205
202
135
102
235
171
268
270
110
94
97
112
130
56
141
191
193
146
214
4
280
99
221
199
54
81
109
245
95
212
23
197
257
239
93
13
66
151
190
143
230
147
89
106
79
137
208
35
261
166
116
138
88
206
249
26
271
123
200
153
87
273
83
158
253
18
40
240
252
259
108
60
86
181
9
111
272
10
118
2
62
22
129
290
121
283
237
80
7
44
229
187
67
34
124
251
250
100
217
132
266
48
45
298
176
231
52
74
32
256
192
156
201
183
238
125
24
84
227
30
59
207
17
50
186
29
126
25
73
8
113
31
39
294
65
37
184
49
210
215
169

> <PUBCHEM_MMFF94_PARTIAL_CHARGES>
8
1 -0.43
10 0.28
2 -0.57
3 -0.57
4 0.12
6 0.45
7 0.66
9 0.06

> <PUBCHEM_EFFECTIVE_ROTOR_COUNT>
5

> <PUBCHEM_PHARMACOPHORE_FEATURES>
4
1 2 acceptor
1 3 acceptor
1 4 anion
1 8 hydrophobe

> <PUBCHEM_HEAVY_ATOM_COUNT>
11

> <PUBCHEM_ATOM_DEF_STEREO_COUNT>
0

> <PUBCHEM_ATOM_UDEF_STEREO_COUNT>
1

> <PUBCHEM_BOND_DEF_STEREO_COUNT>
0

> <PUBCHEM_BOND_UDEF_STEREO_COUNT>
0

> <PUBCHEM_ISOTOPIC_ATOM_COUNT>
0

> <PUBCHEM_COMPONENT_COUNT>
1

> <PUBCHEM_CACTVS_TAUTO_COUNT>
5

> <PUBCHEM_CONFORMER_ID>
000134D900000001

> <PUBCHEM_MMFF94_ENERGY>
8.924

> <PUBCHEM_FEATURE_SELFOVERLAP>
20.301

> <PUBCHEM_SHAPE_FINGERPRINT>
10219947 1 18341339975823686011
11132069 177 18202281424644245106
12138202 97 18119232979099395501
12932764 1 18272366443567321346
13024252 1 17240481381931774937
14325111 11 17561367283693885970
14614273 12 18263360291714953413
16945 1 18131082536265713507
18380122 1 18341623568140165238
21061003 4 18187375371355391721
23402539 116 18334005103980255975
2748010 2 18126289636257716510
29004967 10 18336278906853279115
3248919 1 17167869621554864426
5084963 1 18412265017292932024

> <PUBCHEM_SHAPE_MULTIPOLES>
208.77
5.17
1.59
1.07
4.8
1.13
-0.06
-1.14
1.39
-0.83
-0.41
-0.48
-0.07
0.36

> <PUBCHEM_SHAPE_SELFOVERLAP>
391.451

> <PUBCHEM_SHAPE_VOLUME>
130.3

> <PUBCHEM_COORDINATE_TYPE>
2
5
10

$$$$
