140178
  -OEChem-11012400523D

 19 19  0     0  0  0  0  0  0999 V2000
    0.0041    0.0241    1.5292 S   0  0  0  0  0  0  0  0  0  0  0  0
   -0.7355    0.0252   -0.0189 C   0  0  0  0  0  0  0  0  0  0  0  0
    0.7479   -0.0037   -0.0272 C   0  0  0  0  0  0  0  0  0  0  0  0
   -1.4945   -1.2394   -0.3514 C   0  0  0  0  0  0  0  0  0  0  0  0
   -1.4784    1.2506   -0.3883 C   0  0  0  0  0  0  0  0  0  0  0  0
    1.4376   -1.2785   -0.3687 C   0  0  0  0  0  0  0  0  0  0  0  0
    1.5188    1.2218   -0.3747 C   0  0  0  0  0  0  0  0  0  0  0  0
   -1.4734   -1.4098   -1.4338 H   0  0  0  0  0  0  0  0  0  0  0  0
   -1.1139   -2.1424    0.1374 H   0  0  0  0  0  0  0  0  0  0  0  0
   -2.5458   -1.1483   -0.0529 H   0  0  0  0  0  0  0  0  0  0  0  0
   -1.0551    2.1781    0.0122 H   0  0  0  0  0  0  0  0  0  0  0  0
   -1.5145    1.3546   -1.4788 H   0  0  0  0  0  0  0  0  0  0  0  0
   -2.5143    1.2080   -0.0305 H   0  0  0  0  0  0  0  0  0  0  0  0
    2.4993   -1.2303   -0.0972 H   0  0  0  0  0  0  0  0  0  0  0  0
    1.0397   -2.1694    0.1289 H   0  0  0  0  0  0  0  0  0  0  0  0
    1.3886   -1.4531   -1.4496 H   0  0  0  0  0  0  0  0  0  0  0  0
    2.5570    1.1408   -0.0306 H   0  0  0  0  0  0  0  0  0  0  0  0
    1.5447    1.3506   -1.4627 H   0  0  0  0  0  0  0  0  0  0  0  0
    1.1233    2.1484    0.0552 H   0  0  0  0  0  0  0  0  0  0  0  0
  1  2  1  0  0  0  0
  1  3  1  0  0  0  0
  2  3  1  0  0  0  0
  2  4  1  0  0  0  0
  2  5  1  0  0  0  0
  3  6  1  0  0  0  0
  3  7  1  0  0  0  0
  4  8  1  0  0  0  0
  4  9  1  0  0  0  0
  4 10  1  0  0  0  0
  5 11  1  0  0  0  0
  5 12  1  0  0  0  0
  5 13  1  0  0  0  0
  6 14  1  0  0  0  0
  6 15  1  0  0  0  0
  6 16  1  0  0  0  0
  7 17  1  0  0  0  0
  7 18  1  0  0  0  0
  7 19  1  0  0  0  0
M  END
> <PUBCHEM_COMPOUND_CID>
140178

> <PUBCHEM_CONFORMER_RMSD>
0.4

> <PUBCHEM_CONFORMER_DIVERSEORDER>
1

> <PUBCHEM_MMFF94_PARTIAL_CHARGES>
7
1 -0.28
2 -0.05
3 -0.05
4 0.09
5 0.09
6 0.09
7 0.09

> <PUBCHEM_EFFECTIVE_ROTOR_COUNT>
0.6

> <PUBCHEM_PHARMACOPHORE_FEATURES>
2
3 2 4 5 hydrophobe
3 3 6 7 hydrophobe

> <PUBCHEM_HEAVY_ATOM_COUNT>
7

> <PUBCHEM_ATOM_DEF_STEREO_COUNT>
0

> <PUBCHEM_ATOM_UDEF_STEREO_COUNT>
0

> <PUBCHEM_BOND_DEF_STEREO_COUNT>
0

> <PUBCHEM_BOND_UDEF_STEREO_COUNT>
0

> <PUBCHEM_ISOTOPIC_ATOM_COUNT>
0

> <PUBCHEM_COMPONENT_COUNT>
1

> <PUBCHEM_CACTVS_TAUTO_COUNT>
1

> <PUBCHEM_CONFORMER_ID>
0002239200000001

> <PUBCHEM_MMFF94_ENERGY>
21.4983

> <PUBCHEM_FEATURE_SELFOVERLAP>
10.171

> <PUBCHEM_SHAPE_FINGERPRINT>
137420 1 7843255605627191721
20096714 4 18114742612197730837
21040471 1 18267573611861958893
24536 1 18266434603688373357
29004967 10 17974862962076661179
5084963 1 18056492865912873252
5943 1 13568749093651809232

> <PUBCHEM_SHAPE_MULTIPOLES>
147.91
2.01
1.5
1.09
0.01
0.03
0.56
-0.02
-0.49
0
-0.34
0
-0.02
0.01

> <PUBCHEM_SHAPE_SELFOVERLAP>
278.064

> <PUBCHEM_SHAPE_VOLUME>
95.8

> <PUBCHEM_COORDINATE_TYPE>
2
5
10

$$$$
