138397
  -OEChem-11012400593D

 13 13  0     0  0  0  0  0  0999 V2000
    1.7158   -0.0032    0.0004 O   0  0  0  0  0  0  0  0  0  0  0  0
    0.9249   -1.1537    0.0000 N   0  0  0  0  0  0  0  0  0  0  0  0
    0.9293    1.1504   -0.0003 N   0  0  0  0  0  0  0  0  0  0  0  0
   -0.3257   -0.6957   -0.0003 C   0  0  0  0  0  0  0  0  0  0  0  0
   -0.3230    0.6974   -0.0003 C   0  0  0  0  0  0  0  0  0  0  0  0
   -1.4634   -1.6257    0.0001 C   0  0  0  0  0  0  0  0  0  0  0  0
   -1.4579    1.6304    0.0003 C   0  0  0  0  0  0  0  0  0  0  0  0
   -1.1371   -2.6705    0.0357 H   0  0  0  0  0  0  0  0  0  0  0  0
   -2.1060   -1.4472    0.8683 H   0  0  0  0  0  0  0  0  0  0  0  0
   -2.0668   -1.4942   -0.9039 H   0  0  0  0  0  0  0  0  0  0  0  0
   -2.1021    1.4535   -0.8671 H   0  0  0  0  0  0  0  0  0  0  0  0
   -2.0606    1.5013    0.9051 H   0  0  0  0  0  0  0  0  0  0  0  0
   -1.1286    2.6742   -0.0362 H   0  0  0  0  0  0  0  0  0  0  0  0
  1  2  1  0  0  0  0
  1  3  1  0  0  0  0
  2  4  2  0  0  0  0
  3  5  2  0  0  0  0
  4  5  1  0  0  0  0
  4  6  1  0  0  0  0
  5  7  1  0  0  0  0
  6  8  1  0  0  0  0
  6  9  1  0  0  0  0
  6 10  1  0  0  0  0
  7 11  1  0  0  0  0
  7 12  1  0  0  0  0
  7 13  1  0  0  0  0
M  END
> <PUBCHEM_COMPOUND_CID>
138397

> <PUBCHEM_CONFORMER_RMSD>
0.4

> <PUBCHEM_CONFORMER_DIVERSEORDER>
1

> <PUBCHEM_MMFF94_PARTIAL_CHARGES>
7
1 0.24
2 -0.41
3 -0.41
4 0.11
5 0.11
6 0.18
7 0.18

> <PUBCHEM_EFFECTIVE_ROTOR_COUNT>
0

> <PUBCHEM_PHARMACOPHORE_FEATURES>
3
1 2 acceptor
1 3 acceptor
5 1 2 3 4 5 rings

> <PUBCHEM_HEAVY_ATOM_COUNT>
7

> <PUBCHEM_ATOM_DEF_STEREO_COUNT>
0

> <PUBCHEM_ATOM_UDEF_STEREO_COUNT>
0

> <PUBCHEM_BOND_DEF_STEREO_COUNT>
0

> <PUBCHEM_BOND_UDEF_STEREO_COUNT>
0

> <PUBCHEM_ISOTOPIC_ATOM_COUNT>
0

> <PUBCHEM_COMPONENT_COUNT>
1

> <PUBCHEM_CACTVS_TAUTO_COUNT>
1

> <PUBCHEM_CONFORMER_ID>
00021C9D00000001

> <PUBCHEM_MMFF94_ENERGY>
3.7758

> <PUBCHEM_FEATURE_SELFOVERLAP>
15.273

> <PUBCHEM_SHAPE_FINGERPRINT>
20096714 4 18122906421540762888
21040471 1 18194401095737500356
29004967 10 17758960711246853795
5943 1 16121605430087009775

> <PUBCHEM_SHAPE_MULTIPOLES>
128.23
1.91
1.82
0.58
0
0.17
0
-0.85
0
0
0
0
-0.05
0

> <PUBCHEM_SHAPE_SELFOVERLAP>
254.739

> <PUBCHEM_SHAPE_VOLUME>
78.5

> <PUBCHEM_COORDINATE_TYPE>
2
5
10

$$$$
