74221
  -OEChem-11012401123D

 29 28  0     0  0  0  0  0  0999 V2000
    0.1239    2.3898    0.1327 O   0  0  0  0  0  0  0  0  0  0  0  0
   -0.1275   -2.4416   -0.1591 O   0  0  0  0  0  0  0  0  0  0  0  0
    0.1571    1.1139    1.9984 O   0  0  0  0  0  0  0  0  0  0  0  0
    0.0723   -1.4067    1.8341 O   0  0  0  0  0  0  0  0  0  0  0  0
   -0.0398   -0.0042   -0.1794 C   0  0  0  0  0  0  0  0  0  0  0  0
    1.2456    0.0321   -1.0628 C   0  0  0  0  0  0  0  0  0  0  0  0
   -1.3340    0.0500   -1.0406 C   0  0  0  0  0  0  0  0  0  0  0  0
    2.5790   -0.0115   -0.3048 C   0  0  0  0  0  0  0  0  0  0  0  0
   -2.6340    0.0950   -0.2226 C   0  0  0  0  0  0  0  0  0  0  0  0
    0.0674    1.1997    0.7796 C   0  0  0  0  0  0  0  0  0  0  0  0
   -0.0178   -1.3304    0.6140 C   0  0  0  0  0  0  0  0  0  0  0  0
    3.7589    0.0959   -1.2614 C   0  0  0  0  0  0  0  0  0  0  0  0
   -3.8511    0.2180   -1.1282 C   0  0  0  0  0  0  0  0  0  0  0  0
    1.2207   -0.8120   -1.7654 H   0  0  0  0  0  0  0  0  0  0  0  0
    1.2276    0.9359   -1.6868 H   0  0  0  0  0  0  0  0  0  0  0  0
   -1.3688   -0.8105   -1.7209 H   0  0  0  0  0  0  0  0  0  0  0  0
   -1.2966    0.9427   -1.6788 H   0  0  0  0  0  0  0  0  0  0  0  0
    2.6438    0.8109    0.4152 H   0  0  0  0  0  0  0  0  0  0  0  0
    2.6645   -0.9465    0.2595 H   0  0  0  0  0  0  0  0  0  0  0  0
   -2.6219    0.9474    0.4654 H   0  0  0  0  0  0  0  0  0  0  0  0
   -2.7309   -0.8124    0.3836 H   0  0  0  0  0  0  0  0  0  0  0  0
    3.7298    1.0391   -1.8163 H   0  0  0  0  0  0  0  0  0  0  0  0
    4.7012    0.0577   -0.7059 H   0  0  0  0  0  0  0  0  0  0  0  0
    3.7557   -0.7282   -1.9820 H   0  0  0  0  0  0  0  0  0  0  0  0
   -3.8064    1.1357   -1.7232 H   0  0  0  0  0  0  0  0  0  0  0  0
   -4.7671    0.2454   -0.5299 H   0  0  0  0  0  0  0  0  0  0  0  0
   -3.9176   -0.6336   -1.8128 H   0  0  0  0  0  0  0  0  0  0  0  0
    0.2237    3.1408    0.7557 H   0  0  0  0  0  0  0  0  0  0  0  0
   -0.1185   -3.2626    0.3776 H   0  0  0  0  0  0  0  0  0  0  0  0
  1 10  1  0  0  0  0
  1 28  1  0  0  0  0
  2 11  1  0  0  0  0
  2 29  1  0  0  0  0
  3 10  2  0  0  0  0
  4 11  2  0  0  0  0
  5  6  1  0  0  0  0
  5  7  1  0  0  0  0
  5 10  1  0  0  0  0
  5 11  1  0  0  0  0
  6  8  1  0  0  0  0
  6 14  1  0  0  0  0
  6 15  1  0  0  0  0
  7  9  1  0  0  0  0
  7 16  1  0  0  0  0
  7 17  1  0  0  0  0
  8 12  1  0  0  0  0
  8 18  1  0  0  0  0
  8 19  1  0  0  0  0
  9 13  1  0  0  0  0
  9 20  1  0  0  0  0
  9 21  1  0  0  0  0
 12 22  1  0  0  0  0
 12 23  1  0  0  0  0
 12 24  1  0  0  0  0
 13 25  1  0  0  0  0
 13 26  1  0  0  0  0
 13 27  1  0  0  0  0
M  END
> <PUBCHEM_COMPOUND_CID>
74221

> <PUBCHEM_CONFORMER_RMSD>
0.6

> <PUBCHEM_CONFORMER_DIVERSEORDER>
1
10
12
17
8
23
20
13
14
9
3
15
4
19
21
18
22
16
11
24
7
6
2
5

> <PUBCHEM_MMFF94_PARTIAL_CHARGES>
9
1 -0.65
10 0.66
11 0.66
2 -0.65
28 0.5
29 0.5
3 -0.57
4 -0.57
5 0.12

> <PUBCHEM_EFFECTIVE_ROTOR_COUNT>
6

> <PUBCHEM_PHARMACOPHORE_FEATURES>
9
1 1 acceptor
1 12 hydrophobe
1 13 hydrophobe
1 2 acceptor
1 3 acceptor
1 4 acceptor
3 1 3 10 anion
3 2 4 11 anion
5 5 6 7 8 9 hydrophobe

> <PUBCHEM_HEAVY_ATOM_COUNT>
13

> <PUBCHEM_ATOM_DEF_STEREO_COUNT>
0

> <PUBCHEM_ATOM_UDEF_STEREO_COUNT>
0

> <PUBCHEM_BOND_DEF_STEREO_COUNT>
0

> <PUBCHEM_BOND_UDEF_STEREO_COUNT>
0

> <PUBCHEM_ISOTOPIC_ATOM_COUNT>
0

> <PUBCHEM_COMPONENT_COUNT>
1

> <PUBCHEM_CACTVS_TAUTO_COUNT>
1

> <PUBCHEM_CONFORMER_ID>
000121ED00000001

> <PUBCHEM_MMFF94_ENERGY>
18.0814

> <PUBCHEM_FEATURE_SELFOVERLAP>
45.813

> <PUBCHEM_SHAPE_FINGERPRINT>
10702982 57 15647335302724372883
10922049 32 16008754593106492876
12423570 1 8133308766173684202
12932764 1 18267841975036589101
13024252 1 14346652651370225292
14120999 15 18342462529798374897
14128692 85 16271923865272304173
16945 1 18412265034056108804
18186145 218 18409452491955212980
187816 3 18412268328633589748
20473742 2 14620206672962510962
20653085 51 17023481840162285588
20820808 20 18113614551969603277
228727 97 18200318714715669100
23402539 116 18202004283453034340
23419403 2 18052276268473582777
23559900 14 18411702123786106340
3250762 1 17763463215567691540
4369600 1 18271799103766842431
528886 8 17603580837592057255
59915604 170 18272092707831449932
68250623 7 17626121745026619622
81539 233 15792004546013796479

> <PUBCHEM_SHAPE_MULTIPOLES>
244.06
4.46
1.76
1.55
0.38
0.28
0.6
-0.53
-3.17
-0.01
0.6
-0.13
-0.06
0.04

> <PUBCHEM_SHAPE_SELFOVERLAP>
467.925

> <PUBCHEM_SHAPE_VOLUME>
148.7

> <PUBCHEM_COORDINATE_TYPE>
2
5
10

$$$$
