11456
  -OEChem-11012401273D

 15 15  0     0  0  0  0  0  0999 V2000
   -3.1826    1.6105    0.0001 Br  0  0  0  0  0  0  0  0  0  0  0  0
    2.9160   -0.5729    0.0009 O   0  0  0  0  0  0  0  0  0  0  0  0
    2.3420    1.6265   -0.0003 O   0  0  0  0  0  0  0  0  0  0  0  0
    0.6341   -0.0490   -0.0003 C   0  0  0  0  0  0  0  0  0  0  0  0
   -0.4283    0.8551    0.0001 C   0  0  0  0  0  0  0  0  0  0  0  0
    0.3823   -1.4210   -0.0004 C   0  0  0  0  0  0  0  0  0  0  0  0
   -1.7423    0.3870    0.0002 C   0  0  0  0  0  0  0  0  0  0  0  0
   -0.9316   -1.8891   -0.0002 C   0  0  0  0  0  0  0  0  0  0  0  0
   -1.9939   -0.9851    0.0001 C   0  0  0  0  0  0  0  0  0  0  0  0
    2.0042    0.4380   -0.0004 C   0  0  0  0  0  0  0  0  0  0  0  0
   -0.2362    1.9257    0.0001 H   0  0  0  0  0  0  0  0  0  0  0  0
    1.1790   -2.1596   -0.0006 H   0  0  0  0  0  0  0  0  0  0  0  0
   -1.1280   -2.9573   -0.0003 H   0  0  0  0  0  0  0  0  0  0  0  0
   -3.0118   -1.3665    0.0001 H   0  0  0  0  0  0  0  0  0  0  0  0
    3.8366   -0.2339    0.0015 H   0  0  0  0  0  0  0  0  0  0  0  0
  1  7  1  0  0  0  0
  2 10  1  0  0  0  0
  2 15  1  0  0  0  0
  3 10  2  0  0  0  0
  4  5  2  0  0  0  0
  4  6  1  0  0  0  0
  4 10  1  0  0  0  0
  5  7  1  0  0  0  0
  5 11  1  0  0  0  0
  6  8  2  0  0  0  0
  6 12  1  0  0  0  0
  7  9  2  0  0  0  0
  8  9  1  0  0  0  0
  8 13  1  0  0  0  0
  9 14  1  0  0  0  0
M  END
> <PUBCHEM_COMPOUND_CID>
11456

> <PUBCHEM_CONFORMER_RMSD>
0.4

> <PUBCHEM_CONFORMER_DIVERSEORDER>
1
2

> <PUBCHEM_MMFF94_PARTIAL_CHARGES>
15
1 -0.11
10 0.63
11 0.15
12 0.15
13 0.15
14 0.15
15 0.5
2 -0.65
3 -0.57
4 0.09
5 -0.15
6 -0.15
7 0.11
8 -0.15
9 -0.15

> <PUBCHEM_EFFECTIVE_ROTOR_COUNT>
1

> <PUBCHEM_PHARMACOPHORE_FEATURES>
5
1 1 hydrophobe
1 2 acceptor
1 3 acceptor
3 2 3 10 anion
6 4 5 6 7 8 9 rings

> <PUBCHEM_HEAVY_ATOM_COUNT>
10

> <PUBCHEM_ATOM_DEF_STEREO_COUNT>
0

> <PUBCHEM_ATOM_UDEF_STEREO_COUNT>
0

> <PUBCHEM_BOND_DEF_STEREO_COUNT>
0

> <PUBCHEM_BOND_UDEF_STEREO_COUNT>
0

> <PUBCHEM_ISOTOPIC_ATOM_COUNT>
0

> <PUBCHEM_COMPONENT_COUNT>
1

> <PUBCHEM_CACTVS_TAUTO_COUNT>
1

> <PUBCHEM_CONFORMER_ID>
00002CC000000001

> <PUBCHEM_MMFF94_ENERGY>
25.3918

> <PUBCHEM_FEATURE_SELFOVERLAP>
25.429

> <PUBCHEM_SHAPE_FINGERPRINT>
12932764 1 17631454642883190254
13380535 76 18338795607375506943
14325111 11 18410573998068157441
15775835 57 18260835869020881548
16945 1 18338797788823150471
19973954 147 18338237196938740932
20653085 51 18409459084677017697
20871998 184 18055642956140946263
21028194 46 18336551534112976697
21040471 1 18410573976704006311
23235685 24 18339073783616815721
23402655 69 18124579900742171373
23552423 10 18188770677381063718
23559900 14 18271814497931750084
241688 4 16538768362470310859
2748010 2 18411422838235063445
369184 2 18269837669364535930
5084963 1 18273214222318226882
528886 8 18338793412378011585

> <PUBCHEM_SHAPE_MULTIPOLES>
200
4.24
1.94
0.61
0.26
0.34
0
-2.15
0
0.39
0
0.1
-0.01
0

> <PUBCHEM_SHAPE_SELFOVERLAP>
405.264

> <PUBCHEM_SHAPE_VOLUME>
120.4

> <PUBCHEM_COORDINATE_TYPE>
2
5
10

$$$$
