27666
  -OEChem-11012401103D

 11 11  0     0  0  0  0  0  0999 V2000
    1.8433    2.0922   -0.0003 Cl  0  0  0  0  0  0  0  0  0  0  0  0
   -3.2618    0.3734   -0.0004 Cl  0  0  0  0  0  0  0  0  0  0  0  0
    2.7319   -1.0481   -0.0002 Cl  0  0  0  0  0  0  0  0  0  0  0  0
    0.2149   -1.5700   -0.0001 N   0  0  0  0  0  0  0  0  0  0  0  0
   -0.6496    1.0882    0.0003 C   0  0  0  0  0  0  0  0  0  0  0  0
    0.7098    0.7964    0.0001 C   0  0  0  0  0  0  0  0  0  0  0  0
   -1.5773    0.0524    0.0003 C   0  0  0  0  0  0  0  0  0  0  0  0
    1.0868   -0.5369    0.0002 C   0  0  0  0  0  0  0  0  0  0  0  0
   -1.0980   -1.2476    0.0000 C   0  0  0  0  0  0  0  0  0  0  0  0
   -0.9888    2.1217    0.0003 H   0  0  0  0  0  0  0  0  0  0  0  0
   -1.7708   -2.0999   -0.0003 H   0  0  0  0  0  0  0  0  0  0  0  0
  1  6  1  0  0  0  0
  2  7  1  0  0  0  0
  3  8  1  0  0  0  0
  4  8  1  0  0  0  0
  4  9  2  0  0  0  0
  5  6  1  0  0  0  0
  5  7  2  0  0  0  0
  5 10  1  0  0  0  0
  6  8  2  0  0  0  0
  7  9  1  0  0  0  0
  9 11  1  0  0  0  0
M  END
> <PUBCHEM_COMPOUND_CID>
27666

> <PUBCHEM_CONFORMER_RMSD>
0.4

> <PUBCHEM_CONFORMER_DIVERSEORDER>
1

> <PUBCHEM_MMFF94_PARTIAL_CHARGES>
11
1 -0.18
10 0.15
11 0.15
2 -0.18
3 -0.18
4 -0.62
5 -0.15
6 0.18
7 0.18
8 0.49
9 0.16

> <PUBCHEM_EFFECTIVE_ROTOR_COUNT>
0

> <PUBCHEM_PHARMACOPHORE_FEATURES>
2
1 4 acceptor
6 4 5 6 7 8 9 rings

> <PUBCHEM_HEAVY_ATOM_COUNT>
9

> <PUBCHEM_ATOM_DEF_STEREO_COUNT>
0

> <PUBCHEM_ATOM_UDEF_STEREO_COUNT>
0

> <PUBCHEM_BOND_DEF_STEREO_COUNT>
0

> <PUBCHEM_BOND_UDEF_STEREO_COUNT>
0

> <PUBCHEM_ISOTOPIC_ATOM_COUNT>
0

> <PUBCHEM_COMPONENT_COUNT>
1

> <PUBCHEM_CACTVS_TAUTO_COUNT>
1

> <PUBCHEM_CONFORMER_ID>
00006C1200000001

> <PUBCHEM_MMFF94_ENERGY>
16.7294

> <PUBCHEM_FEATURE_SELFOVERLAP>
10.148

> <PUBCHEM_SHAPE_FINGERPRINT>
13380535 21 18192163795675280233
14325111 11 18410855503589680577
16945 1 18338517443480893415
193761 8 18194402431461929318
21040471 1 18194682794052536385
23402655 69 17978491054882108269
23552423 10 18262799708546851518
241688 4 17691694380818604650
2748010 2 18265618856175885375
29004967 10 18264212422032555827
5084963 1 18201997694656697305
68250623 7 18268992166382054879

> <PUBCHEM_SHAPE_MULTIPOLES>
185.84
3.86
1.91
0.62
1.46
0.45
0
0.11
0
-1.13
0
0
0.02
0

> <PUBCHEM_SHAPE_SELFOVERLAP>
358.892

> <PUBCHEM_SHAPE_VOLUME>
114.7

> <PUBCHEM_COORDINATE_TYPE>
2
5
10

$$$$
