8172
  -OEChem-11012401273D

 24 23  0     0  0  0  0  0  0999 V2000
    1.7763    0.3768   -0.0187 O   0  0  0  0  0  0  0  0  0  0  0  0
   -1.7775   -0.3763   -0.0187 O   0  0  0  0  0  0  0  0  0  0  0  0
    5.3545   -0.2577    0.0332 O   0  0  0  0  0  0  0  0  0  0  0  0
   -5.3543    0.2569    0.0333 O   0  0  0  0  0  0  0  0  0  0  0  0
    0.6155   -0.4423   -0.0084 C   0  0  0  0  0  0  0  0  0  0  0  0
   -0.6153    0.4437   -0.0084 C   0  0  0  0  0  0  0  0  0  0  0  0
    2.9653   -0.4039    0.0031 C   0  0  0  0  0  0  0  0  0  0  0  0
   -2.9649    0.4034    0.0030 C   0  0  0  0  0  0  0  0  0  0  0  0
    4.1658    0.5225   -0.0091 C   0  0  0  0  0  0  0  0  0  0  0  0
   -4.1656   -0.5232   -0.0092 C   0  0  0  0  0  0  0  0  0  0  0  0
    0.6061   -1.0948   -0.8899 H   0  0  0  0  0  0  0  0  0  0  0  0
    0.6114   -1.0845    0.8807 H   0  0  0  0  0  0  0  0  0  0  0  0
   -0.6065    1.0960   -0.8900 H   0  0  0  0  0  0  0  0  0  0  0  0
   -0.6118    1.0856    0.8809 H   0  0  0  0  0  0  0  0  0  0  0  0
    2.9854   -1.0322    0.9018 H   0  0  0  0  0  0  0  0  0  0  0  0
    2.9977   -1.0689   -0.8684 H   0  0  0  0  0  0  0  0  0  0  0  0
   -2.9886    1.0320    0.9015 H   0  0  0  0  0  0  0  0  0  0  0  0
   -2.9980    1.0683   -0.8686 H   0  0  0  0  0  0  0  0  0  0  0  0
    4.1520    1.2065    0.8459 H   0  0  0  0  0  0  0  0  0  0  0  0
    4.1770    1.1342   -0.9169 H   0  0  0  0  0  0  0  0  0  0  0  0
   -4.1454   -1.1953    0.8551 H   0  0  0  0  0  0  0  0  0  0  0  0
   -4.1707   -1.1394   -0.9144 H   0  0  0  0  0  0  0  0  0  0  0  0
    5.3423   -0.7655    0.8624 H   0  0  0  0  0  0  0  0  0  0  0  0
   -6.1024   -0.3642    0.0246 H   0  0  0  0  0  0  0  0  0  0  0  0
  1  5  1  0  0  0  0
  1  7  1  0  0  0  0
  2  6  1  0  0  0  0
  2  8  1  0  0  0  0
  3  9  1  0  0  0  0
  3 23  1  0  0  0  0
  4 10  1  0  0  0  0
  4 24  1  0  0  0  0
  5  6  1  0  0  0  0
  5 11  1  0  0  0  0
  5 12  1  0  0  0  0
  6 13  1  0  0  0  0
  6 14  1  0  0  0  0
  7  9  1  0  0  0  0
  7 15  1  0  0  0  0
  7 16  1  0  0  0  0
  8 10  1  0  0  0  0
  8 17  1  0  0  0  0
  8 18  1  0  0  0  0
  9 19  1  0  0  0  0
  9 20  1  0  0  0  0
 10 21  1  0  0  0  0
 10 22  1  0  0  0  0
M  END
> <PUBCHEM_COMPOUND_CID>
8172

> <PUBCHEM_CONFORMER_RMSD>
0.6

> <PUBCHEM_CONFORMER_DIVERSEORDER>
9
95
122
104
112
76
147
72
16
87
27
117
148
100
8
5
75
71
136
7
126
69
1
45
119
108
48
47
134
70
6
64
84
3
133
143
88
22
86
41
83
120
18
111
142
96
89
140
118
34
15
90
36
145
121
97
138
2
102
29
30
51
56
40
149
73
129
130
20
103
125
77
46
113
21
114
137
17
19
78
38
81
94
14
109
74
50
31
124
28
39
54
146
10
139
141
98
42
59
61
66
24
127
32
57
55
105
35
106
91
116
52
13
68
110
4
33
65
53
63
107
67
43
144
25
60
92
132
80
49
11
101
128
26
12
123
85
23
62
58
37
93
135
82
131
115
44
99
79

> <PUBCHEM_MMFF94_PARTIAL_CHARGES>
12
1 -0.56
10 0.28
2 -0.56
23 0.4
24 0.4
3 -0.68
4 -0.68
5 0.28
6 0.28
7 0.28
8 0.28
9 0.28

> <PUBCHEM_EFFECTIVE_ROTOR_COUNT>
7

> <PUBCHEM_PHARMACOPHORE_FEATURES>
6
1 1 acceptor
1 2 acceptor
1 3 acceptor
1 3 donor
1 4 acceptor
1 4 donor

> <PUBCHEM_HEAVY_ATOM_COUNT>
10

> <PUBCHEM_ATOM_DEF_STEREO_COUNT>
0

> <PUBCHEM_ATOM_UDEF_STEREO_COUNT>
0

> <PUBCHEM_BOND_DEF_STEREO_COUNT>
0

> <PUBCHEM_BOND_UDEF_STEREO_COUNT>
0

> <PUBCHEM_ISOTOPIC_ATOM_COUNT>
0

> <PUBCHEM_COMPONENT_COUNT>
1

> <PUBCHEM_CACTVS_TAUTO_COUNT>
1

> <PUBCHEM_CONFORMER_ID>
00001FEC00000009

> <PUBCHEM_MMFF94_ENERGY>
14.6024

> <PUBCHEM_FEATURE_SELFOVERLAP>
30.449

> <PUBCHEM_SHAPE_FINGERPRINT>
11062470 55 18040716969681563525
14123238 8 18410575088958046252
17834072 33 18200874088130625909
17834076 25 18409730659748784203
18342897 14 18131070433000556705
20645477 70 18201160932370832022
20719005 15 18410292514722915364
22485316 2 18410290311426070863
23402539 116 18343014502263280685
366044 4 18410292518786300378
42788 4 18410856564145818405

> <PUBCHEM_SHAPE_MULTIPOLES>
182.32
11.7
0.75
0.58
0
0
0
0
0.12
0
0
0
0
-0.01

> <PUBCHEM_SHAPE_SELFOVERLAP>
323.865

> <PUBCHEM_SHAPE_VOLUME>
119

> <PUBCHEM_COORDINATE_TYPE>
2
5
10

$$$$
