73726
  -OEChem-11012401163D

 31 32  0     0  0  0  0  0  0999 V2000
    0.0325    1.0175   -0.3742 C   0  0  0  0  0  0  0  0  0  0  0  0
   -0.0171    2.3429    0.4513 C   0  0  0  0  0  0  0  0  0  0  0  0
   -1.1718    0.1491   -0.2309 C   0  0  0  0  0  0  0  0  0  0  0  0
    1.3412    0.2462   -0.1362 C   0  0  0  0  0  0  0  0  0  0  0  0
   -1.2006    3.2238    0.0643 C   0  0  0  0  0  0  0  0  0  0  0  0
   -1.5691   -0.6720   -1.2862 C   0  0  0  0  0  0  0  0  0  0  0  0
    2.4112    0.5104   -0.9541 C   0  0  0  0  0  0  0  0  0  0  0  0
   -1.9007    0.1584    0.9583 C   0  0  0  0  0  0  0  0  0  0  0  0
    1.3800   -0.6720    0.8830 C   0  0  0  0  0  0  0  0  0  0  0  0
   -2.6956   -1.4838   -1.1522 C   0  0  0  0  0  0  0  0  0  0  0  0
    3.5983   -0.1897   -0.7386 C   0  0  0  0  0  0  0  0  0  0  0  0
   -3.0271   -0.6534    1.0921 C   0  0  0  0  0  0  0  0  0  0  0  0
    2.5670   -1.3721    1.0988 C   0  0  0  0  0  0  0  0  0  0  0  0
   -3.4245   -1.4745    0.0369 C   0  0  0  0  0  0  0  0  0  0  0  0
    3.6762   -1.1308    0.2878 C   0  0  0  0  0  0  0  0  0  0  0  0
    0.0454    1.3388   -1.4280 H   0  0  0  0  0  0  0  0  0  0  0  0
    0.9019    2.9109    0.2532 H   0  0  0  0  0  0  0  0  0  0  0  0
   -0.0157    2.1550    1.5310 H   0  0  0  0  0  0  0  0  0  0  0  0
   -1.2019    3.4263   -1.0117 H   0  0  0  0  0  0  0  0  0  0  0  0
   -2.1636    2.7829    0.3318 H   0  0  0  0  0  0  0  0  0  0  0  0
   -1.1287    4.1857    0.5829 H   0  0  0  0  0  0  0  0  0  0  0  0
   -1.0101   -0.6908   -2.2181 H   0  0  0  0  0  0  0  0  0  0  0  0
    2.3587    1.2433   -1.7529 H   0  0  0  0  0  0  0  0  0  0  0  0
   -1.6164    0.7626    1.8131 H   0  0  0  0  0  0  0  0  0  0  0  0
    0.5469   -0.8685    1.5468 H   0  0  0  0  0  0  0  0  0  0  0  0
   -3.0046   -2.1238   -1.9735 H   0  0  0  0  0  0  0  0  0  0  0  0
    4.4622   -0.0011   -1.3692 H   0  0  0  0  0  0  0  0  0  0  0  0
   -3.5920   -0.6507    2.0198 H   0  0  0  0  0  0  0  0  0  0  0  0
    2.6300   -2.1012    1.9014 H   0  0  0  0  0  0  0  0  0  0  0  0
   -4.3006   -2.1076    0.1418 H   0  0  0  0  0  0  0  0  0  0  0  0
    4.6009   -1.6748    0.4566 H   0  0  0  0  0  0  0  0  0  0  0  0
  1  2  1  0  0  0  0
  1  3  1  0  0  0  0
  1  4  1  0  0  0  0
  1 16  1  0  0  0  0
  2  5  1  0  0  0  0
  2 17  1  0  0  0  0
  2 18  1  0  0  0  0
  3  6  2  0  0  0  0
  3  8  1  0  0  0  0
  4  7  2  0  0  0  0
  4  9  1  0  0  0  0
  5 19  1  0  0  0  0
  5 20  1  0  0  0  0
  5 21  1  0  0  0  0
  6 10  1  0  0  0  0
  6 22  1  0  0  0  0
  7 11  1  0  0  0  0
  7 23  1  0  0  0  0
  8 12  2  0  0  0  0
  8 24  1  0  0  0  0
  9 13  2  0  0  0  0
  9 25  1  0  0  0  0
 10 14  2  0  0  0  0
 10 26  1  0  0  0  0
 11 15  2  0  0  0  0
 11 27  1  0  0  0  0
 12 14  1  0  0  0  0
 12 28  1  0  0  0  0
 13 15  1  0  0  0  0
 13 29  1  0  0  0  0
 14 30  1  0  0  0  0
 15 31  1  0  0  0  0
M  END
> <PUBCHEM_COMPOUND_CID>
73726

> <PUBCHEM_CONFORMER_RMSD>
0.6

> <PUBCHEM_CONFORMER_DIVERSEORDER>
1
4
3
5
2

> <PUBCHEM_MMFF94_PARTIAL_CHARGES>
23
1 0.29
10 -0.15
11 -0.15
12 -0.15
13 -0.15
14 -0.15
15 -0.15
22 0.15
23 0.15
24 0.15
25 0.15
26 0.15
27 0.15
28 0.15
29 0.15
3 -0.14
30 0.15
31 0.15
4 -0.14
6 -0.15
7 -0.15
8 -0.15
9 -0.15

> <PUBCHEM_EFFECTIVE_ROTOR_COUNT>
3

> <PUBCHEM_PHARMACOPHORE_FEATURES>
3
1 5 hydrophobe
6 3 6 8 10 12 14 rings
6 4 7 9 11 13 15 rings

> <PUBCHEM_HEAVY_ATOM_COUNT>
15

> <PUBCHEM_ATOM_DEF_STEREO_COUNT>
0

> <PUBCHEM_ATOM_UDEF_STEREO_COUNT>
0

> <PUBCHEM_BOND_DEF_STEREO_COUNT>
0

> <PUBCHEM_BOND_UDEF_STEREO_COUNT>
0

> <PUBCHEM_ISOTOPIC_ATOM_COUNT>
0

> <PUBCHEM_COMPONENT_COUNT>
1

> <PUBCHEM_CACTVS_TAUTO_COUNT>
1

> <PUBCHEM_CONFORMER_ID>
00011FFE00000001

> <PUBCHEM_MMFF94_ENERGY>
44.5512

> <PUBCHEM_FEATURE_SELFOVERLAP>
15.223

> <PUBCHEM_SHAPE_FINGERPRINT>
10618630 7 18408885122643967518
11357001 24 18265333906628836521
11578080 2 18270098206518941617
12119455 92 11887682727867224619
12553582 1 18411981390126584567
13296908 3 18411691114745676884
13299463 15 17022900159540013770
13538477 17 18190180083626061324
13583140 156 13686295768600736367
14178342 30 17973428920178945826
14787075 74 18118966030234946356
15375462 189 18335427901637610731
15490181 8 17332532267644611369
15653759 3 15913334606108971754
15906896 17 18120653526837685657
16752209 62 18267857285962151989
16945 1 18200873967982291836
18186145 218 15719389521086908442
19422 9 18339654402960223774
200 152 18113615690273288050
20361792 2 18342167912363734799
20671657 53 18269546299231574895
20871998 184 18199470969628325605
21296965 67 18411979187029654429
21524375 3 17617089205507588649
21731516 1 18412822507915671530
22112679 90 18201172038797238053
2255824 54 17979639257730614061
228727 97 18261971716388551532
23402539 116 18408041806305794070
23419403 2 13787798279788285961
23500284 5 18261671471924637986
23557571 272 18131063789187374696
23598288 3 18266178331643085156
23598294 1 18341619148655832024
23728640 28 17834378039157227627
465052 167 18268722786824943199
603831 33 18334018285303257918
6992083 37 17988657327863903735
7364860 26 17699005407415394977
81228 2 18268702818862308865
90316 7 18343308028628482737

> <PUBCHEM_SHAPE_MULTIPOLES>
308.69
5.92
2.36
1.22
2.05
2.41
-0.05
-3.66
-0.03
-1.13
0.18
-0.2
-0.33
-0.72

> <PUBCHEM_SHAPE_SELFOVERLAP>
656.243

> <PUBCHEM_SHAPE_VOLUME>
164.2

> <PUBCHEM_COORDINATE_TYPE>
2
5
10

$$$$
