144638
  -OEChem-11012400483D

 47 46  0     1  0  0  0  0  0999 V2000
   -1.2665   -0.2843   -0.6211 C   0  0  2  0  0  0  0  0  0  0  0  0
    1.2603   -0.2552    0.5460 C   0  0  2  0  0  0  0  0  0  0  0  0
    0.0154   -1.0022   -0.0719 C   0  0  0  0  0  0  0  0  0  0  0  0
   -1.9597    0.6633    0.4111 C   0  0  0  0  0  0  0  0  0  0  0  0
    2.0593    0.5634   -0.5033 C   0  0  0  0  0  0  0  0  0  0  0  0
   -2.2766   -1.3788   -1.1299 C   0  0  0  0  0  0  0  0  0  0  0  0
    2.1662   -1.3384    1.2349 C   0  0  0  0  0  0  0  0  0  0  0  0
   -0.9649    0.5620   -1.8815 C   0  0  0  0  0  0  0  0  0  0  0  0
    0.7936    0.6804    1.6913 C   0  0  0  0  0  0  0  0  0  0  0  0
   -3.3148    1.2796    0.0419 C   0  0  0  0  0  0  0  0  0  0  0  0
    3.3344    1.2505    0.0087 C   0  0  0  0  0  0  0  0  0  0  0  0
   -2.7951   -2.4035   -0.1324 C   0  0  0  0  0  0  0  0  0  0  0  0
    2.7699   -2.4046    0.3251 C   0  0  0  0  0  0  0  0  0  0  0  0
   -3.8785    2.0930    1.2005 C   0  0  0  0  0  0  0  0  0  0  0  0
    4.0569    1.9747   -1.1194 C   0  0  0  0  0  0  0  0  0  0  0  0
    0.3889   -1.6405   -0.8841 H   0  0  0  0  0  0  0  0  0  0  0  0
   -0.3306   -1.6926    0.7086 H   0  0  0  0  0  0  0  0  0  0  0  0
   -1.3143    1.5197    0.6037 H   0  0  0  0  0  0  0  0  0  0  0  0
   -2.0779    0.1187    1.3557 H   0  0  0  0  0  0  0  0  0  0  0  0
    1.4221    1.3528   -0.9088 H   0  0  0  0  0  0  0  0  0  0  0  0
    2.3151   -0.0858   -1.3498 H   0  0  0  0  0  0  0  0  0  0  0  0
   -3.1443   -0.9020   -1.6020 H   0  0  0  0  0  0  0  0  0  0  0  0
   -1.7915   -1.9408   -1.9411 H   0  0  0  0  0  0  0  0  0  0  0  0
    1.5784   -1.8550    2.0064 H   0  0  0  0  0  0  0  0  0  0  0  0
    2.9861   -0.8553    1.7799 H   0  0  0  0  0  0  0  0  0  0  0  0
   -0.5030    1.5197   -1.6281 H   0  0  0  0  0  0  0  0  0  0  0  0
   -0.2944    0.0279   -2.5640 H   0  0  0  0  0  0  0  0  0  0  0  0
   -1.8745    0.8006   -2.4449 H   0  0  0  0  0  0  0  0  0  0  0  0
    0.4823    1.6602    1.3240 H   0  0  0  0  0  0  0  0  0  0  0  0
    0.0032    0.2282    2.2974 H   0  0  0  0  0  0  0  0  0  0  0  0
    1.6206    0.8903    2.3817 H   0  0  0  0  0  0  0  0  0  0  0  0
   -3.2152    1.9265   -0.8359 H   0  0  0  0  0  0  0  0  0  0  0  0
   -4.0424    0.5000   -0.2023 H   0  0  0  0  0  0  0  0  0  0  0  0
    3.0909    1.9722    0.7954 H   0  0  0  0  0  0  0  0  0  0  0  0
    4.0266    0.5179    0.4340 H   0  0  0  0  0  0  0  0  0  0  0  0
   -3.2708   -1.9199    0.7253 H   0  0  0  0  0  0  0  0  0  0  0  0
   -1.9954   -3.0536    0.2328 H   0  0  0  0  0  0  0  0  0  0  0  0
   -3.5423   -3.0453   -0.6111 H   0  0  0  0  0  0  0  0  0  0  0  0
    1.9985   -3.0165   -0.1500 H   0  0  0  0  0  0  0  0  0  0  0  0
    3.4026   -3.0773    0.9139 H   0  0  0  0  0  0  0  0  0  0  0  0
    3.3956   -1.9615   -0.4544 H   0  0  0  0  0  0  0  0  0  0  0  0
   -4.8439    2.5276    0.9229 H   0  0  0  0  0  0  0  0  0  0  0  0
   -4.0307    1.4651    2.0842 H   0  0  0  0  0  0  0  0  0  0  0  0
   -3.2032    2.9110    1.4709 H   0  0  0  0  0  0  0  0  0  0  0  0
    4.9618    2.4595   -0.7397 H   0  0  0  0  0  0  0  0  0  0  0  0
    4.3517    1.2761   -1.9089 H   0  0  0  0  0  0  0  0  0  0  0  0
    3.4189    2.7462   -1.5623 H   0  0  0  0  0  0  0  0  0  0  0  0
  1  3  1  0  0  0  0
  1  4  1  0  0  0  0
  1  6  1  0  0  0  0
  1  8  1  0  0  0  0
  2  3  1  0  0  0  0
  2  5  1  0  0  0  0
  2  7  1  0  0  0  0
  2  9  1  0  0  0  0
  3 16  1  0  0  0  0
  3 17  1  0  0  0  0
  4 10  1  0  0  0  0
  4 18  1  0  0  0  0
  4 19  1  0  0  0  0
  5 11  1  0  0  0  0
  5 20  1  0  0  0  0
  5 21  1  0  0  0  0
  6 12  1  0  0  0  0
  6 22  1  0  0  0  0
  6 23  1  0  0  0  0
  7 13  1  0  0  0  0
  7 24  1  0  0  0  0
  7 25  1  0  0  0  0
  8 26  1  0  0  0  0
  8 27  1  0  0  0  0
  8 28  1  0  0  0  0
  9 29  1  0  0  0  0
  9 30  1  0  0  0  0
  9 31  1  0  0  0  0
 10 14  1  0  0  0  0
 10 32  1  0  0  0  0
 10 33  1  0  0  0  0
 11 15  1  0  0  0  0
 11 34  1  0  0  0  0
 11 35  1  0  0  0  0
 12 36  1  0  0  0  0
 12 37  1  0  0  0  0
 12 38  1  0  0  0  0
 13 39  1  0  0  0  0
 13 40  1  0  0  0  0
 13 41  1  0  0  0  0
 14 42  1  0  0  0  0
 14 43  1  0  0  0  0
 14 44  1  0  0  0  0
 15 45  1  0  0  0  0
 15 46  1  0  0  0  0
 15 47  1  0  0  0  0
M  END
> <PUBCHEM_COMPOUND_CID>
144638

> <PUBCHEM_CONFORMER_RMSD>
0.8

> <PUBCHEM_CONFORMER_DIVERSEORDER>
3
45
34
25
40
6
42
27
57
60
12
9
22
49
59
67
65
26
53
14
41
39
66
62
19
43
21
37
16
2
46
20
55
18
63
36
30
61
23
28
52
58
24
56
35
48
1
47
7
4
29
64
54
31
44
51
13
33
10
15
11
32
38
50
8
5
17

> <PUBCHEM_MMFF94_PARTIAL_CHARGES>
0

> <PUBCHEM_EFFECTIVE_ROTOR_COUNT>
8

> <PUBCHEM_PHARMACOPHORE_FEATURES>
11
1 12 hydrophobe
1 13 hydrophobe
1 14 hydrophobe
1 15 hydrophobe
1 8 hydrophobe
1 9 hydrophobe
3 1 3 6 hydrophobe
3 2 3 7 hydrophobe
4 1 4 6 10 hydrophobe
4 2 5 7 11 hydrophobe
5 1 2 3 6 7 hydrophobe

> <PUBCHEM_HEAVY_ATOM_COUNT>
15

> <PUBCHEM_ATOM_DEF_STEREO_COUNT>
0

> <PUBCHEM_ATOM_UDEF_STEREO_COUNT>
2

> <PUBCHEM_BOND_DEF_STEREO_COUNT>
0

> <PUBCHEM_BOND_UDEF_STEREO_COUNT>
0

> <PUBCHEM_ISOTOPIC_ATOM_COUNT>
0

> <PUBCHEM_COMPONENT_COUNT>
1

> <PUBCHEM_CACTVS_TAUTO_COUNT>
1

> <PUBCHEM_CONFORMER_ID>
000234FE00000003

> <PUBCHEM_MMFF94_ENERGY>
44.0554

> <PUBCHEM_FEATURE_SELFOVERLAP>
63.225

> <PUBCHEM_SHAPE_FINGERPRINT>
12173636 292 18343858931261624037
12186901 62 17774735258699917133
12932764 1 17458897124637538570
13380535 21 18410573985151477122
13538477 17 18272086067590438256
13764800 53 18060419127541112113
14115302 16 18130220433160644170
15342168 16 17749966547233998948
15775835 57 18410577283713110988
15852999 172 13325697727536822028
16945 1 18054211391801024179
1813 80 17907862795536723902
18186145 218 18260828233159918700
18511873 20 18126560120255101491
19422 9 18410569587126350866
19786989 88 18261384525312495014
20082192 1 17898257615952341839
201361 129 18409169917767366208
20233049 118 17632294540992132944
20645476 183 18272937098354474465
20671657 1 18341890749455295464
20711983 171 18272653449987123173
21041028 32 17824821131813403324
21501502 16 18410567388108486995
21524375 3 17772741677121371661
22094290 60 17986960845435363492
23419403 2 12189888068306428837
23493267 7 17846229855344448500
23526113 38 16558205820915177652
23566358 27 18261120651307214862
23598291 2 18410849928289620430
23598294 1 18272930561625285651
2748010 2 17130971217827540025
3248919 1 18266717182329598414
474 4 17895761819431985364
53777708 50 18409444799795554946
6049 1 16773230828800620865
633830 44 18261967335727651172
74978 22 18336816486049981798
7615 1 18338778070591306318
7832392 63 18411140225229656580
8030462 33 18128516314596775207
88987 49 17417795249666075710
9939556 21 18339636750618302450
9999458 23 18045793294924581603

> <PUBCHEM_SHAPE_MULTIPOLES>
308.69
6.74
2.58
1.49
0.51
0.8
0.08
-3.09
-0.01
-0.14
-0.15
-0.06
-0.36
-1.91

> <PUBCHEM_SHAPE_SELFOVERLAP>
563.488

> <PUBCHEM_SHAPE_VOLUME>
200.3

> <PUBCHEM_COORDINATE_TYPE>
2
5
10

$$$$
