20717848
  -OEChem-11012400543D

 31 32  0     0  0  0  0  0  0999 V2000
   -0.0011   -0.8527   -1.0717 O   0  0  0  0  0  0  0  0  0  0  0  0
   -0.0011    1.3546   -0.2026 O   0  0  0  0  0  0  0  0  0  0  0  0
   -0.0010   -0.5019    1.2744 O   0  0  0  0  0  0  0  0  0  0  0  0
    2.0150    0.0000    0.0000 C   0  0  0  0  0  0  0  0  0  0  0  0
   -0.4369    0.0000    0.0001 C   0  0  0  0  0  0  0  0  0  0  0  0
   -1.9574    0.0000    0.0000 C   0  0  0  0  0  0  0  0  0  0  0  0
    1.4327   -0.8877   -1.1155 C   0  0  0  0  0  0  0  0  0  0  0  0
    1.4327    1.4099   -0.2110 C   0  0  0  0  0  0  0  0  0  0  0  0
    1.4328   -0.5222    1.3265 C   0  0  0  0  0  0  0  0  0  0  0  0
    3.5366    0.0000   -0.0001 C   0  0  0  0  0  0  0  0  0  0  0  0
   -2.4841    0.5303   -1.3469 C   0  0  0  0  0  0  0  0  0  0  0  0
   -2.4841   -1.4316    0.2141 C   0  0  0  0  0  0  0  0  0  0  0  0
   -2.4842    0.9013    1.1327 C   0  0  0  0  0  0  0  0  0  0  0  0
    1.7474   -0.5470   -2.1081 H   0  0  0  0  0  0  0  0  0  0  0  0
    1.7472   -1.9315   -1.0062 H   0  0  0  0  0  0  0  0  0  0  0  0
    1.7474    2.0992    0.5803 H   0  0  0  0  0  0  0  0  0  0  0  0
    1.7473    1.8372   -1.1696 H   0  0  0  0  0  0  0  0  0  0  0  0
    1.7475   -1.5522    1.5277 H   0  0  0  0  0  0  0  0  0  0  0  0
    1.7473    0.0943    2.1758 H   0  0  0  0  0  0  0  0  0  0  0  0
    3.9308   -1.0107    0.1512 H   0  0  0  0  0  0  0  0  0  0  0  0
    3.9307    0.3744   -0.9511 H   0  0  0  0  0  0  0  0  0  0  0  0
    3.9309    0.6363    0.7995 H   0  0  0  0  0  0  0  0  0  0  0  0
   -3.5805    0.5353   -1.3594 H   0  0  0  0  0  0  0  0  0  0  0  0
   -2.1558    1.5576   -1.5386 H   0  0  0  0  0  0  0  0  0  0  0  0
   -2.1558   -0.0906   -2.1876 H   0  0  0  0  0  0  0  0  0  0  0  0
   -3.5805   -1.4450    0.2160 H   0  0  0  0  0  0  0  0  0  0  0  0
   -2.1557   -2.1113   -0.5796 H   0  0  0  0  0  0  0  0  0  0  0  0
   -2.1558   -1.8493    1.1722 H   0  0  0  0  0  0  0  0  0  0  0  0
   -3.5806    0.9097    1.1432 H   0  0  0  0  0  0  0  0  0  0  0  0
   -2.1558    1.9398    1.0153 H   0  0  0  0  0  0  0  0  0  0  0  0
   -2.1558    0.5538    2.1183 H   0  0  0  0  0  0  0  0  0  0  0  0
  1  5  1  0  0  0  0
  1  7  1  0  0  0  0
  2  5  1  0  0  0  0
  2  8  1  0  0  0  0
  3  5  1  0  0  0  0
  3  9  1  0  0  0  0
  4  7  1  0  0  0  0
  4  8  1  0  0  0  0
  4  9  1  0  0  0  0
  4 10  1  0  0  0  0
  5  6  1  0  0  0  0
  6 11  1  0  0  0  0
  6 12  1  0  0  0  0
  6 13  1  0  0  0  0
  7 14  1  0  0  0  0
  7 15  1  0  0  0  0
  8 16  1  0  0  0  0
  8 17  1  0  0  0  0
  9 18  1  0  0  0  0
  9 19  1  0  0  0  0
 10 20  1  0  0  0  0
 10 21  1  0  0  0  0
 10 22  1  0  0  0  0
 11 23  1  0  0  0  0
 11 24  1  0  0  0  0
 11 25  1  0  0  0  0
 12 26  1  0  0  0  0
 12 27  1  0  0  0  0
 12 28  1  0  0  0  0
 13 29  1  0  0  0  0
 13 30  1  0  0  0  0
 13 31  1  0  0  0  0
M  END
> <PUBCHEM_COMPOUND_CID>
20717848

> <PUBCHEM_CONFORMER_RMSD>
0.6

> <PUBCHEM_CONFORMER_DIVERSEORDER>
1

> <PUBCHEM_MMFF94_PARTIAL_CHARGES>
7
1 -0.56
2 -0.56
3 -0.56
5 0.84
7 0.28
8 0.28
9 0.28

> <PUBCHEM_EFFECTIVE_ROTOR_COUNT>
2.2

> <PUBCHEM_PHARMACOPHORE_FEATURES>
5
1 1 acceptor
1 2 acceptor
1 3 acceptor
4 6 11 12 13 hydrophobe
8 1 2 3 4 5 7 8 9 rings

> <PUBCHEM_HEAVY_ATOM_COUNT>
13

> <PUBCHEM_ATOM_DEF_STEREO_COUNT>
0

> <PUBCHEM_ATOM_UDEF_STEREO_COUNT>
0

> <PUBCHEM_BOND_DEF_STEREO_COUNT>
0

> <PUBCHEM_BOND_UDEF_STEREO_COUNT>
0

> <PUBCHEM_ISOTOPIC_ATOM_COUNT>
0

> <PUBCHEM_COMPONENT_COUNT>
1

> <PUBCHEM_CACTVS_TAUTO_COUNT>
1

> <PUBCHEM_CONFORMER_ID>
013C211800000001

> <PUBCHEM_MMFF94_ENERGY>
47.4542

> <PUBCHEM_FEATURE_SELFOVERLAP>
25.481

> <PUBCHEM_SHAPE_FINGERPRINT>
10219947 1 18272931622381760076
11769659 78 17131832015310095878
12423570 1 9260079219942796140
12491281 212 18200891616071710408
12932764 1 17894632551885179769
13024252 1 16443344277793686659
14993402 34 18272927245857668868
15775835 57 17821726117996688167
16945 1 18335983082169260196
17844478 74 17489596709324697619
18186145 218 18113626689995613772
22344851 262 17845946138468850905
23235685 24 18201719535526640297
23402539 116 18338219502164040349
23559900 14 18113896040838745482
2748010 2 18190175870088888868
29004967 10 18272658938981603598
3248919 1 18273493463890747015
369184 2 18040432196101404305
5084963 1 18188490310231524397
528886 8 18201726123737433996
68250623 7 18047479112437707798
8030462 33 17489864917078599269

> <PUBCHEM_SHAPE_MULTIPOLES>
249.93
4.32
1.27
1.27
0.63
0.09
0.06
0
0
-0.28
-0.06
-0.28
-0.09
0

> <PUBCHEM_SHAPE_SELFOVERLAP>
521.083

> <PUBCHEM_SHAPE_VOLUME>
143.2

> <PUBCHEM_COORDINATE_TYPE>
2
5
10

$$$$
