142673
  -OEChem-11012400413D

 52 52  0     0  0  0  0  0  0999 V2000
   -3.5827   -0.5157    0.7858 O   0  0  0  0  0  0  0  0  0  0  0  0
   -3.2739    0.5795   -1.3221 O   0  0  0  0  0  0  0  0  0  0  0  0
    3.2754    0.6150    1.3068 O   0  0  0  0  0  0  0  0  0  0  0  0
    3.5851   -0.5261   -0.7764 O   0  0  0  0  0  0  0  0  0  0  0  0
   -2.8456   -0.5229   -0.4682 C   0  0  0  0  0  0  0  0  0  0  0  0
    2.8924   -0.5066    0.4849 C   0  0  0  0  0  0  0  0  0  0  0  0
   -1.3745   -0.5195   -0.2234 C   0  0  0  0  0  0  0  0  0  0  0  0
    1.3775   -0.5113    0.2337 C   0  0  0  0  0  0  0  0  0  0  0  0
   -0.8845   -0.5048    1.0825 C   0  0  0  0  0  0  0  0  0  0  0  0
    0.4915   -0.5007    1.3110 C   0  0  0  0  0  0  0  0  0  0  0  0
   -0.4885   -0.5301   -1.3007 C   0  0  0  0  0  0  0  0  0  0  0  0
    0.8874   -0.5260   -1.0722 C   0  0  0  0  0  0  0  0  0  0  0  0
   -3.2077   -1.8093   -1.2618 C   0  0  0  0  0  0  0  0  0  0  0  0
    3.2133   -1.7746    1.2995 C   0  0  0  0  0  0  0  0  0  0  0  0
   -5.0018   -0.5177    0.7184 C   0  0  0  0  0  0  0  0  0  0  0  0
   -2.9859    1.8736   -0.8029 C   0  0  0  0  0  0  0  0  0  0  0  0
    2.9695    1.8938    0.7606 C   0  0  0  0  0  0  0  0  0  0  0  0
    5.0044   -0.5243   -0.7101 C   0  0  0  0  0  0  0  0  0  0  0  0
   -5.5623   -0.5094    2.1245 C   0  0  0  0  0  0  0  0  0  0  0  0
   -3.4794    2.9183   -1.7809 C   0  0  0  0  0  0  0  0  0  0  0  0
    3.4264    2.9651    1.7277 C   0  0  0  0  0  0  0  0  0  0  0  0
    5.5638   -0.5463   -2.1165 C   0  0  0  0  0  0  0  0  0  0  0  0
   -1.5400   -0.4909    1.9480 H   0  0  0  0  0  0  0  0  0  0  0  0
    0.8498   -0.4699    2.3361 H   0  0  0  0  0  0  0  0  0  0  0  0
   -0.8461   -0.5225   -2.3267 H   0  0  0  0  0  0  0  0  0  0  0  0
    1.5435   -0.5294   -1.9373 H   0  0  0  0  0  0  0  0  0  0  0  0
   -2.6456   -1.9015   -2.1971 H   0  0  0  0  0  0  0  0  0  0  0  0
   -3.0354   -2.7067   -0.6570 H   0  0  0  0  0  0  0  0  0  0  0  0
   -4.2609   -1.8074   -1.5624 H   0  0  0  0  0  0  0  0  0  0  0  0
    2.6549   -1.8318    2.2398 H   0  0  0  0  0  0  0  0  0  0  0  0
    3.0181   -2.6822    0.7170 H   0  0  0  0  0  0  0  0  0  0  0  0
    4.2672   -1.7963    1.5975 H   0  0  0  0  0  0  0  0  0  0  0  0
   -5.3585    0.3611    0.1729 H   0  0  0  0  0  0  0  0  0  0  0  0
   -5.3612   -1.4191    0.2150 H   0  0  0  0  0  0  0  0  0  0  0  0
   -3.4825    2.0121    0.1630 H   0  0  0  0  0  0  0  0  0  0  0  0
   -1.9084    2.0068   -0.6662 H   0  0  0  0  0  0  0  0  0  0  0  0
    3.4799    2.0248   -0.1992 H   0  0  0  0  0  0  0  0  0  0  0  0
    1.8926    2.0059    0.6038 H   0  0  0  0  0  0  0  0  0  0  0  0
    5.3610    0.3677   -0.1858 H   0  0  0  0  0  0  0  0  0  0  0  0
    5.3669   -1.4134   -0.1872 H   0  0  0  0  0  0  0  0  0  0  0  0
   -5.2115   -1.3823    2.6851 H   0  0  0  0  0  0  0  0  0  0  0  0
   -5.2206    0.3769    2.6694 H   0  0  0  0  0  0  0  0  0  0  0  0
   -6.6558   -0.5147    2.1104 H   0  0  0  0  0  0  0  0  0  0  0  0
   -2.9959    2.7930   -2.7554 H   0  0  0  0  0  0  0  0  0  0  0  0
   -4.5571    2.8139   -1.9444 H   0  0  0  0  0  0  0  0  0  0  0  0
   -3.2747    3.9273   -1.4123 H   0  0  0  0  0  0  0  0  0  0  0  0
    2.9290    2.8476    2.6960 H   0  0  0  0  0  0  0  0  0  0  0  0
    4.5030    2.8846    1.9108 H   0  0  0  0  0  0  0  0  0  0  0  0
    3.2087    3.9633    1.3376 H   0  0  0  0  0  0  0  0  0  0  0  0
    5.2144   -1.4322   -2.6571 H   0  0  0  0  0  0  0  0  0  0  0  0
    5.2198    0.3268   -2.6809 H   0  0  0  0  0  0  0  0  0  0  0  0
    6.6573   -0.5491   -2.1032 H   0  0  0  0  0  0  0  0  0  0  0  0
  1  5  1  0  0  0  0
  1 15  1  0  0  0  0
  2  5  1  0  0  0  0
  2 16  1  0  0  0  0
  3  6  1  0  0  0  0
  3 17  1  0  0  0  0
  4  6  1  0  0  0  0
  4 18  1  0  0  0  0
  5  7  1  0  0  0  0
  5 13  1  0  0  0  0
  6  8  1  0  0  0  0
  6 14  1  0  0  0  0
  7  9  2  0  0  0  0
  7 11  1  0  0  0  0
  8 10  2  0  0  0  0
  8 12  1  0  0  0  0
  9 10  1  0  0  0  0
  9 23  1  0  0  0  0
 10 24  1  0  0  0  0
 11 12  2  0  0  0  0
 11 25  1  0  0  0  0
 12 26  1  0  0  0  0
 13 27  1  0  0  0  0
 13 28  1  0  0  0  0
 13 29  1  0  0  0  0
 14 30  1  0  0  0  0
 14 31  1  0  0  0  0
 14 32  1  0  0  0  0
 15 19  1  0  0  0  0
 15 33  1  0  0  0  0
 15 34  1  0  0  0  0
 16 20  1  0  0  0  0
 16 35  1  0  0  0  0
 16 36  1  0  0  0  0
 17 21  1  0  0  0  0
 17 37  1  0  0  0  0
 17 38  1  0  0  0  0
 18 22  1  0  0  0  0
 18 39  1  0  0  0  0
 18 40  1  0  0  0  0
 19 41  1  0  0  0  0
 19 42  1  0  0  0  0
 19 43  1  0  0  0  0
 20 44  1  0  0  0  0
 20 45  1  0  0  0  0
 20 46  1  0  0  0  0
 21 47  1  0  0  0  0
 21 48  1  0  0  0  0
 21 49  1  0  0  0  0
 22 50  1  0  0  0  0
 22 51  1  0  0  0  0
 22 52  1  0  0  0  0
M  END
> <PUBCHEM_COMPOUND_CID>
142673

> <PUBCHEM_CONFORMER_RMSD>
1

> <PUBCHEM_CONFORMER_DIVERSEORDER>
1
13
9
6
2
4
11
7
14
5
8
12
10
3

> <PUBCHEM_MMFF94_PARTIAL_CHARGES>
20
1 -0.56
10 -0.15
11 -0.15
12 -0.15
15 0.28
16 0.28
17 0.28
18 0.28
2 -0.56
23 0.15
24 0.15
25 0.15
26 0.15
3 -0.56
4 -0.56
5 0.7
6 0.7
7 -0.14
8 -0.14
9 -0.15

> <PUBCHEM_EFFECTIVE_ROTOR_COUNT>
10

> <PUBCHEM_PHARMACOPHORE_FEATURES>
5
1 1 acceptor
1 2 acceptor
1 3 acceptor
1 4 acceptor
6 7 8 9 10 11 12 rings

> <PUBCHEM_HEAVY_ATOM_COUNT>
22

> <PUBCHEM_ATOM_DEF_STEREO_COUNT>
0

> <PUBCHEM_ATOM_UDEF_STEREO_COUNT>
0

> <PUBCHEM_BOND_DEF_STEREO_COUNT>
0

> <PUBCHEM_BOND_UDEF_STEREO_COUNT>
0

> <PUBCHEM_ISOTOPIC_ATOM_COUNT>
0

> <PUBCHEM_COMPONENT_COUNT>
1

> <PUBCHEM_CACTVS_TAUTO_COUNT>
1

> <PUBCHEM_CONFORMER_ID>
00022D5100000001

> <PUBCHEM_MMFF94_ENERGY>
60.0889

> <PUBCHEM_FEATURE_SELFOVERLAP>
25.438

> <PUBCHEM_SHAPE_FINGERPRINT>
10366900 7 17967818275187074283
10646746 165 18188759566021159116
11405975 8 17989207078992986610
12236239 1 15646774504565702755
12403259 415 18410573989446782220
12403814 3 18341887533247152191
12596602 18 15719397247580372461
12616971 3 16559032687870952745
12916754 54 17917144004660886431
13224815 77 15647047149078966866
13583140 156 18336816503472366211
13760787 5 16630521847319178114
14178342 30 16878493537006732529
14289901 80 18263342811340431643
15081414 286 18201998884959601640
15131766 46 17843116172150255553
15238133 3 18118952604172434408
15806764 133 18343302539702593428
17349148 13 16559027160522590006
18186145 218 18130781270032542002
19141452 34 12967130480191385229
200 152 16660647380143087691
20645477 56 18341331111438396823
21033648 29 18336537274521198617
21503847 285 18131074852664199426
23503958 25 18334289855642713909
23557571 272 18259993647756917893
23559900 14 17386297608942857157
268830 7 17775000223822257793
335352 9 15697726921384498646
46194498 28 18272934964082834972
474 4 18123174977688656640
497634 4 17702660102988868503
5104073 3 17386279892308503256
5281201 14 18272928341090309308
57724786 102 17775006829371559480
59755656 520 16988848242385674863
633830 44 16917345943772582598
7808743 9 17677614142303877517
90127 26 18411410713642853853
9999458 23 18131641097068832102

> <PUBCHEM_SHAPE_MULTIPOLES>
429.27
11.63
2.28
2.05
0.02
2.46
0.01
-0.19
0.03
-0.02
0.01
0.04
0.36
2.4

> <PUBCHEM_SHAPE_SELFOVERLAP>
852.15

> <PUBCHEM_SHAPE_VOLUME>
255.7

> <PUBCHEM_COORDINATE_TYPE>
2
5
10

$$$$
