141950
  -OEChem-11012401283D

 52 56  0     0  0  0  0  0  0999 V2000
    0.0453    1.2866    0.5019 C   0  0  0  0  0  0  0  0  0  0  0  0
    0.0996   -1.1083   -0.8680 C   0  0  0  0  0  0  0  0  0  0  0  0
   -0.4547    1.2565   -0.8057 C   0  0  0  0  0  0  0  0  0  0  0  0
   -0.0292   -1.1403    0.5258 C   0  0  0  0  0  0  0  0  0  0  0  0
    0.7745    2.4883    1.0634 C   0  0  0  0  0  0  0  0  0  0  0  0
    0.9072   -2.1588   -1.6005 C   0  0  0  0  0  0  0  0  0  0  0  0
   -1.3212    2.3615   -1.3741 C   0  0  0  0  0  0  0  0  0  0  0  0
   -0.5136   -2.3628    1.2818 C   0  0  0  0  0  0  0  0  0  0  0  0
    0.1079    0.0747    1.2043 C   0  0  0  0  0  0  0  0  0  0  0  0
   -0.2809    0.0669   -1.5298 C   0  0  0  0  0  0  0  0  0  0  0  0
    2.2076    2.6407    0.4489 C   0  0  0  0  0  0  0  0  0  0  0  0
    2.3364   -1.6436   -1.9867 C   0  0  0  0  0  0  0  0  0  0  0  0
   -2.7545    2.4321   -0.7314 C   0  0  0  0  0  0  0  0  0  0  0  0
   -2.0230   -2.7128    1.0179 C   0  0  0  0  0  0  0  0  0  0  0  0
    2.9610    1.3258    0.2925 C   0  0  0  0  0  0  0  0  0  0  0  0
    3.0147   -0.8049   -0.9119 C   0  0  0  0  0  0  0  0  0  0  0  0
   -3.2650    1.0954   -0.2106 C   0  0  0  0  0  0  0  0  0  0  0  0
   -2.8896   -1.5057    0.6869 C   0  0  0  0  0  0  0  0  0  0  0  0
    2.7931    0.5839   -0.8900 C   0  0  0  0  0  0  0  0  0  0  0  0
   -3.2189    0.8339    1.1681 C   0  0  0  0  0  0  0  0  0  0  0  0
   -3.4657    0.0309   -1.0964 C   0  0  0  0  0  0  0  0  0  0  0  0
   -3.0403   -0.4749    1.6211 C   0  0  0  0  0  0  0  0  0  0  0  0
   -3.2665   -1.2760   -0.6460 C   0  0  0  0  0  0  0  0  0  0  0  0
    3.6139    0.7241    1.3704 C   0  0  0  0  0  0  0  0  0  0  0  0
    3.6628   -1.3937    0.1757 C   0  0  0  0  0  0  0  0  0  0  0  0
    3.9991   -0.6194    1.2924 C   0  0  0  0  0  0  0  0  0  0  0  0
    0.1977    3.4046    0.8962 H   0  0  0  0  0  0  0  0  0  0  0  0
    0.8643    2.3806    2.1521 H   0  0  0  0  0  0  0  0  0  0  0  0
    0.3734   -2.4772   -2.5037 H   0  0  0  0  0  0  0  0  0  0  0  0
    1.0164   -3.0529   -0.9770 H   0  0  0  0  0  0  0  0  0  0  0  0
   -0.8221    3.3325   -1.2779 H   0  0  0  0  0  0  0  0  0  0  0  0
   -1.4401    2.1984   -2.4535 H   0  0  0  0  0  0  0  0  0  0  0  0
    0.1129   -3.2338    1.0616 H   0  0  0  0  0  0  0  0  0  0  0  0
   -0.3919   -2.1830    2.3585 H   0  0  0  0  0  0  0  0  0  0  0  0
    0.2682    0.0805    2.2799 H   0  0  0  0  0  0  0  0  0  0  0  0
   -0.4104    0.0620   -2.6093 H   0  0  0  0  0  0  0  0  0  0  0  0
    2.7952    3.3325    1.0646 H   0  0  0  0  0  0  0  0  0  0  0  0
    2.1234    3.1154   -0.5377 H   0  0  0  0  0  0  0  0  0  0  0  0
    2.9726   -2.4994   -2.2440 H   0  0  0  0  0  0  0  0  0  0  0  0
    2.2627   -1.0432   -2.9033 H   0  0  0  0  0  0  0  0  0  0  0  0
   -2.7262    3.1516    0.0971 H   0  0  0  0  0  0  0  0  0  0  0  0
   -3.4640    2.8403   -1.4612 H   0  0  0  0  0  0  0  0  0  0  0  0
   -2.0706   -3.4268    0.1855 H   0  0  0  0  0  0  0  0  0  0  0  0
   -2.4360   -3.2359    1.8888 H   0  0  0  0  0  0  0  0  0  0  0  0
    2.2994    1.0531   -1.7392 H   0  0  0  0  0  0  0  0  0  0  0  0
   -3.1144    1.6489    1.8808 H   0  0  0  0  0  0  0  0  0  0  0  0
   -3.5536    0.2112   -2.1650 H   0  0  0  0  0  0  0  0  0  0  0  0
   -2.8027   -0.6409    2.6691 H   0  0  0  0  0  0  0  0  0  0  0  0
   -3.2076   -2.0753   -1.3813 H   0  0  0  0  0  0  0  0  0  0  0  0
    3.7680    1.2704    2.2968 H   0  0  0  0  0  0  0  0  0  0  0  0
    3.8578   -2.4625    0.1891 H   0  0  0  0  0  0  0  0  0  0  0  0
    4.4850   -1.0885    2.1438 H   0  0  0  0  0  0  0  0  0  0  0  0
  1  3  2  0  0  0  0
  1  5  1  0  0  0  0
  1  9  1  0  0  0  0
  2  4  1  0  0  0  0
  2  6  1  0  0  0  0
  2 10  2  0  0  0  0
  3  7  1  0  0  0  0
  3 10  1  0  0  0  0
  4  8  1  0  0  0  0
  4  9  2  0  0  0  0
  5 11  1  0  0  0  0
  5 27  1  0  0  0  0
  5 28  1  0  0  0  0
  6 12  1  0  0  0  0
  6 29  1  0  0  0  0
  6 30  1  0  0  0  0
  7 13  1  0  0  0  0
  7 31  1  0  0  0  0
  7 32  1  0  0  0  0
  8 14  1  0  0  0  0
  8 33  1  0  0  0  0
  8 34  1  0  0  0  0
  9 35  1  0  0  0  0
 10 36  1  0  0  0  0
 11 15  1  0  0  0  0
 11 37  1  0  0  0  0
 11 38  1  0  0  0  0
 12 16  1  0  0  0  0
 12 39  1  0  0  0  0
 12 40  1  0  0  0  0
 13 17  1  0  0  0  0
 13 41  1  0  0  0  0
 13 42  1  0  0  0  0
 14 18  1  0  0  0  0
 14 43  1  0  0  0  0
 14 44  1  0  0  0  0
 15 19  2  0  0  0  0
 15 24  1  0  0  0  0
 16 19  1  0  0  0  0
 16 25  2  0  0  0  0
 17 20  2  0  0  0  0
 17 21  1  0  0  0  0
 18 22  2  0  0  0  0
 18 23  1  0  0  0  0
 19 45  1  0  0  0  0
 20 22  1  0  0  0  0
 20 46  1  0  0  0  0
 21 23  2  0  0  0  0
 21 47  1  0  0  0  0
 22 48  1  0  0  0  0
 23 49  1  0  0  0  0
 24 26  2  0  0  0  0
 24 50  1  0  0  0  0
 25 26  1  0  0  0  0
 25 51  1  0  0  0  0
 26 52  1  0  0  0  0
M  END
> <PUBCHEM_COMPOUND_CID>
141950

> <PUBCHEM_CONFORMER_RMSD>
0.6

> <PUBCHEM_CONFORMER_DIVERSEORDER>
1
2

> <PUBCHEM_MMFF94_PARTIAL_CHARGES>
36
1 -0.14
10 -0.15
11 0.14
12 0.14
13 0.14
14 0.14
15 -0.14
16 -0.14
17 -0.14
18 -0.14
19 -0.15
2 -0.14
20 -0.15
21 -0.15
22 -0.15
23 -0.15
24 -0.15
25 -0.15
26 -0.15
3 -0.14
35 0.15
36 0.15
4 -0.14
45 0.15
46 0.15
47 0.15
48 0.15
49 0.15
5 0.14
50 0.15
51 0.15
52 0.15
6 0.14
7 0.14
8 0.14
9 -0.15

> <PUBCHEM_EFFECTIVE_ROTOR_COUNT>
1.6

> <PUBCHEM_PHARMACOPHORE_FEATURES>
3
6 1 2 3 4 9 10 rings
6 15 16 19 24 25 26 rings
6 17 18 20 21 22 23 rings

> <PUBCHEM_HEAVY_ATOM_COUNT>
26

> <PUBCHEM_ATOM_DEF_STEREO_COUNT>
0

> <PUBCHEM_ATOM_UDEF_STEREO_COUNT>
0

> <PUBCHEM_BOND_DEF_STEREO_COUNT>
0

> <PUBCHEM_BOND_UDEF_STEREO_COUNT>
0

> <PUBCHEM_ISOTOPIC_ATOM_COUNT>
0

> <PUBCHEM_COMPONENT_COUNT>
1

> <PUBCHEM_CACTVS_TAUTO_COUNT>
1

> <PUBCHEM_CONFORMER_ID>
00022A7E00000001

> <PUBCHEM_MMFF94_ENERGY>
158.3852

> <PUBCHEM_FEATURE_SELFOVERLAP>
15.223

> <PUBCHEM_SHAPE_FINGERPRINT>
10675989 125 16821064713054140316
10863032 1 18338800120963908008
1100329 8 16896236115124896641
11132069 177 18413386514446839449
11640471 11 15267342929156492144
12156800 1 13020993179550782254
12633257 1 18410579474140858928
13140716 1 18336270132092538745
13224815 77 18409452496202395430
13583140 156 18261663891523742242
14223421 5 18266463302601887928
14251745 187 18411132563044514529
15881359 60 18202275935792124318
16752209 62 18041277673425358282
16945 1 18259707799986580462
17349148 13 18131628989133992418
20600515 1 18188512210665412614
20691752 17 18259706692338744251
20905425 154 18192441989407792006
23419403 2 18128553573453710469
23559900 14 18336838485463374446
238 59 18126817547826038197
2748010 2 18201722830014457012
4340502 62 18046343033828145781

> <PUBCHEM_SHAPE_MULTIPOLES>
535.07
6.58
3.01
1.77
1.21
0.41
-0.21
-0.21
0.99
-0.43
0.05
0.17
-0.4
1.31

> <PUBCHEM_SHAPE_SELFOVERLAP>
1189.426

> <PUBCHEM_SHAPE_VOLUME>
263.7

> <PUBCHEM_COORDINATE_TYPE>
2
5
10

$$$$
