5462970
  -OEChem-11012401173D

 35 36  0     0  0  0  0  0  0999 V2000
   -1.2696    1.8238    0.1749 O   0  0  0  0  0  0  0  0  0  0  0  0
    1.4444    1.8052    1.0555 O   0  0  0  0  0  0  0  0  0  0  0  0
   -2.3092   -0.3305    0.1944 C   0  0  0  0  0  0  0  0  0  0  0  0
   -1.0895    0.4536    0.3063 C   0  0  0  0  0  0  0  0  0  0  0  0
    0.1189   -0.1160    0.5497 C   0  0  0  0  0  0  0  0  0  0  0  0
    2.6440   -0.0403    0.2480 C   0  0  0  0  0  0  0  0  0  0  0  0
    1.3968    0.6447    0.6647 C   0  0  0  0  0  0  0  0  0  0  0  0
   -2.2564   -1.6402   -0.2822 C   0  0  0  0  0  0  0  0  0  0  0  0
   -3.5323    0.2277    0.5660 C   0  0  0  0  0  0  0  0  0  0  0  0
   -1.1489    2.2099   -1.1771 C   0  0  0  0  0  0  0  0  0  0  0  0
   -3.4266   -2.3919   -0.3872 C   0  0  0  0  0  0  0  0  0  0  0  0
   -4.7026   -0.5240    0.4610 C   0  0  0  0  0  0  0  0  0  0  0  0
    2.5834   -0.9961   -0.7468 C   0  0  0  0  0  0  0  0  0  0  0  0
    3.8312    0.2988    0.8665 C   0  0  0  0  0  0  0  0  0  0  0  0
   -4.6498   -1.8339   -0.0156 C   0  0  0  0  0  0  0  0  0  0  0  0
    3.7576   -1.6387   -1.1392 C   0  0  0  0  0  0  0  0  0  0  0  0
    5.0053   -0.3438    0.4741 C   0  0  0  0  0  0  0  0  0  0  0  0
   -1.3654    3.7043   -1.2844 C   0  0  0  0  0  0  0  0  0  0  0  0
    4.9686   -1.3126   -0.5288 C   0  0  0  0  0  0  0  0  0  0  0  0
    0.2161   -1.1912    0.6718 H   0  0  0  0  0  0  0  0  0  0  0  0
   -1.3293   -2.1047   -0.6071 H   0  0  0  0  0  0  0  0  0  0  0  0
   -3.6041    1.2424    0.9496 H   0  0  0  0  0  0  0  0  0  0  0  0
   -0.1511    1.9666   -1.5627 H   0  0  0  0  0  0  0  0  0  0  0  0
   -1.8964    1.6995   -1.7973 H   0  0  0  0  0  0  0  0  0  0  0  0
   -3.3869   -3.4099   -0.7638 H   0  0  0  0  0  0  0  0  0  0  0  0
   -5.6549   -0.0903    0.7519 H   0  0  0  0  0  0  0  0  0  0  0  0
    1.6612   -1.2564   -1.2570 H   0  0  0  0  0  0  0  0  0  0  0  0
    3.8746    1.0477    1.6518 H   0  0  0  0  0  0  0  0  0  0  0  0
   -5.5612   -2.4188   -0.0983 H   0  0  0  0  0  0  0  0  0  0  0  0
    3.7302   -2.3894   -1.9236 H   0  0  0  0  0  0  0  0  0  0  0  0
    5.9482   -0.0906    0.9499 H   0  0  0  0  0  0  0  0  0  0  0  0
   -1.2785    4.0390   -2.3219 H   0  0  0  0  0  0  0  0  0  0  0  0
   -2.3561    3.9785   -0.9069 H   0  0  0  0  0  0  0  0  0  0  0  0
   -0.6320    4.2447   -0.6767 H   0  0  0  0  0  0  0  0  0  0  0  0
    5.8830   -1.8122   -0.8350 H   0  0  0  0  0  0  0  0  0  0  0  0
  1  4  1  0  0  0  0
  1 10  1  0  0  0  0
  2  7  2  0  0  0  0
  3  4  1  0  0  0  0
  3  8  2  0  0  0  0
  3  9  1  0  0  0  0
  4  5  2  0  0  0  0
  5  7  1  0  0  0  0
  5 20  1  0  0  0  0
  6  7  1  0  0  0  0
  6 13  2  0  0  0  0
  6 14  1  0  0  0  0
  8 11  1  0  0  0  0
  8 21  1  0  0  0  0
  9 12  2  0  0  0  0
  9 22  1  0  0  0  0
 10 18  1  0  0  0  0
 10 23  1  0  0  0  0
 10 24  1  0  0  0  0
 11 15  2  0  0  0  0
 11 25  1  0  0  0  0
 12 15  1  0  0  0  0
 12 26  1  0  0  0  0
 13 16  1  0  0  0  0
 13 27  1  0  0  0  0
 14 17  2  0  0  0  0
 14 28  1  0  0  0  0
 15 29  1  0  0  0  0
 16 19  2  0  0  0  0
 16 30  1  0  0  0  0
 17 19  1  0  0  0  0
 17 31  1  0  0  0  0
 18 32  1  0  0  0  0
 18 33  1  0  0  0  0
 18 34  1  0  0  0  0
 19 35  1  0  0  0  0
M  END
> <PUBCHEM_COMPOUND_CID>
5462970

> <PUBCHEM_CONFORMER_RMSD>
0.6

> <PUBCHEM_CONFORMER_DIVERSEORDER>
1
25
11
35
47
26
12
21
55
4
30
52
7
31
32
27
29
36
37
22
46
9
58
18
10
20
56
38
51
8
3
41
33
28
14
13
49
53
50
42
17
48
60
19
57
23
6
61
45
16
44
15
24
2
5
59
54
39
34
40
43

> <PUBCHEM_MMFF94_PARTIAL_CHARGES>
29
1 -0.36
10 0.28
11 -0.15
12 -0.15
13 -0.15
14 -0.15
15 -0.15
16 -0.15
17 -0.15
19 -0.15
2 -0.57
20 0.15
21 0.15
22 0.15
25 0.15
26 0.15
27 0.15
28 0.15
29 0.15
3 0.03
30 0.15
31 0.15
35 0.15
4 0.05
5 -0.14
6 0.09
7 0.47
8 -0.15
9 -0.15

> <PUBCHEM_EFFECTIVE_ROTOR_COUNT>
5

> <PUBCHEM_PHARMACOPHORE_FEATURES>
4
1 1 acceptor
1 2 acceptor
6 3 8 9 11 12 15 rings
6 6 13 14 16 17 19 rings

> <PUBCHEM_HEAVY_ATOM_COUNT>
19

> <PUBCHEM_ATOM_DEF_STEREO_COUNT>
0

> <PUBCHEM_ATOM_UDEF_STEREO_COUNT>
0

> <PUBCHEM_BOND_DEF_STEREO_COUNT>
1

> <PUBCHEM_BOND_UDEF_STEREO_COUNT>
0

> <PUBCHEM_ISOTOPIC_ATOM_COUNT>
0

> <PUBCHEM_COMPONENT_COUNT>
1

> <PUBCHEM_CACTVS_TAUTO_COUNT>
1

> <PUBCHEM_CONFORMER_ID>
00535BBA00000001

> <PUBCHEM_MMFF94_ENERGY>
63.0349

> <PUBCHEM_FEATURE_SELFOVERLAP>
20.3

> <PUBCHEM_SHAPE_FINGERPRINT>
11833330 49 18187364307367241013
12553582 1 18260257569028573947
12714826 92 18338231570410322552
12788726 201 17968651614854308961
13149001 5 16952542531069924305
13402501 40 18202569466800726438
14178000 29 18336546148360942839
14251764 30 17749400316505877411
14386348 63 18130791144320669426
15196674 1 18202284723021366450
15352361 1 18272371992148375874
15961568 22 18115305713272223084
17357779 13 18338780282805588365
17492 89 17978511159355053251
17539 30 18262788589098490981
17804303 29 18273220815546667915
1813 80 18260832643663959693
19141452 34 18273498987783451911
20281475 54 18343590658861419816
20374829 77 18409727374326013507
20693207 138 17986690185677135846
21033650 10 17826536391664466678
21267235 1 18340775935407942739
21339142 126 18334854987692352369
22849341 161 18263103122791874249
23402539 116 18040711463591668266
23557571 272 18334571339488869076
23559900 14 18131062792364559337
26918003 58 17632295657725678410
2871803 45 18410007728348044730
314173 85 18335140907997079337
3268164 11 17821726100679714828
4214541 1 18202568358440025691
4325135 7 18409451423288928436
5104073 3 18060139846929232786
621550 34 18270668900698902048
7399639 24 18270664489904626160
9709674 26 18198623435290038691

> <PUBCHEM_SHAPE_MULTIPOLES>
379.27
10.35
2.87
1.08
4.35
2.49
-0.15
-6.9
0.25
-2.46
-1.43
0.41
0.36
1.05

> <PUBCHEM_SHAPE_SELFOVERLAP>
807.689

> <PUBCHEM_SHAPE_VOLUME>
210.9

> <PUBCHEM_COORDINATE_TYPE>
2
5
10

$$$$
