138485
  -OEChem-11012401173D

 36 38  0     0  0  0  0  0  0999 V2000
   -0.4434    2.7985   -0.0021 O   0  0  0  0  0  0  0  0  0  0  0  0
    2.1535    2.5924    0.0020 O   0  0  0  0  0  0  0  0  0  0  0  0
   -0.1754   -0.8116   -0.0005 C   0  0  0  0  0  0  0  0  0  0  0  0
   -4.4891   -0.3703    0.0012 C   0  0  0  0  0  0  0  0  0  0  0  0
   -3.0061   -0.5203   -0.0004 C   0  0  0  0  0  0  0  0  0  0  0  0
   -0.7924    0.4545   -0.0010 C   0  0  0  0  0  0  0  0  0  0  0  0
    1.3051   -0.9393   -0.0002 C   0  0  0  0  0  0  0  0  0  0  0  0
    2.1298    0.2024   -0.0001 C   0  0  0  0  0  0  0  0  0  0  0  0
   -2.1882    0.6028   -0.0009 C   0  0  0  0  0  0  0  0  0  0  0  0
   -1.0391   -1.9258   -0.0005 C   0  0  0  0  0  0  0  0  0  0  0  0
   -2.4320   -1.7841   -0.0002 C   0  0  0  0  0  0  0  0  0  0  0  0
    0.0337    1.6738   -0.0011 C   0  0  0  0  0  0  0  0  0  0  0  0
    1.5247    1.5451   -0.0003 C   0  0  0  0  0  0  0  0  0  0  0  0
    3.5303    0.1097    0.0002 C   0  0  0  0  0  0  0  0  0  0  0  0
   -5.0162    0.3420   -1.2605 C   0  0  0  0  0  0  0  0  0  0  0  0
   -5.0135    0.3439    1.2630 C   0  0  0  0  0  0  0  0  0  0  0  0
    1.9652   -2.1848    0.0002 C   0  0  0  0  0  0  0  0  0  0  0  0
    4.1438   -1.1370    0.0003 C   0  0  0  0  0  0  0  0  0  0  0  0
    3.3618   -2.2837    0.0003 C   0  0  0  0  0  0  0  0  0  0  0  0
    4.4474    1.2919    0.0006 C   0  0  0  0  0  0  0  0  0  0  0  0
   -4.9443   -1.3703    0.0025 H   0  0  0  0  0  0  0  0  0  0  0  0
   -2.6312    1.5954   -0.0009 H   0  0  0  0  0  0  0  0  0  0  0  0
   -0.6571   -2.9428   -0.0002 H   0  0  0  0  0  0  0  0  0  0  0  0
   -3.0496   -2.6787    0.0003 H   0  0  0  0  0  0  0  0  0  0  0  0
   -4.6770    1.3820   -1.3141 H   0  0  0  0  0  0  0  0  0  0  0  0
   -6.1115    0.3470   -1.2693 H   0  0  0  0  0  0  0  0  0  0  0  0
   -4.6743   -0.1698   -2.1670 H   0  0  0  0  0  0  0  0  0  0  0  0
   -4.6695   -0.1663    2.1695 H   0  0  0  0  0  0  0  0  0  0  0  0
   -6.1088    0.3486    1.2742 H   0  0  0  0  0  0  0  0  0  0  0  0
   -4.6746    1.3842    1.3142 H   0  0  0  0  0  0  0  0  0  0  0  0
    1.4151   -3.1214    0.0002 H   0  0  0  0  0  0  0  0  0  0  0  0
    5.2255   -1.2394    0.0004 H   0  0  0  0  0  0  0  0  0  0  0  0
    3.8331   -3.2625    0.0004 H   0  0  0  0  0  0  0  0  0  0  0  0
    5.5018    0.9903    0.0001 H   0  0  0  0  0  0  0  0  0  0  0  0
    4.3059    1.8977   -0.9002 H   0  0  0  0  0  0  0  0  0  0  0  0
    4.3064    1.8968    0.9021 H   0  0  0  0  0  0  0  0  0  0  0  0
  1 12  2  0  0  0  0
  2 13  2  0  0  0  0
  3  6  2  0  0  0  0
  3  7  1  0  0  0  0
  3 10  1  0  0  0  0
  4  5  1  0  0  0  0
  4 15  1  0  0  0  0
  4 16  1  0  0  0  0
  4 21  1  0  0  0  0
  5  9  2  0  0  0  0
  5 11  1  0  0  0  0
  6  9  1  0  0  0  0
  6 12  1  0  0  0  0
  7  8  1  0  0  0  0
  7 17  2  0  0  0  0
  8 13  1  0  0  0  0
  8 14  2  0  0  0  0
  9 22  1  0  0  0  0
 10 11  2  0  0  0  0
 10 23  1  0  0  0  0
 11 24  1  0  0  0  0
 12 13  1  0  0  0  0
 14 18  1  0  0  0  0
 14 20  1  0  0  0  0
 15 25  1  0  0  0  0
 15 26  1  0  0  0  0
 15 27  1  0  0  0  0
 16 28  1  0  0  0  0
 16 29  1  0  0  0  0
 16 30  1  0  0  0  0
 17 19  1  0  0  0  0
 17 31  1  0  0  0  0
 18 19  2  0  0  0  0
 18 32  1  0  0  0  0
 19 33  1  0  0  0  0
 20 34  1  0  0  0  0
 20 35  1  0  0  0  0
 20 36  1  0  0  0  0
M  END
> <PUBCHEM_COMPOUND_CID>
138485

> <PUBCHEM_CONFORMER_RMSD>
0.6

> <PUBCHEM_CONFORMER_DIVERSEORDER>
1

> <PUBCHEM_MMFF94_PARTIAL_CHARGES>
22
1 -0.57
10 -0.15
11 -0.15
12 0.48
13 0.48
14 -0.14
17 -0.15
18 -0.15
19 -0.15
2 -0.57
20 0.14
22 0.15
23 0.15
24 0.15
31 0.15
32 0.15
33 0.15
4 0.14
5 -0.14
6 0.09
8 0.09
9 -0.15

> <PUBCHEM_EFFECTIVE_ROTOR_COUNT>
1

> <PUBCHEM_PHARMACOPHORE_FEATURES>
6
1 1 acceptor
1 2 acceptor
3 4 15 16 hydrophobe
6 3 5 6 9 10 11 rings
6 3 6 7 8 12 13 rings
6 7 8 14 17 18 19 rings

> <PUBCHEM_HEAVY_ATOM_COUNT>
20

> <PUBCHEM_ATOM_DEF_STEREO_COUNT>
0

> <PUBCHEM_ATOM_UDEF_STEREO_COUNT>
0

> <PUBCHEM_BOND_DEF_STEREO_COUNT>
0

> <PUBCHEM_BOND_UDEF_STEREO_COUNT>
0

> <PUBCHEM_ISOTOPIC_ATOM_COUNT>
0

> <PUBCHEM_COMPONENT_COUNT>
1

> <PUBCHEM_CACTVS_TAUTO_COUNT>
1

> <PUBCHEM_CONFORMER_ID>
00021CF500000001

> <PUBCHEM_MMFF94_ENERGY>
62.2746

> <PUBCHEM_FEATURE_SELFOVERLAP>
30.497

> <PUBCHEM_SHAPE_FINGERPRINT>
10062212 137 17989202672957700439
10411042 1 18050568435296505814
10688039 33 18041002800098530253
10906281 52 18336844060261943242
10967382 1 18410574011338096742
11471102 20 18410570695322683502
11578080 2 17415526927562245945
116883 192 18268995297708314006
12011746 2 18411983550879899374
12236239 1 17846779603370131715
12553582 1 18411135810103158694
13140716 1 18266737081345376984
13675066 3 17967818266760779923
138480 1 18410574024112696548
13862211 1 18410849923973865710
14115302 16 17967825950209528318
14178342 30 17910096246674464818
14790565 3 18267311941269944833
15042514 8 17761211012465391658
15081414 286 18411427214949559028
15099037 51 18409443674861977831
15196674 1 18410574019543195303
15442244 35 18340771437964701905
15536298 74 18343021103406591666
1601671 61 18410294743884950988
16945 1 18410573981304896228
17349148 13 17846781819341381831
17357779 13 18261660485772952029
18785283 64 17898022462472543637
19591789 44 18194404385645447987
200 152 18060132150742969663
20645477 70 18409443700325878431
20739085 24 18193019061467143713
21029758 11 18341044142987614977
21033648 29 17895181208926282461
21267235 1 18338807719183560970
21279426 13 18192144898267668677
21421861 104 18114737127935996658
221357 26 18337092494451216605
221490 88 18263931105996424603
22182313 1 18189315927553011356
22289505 5 18335973182095511605
23184049 59 18412271622984444083
2334 1 17978511167654064416
23402539 116 18200868479362325255
23463225 33 18410857680858446918
23559900 14 18411697708142974946
2748010 2 18122063375732846412
2871803 45 18336546028112563902
335352 9 18410575072000015862
34934 24 18339917212214859310
350125 39 18339082580210828984
4072396 5 18336528478976367538
5104073 3 18410574023843574723
537710 114 18410298016602512364
543358 83 18412548716841201242
57005193 9 18412256259448628302
59755656 215 18410013209422491070
602551 16 15123212386630465637
7364860 26 18341049705028110248
7832392 63 18269552900153352894
84936 182 17842839103166145864
9709674 26 18337112370716219731
9981440 41 17332512983542224513

> <PUBCHEM_SHAPE_MULTIPOLES>
399.85
9.28
2.57
0.77
5.8
0.49
0
-0.43
0
-1.94
0
0.83
0.04
0

> <PUBCHEM_SHAPE_SELFOVERLAP>
884.915

> <PUBCHEM_SHAPE_VOLUME>
213.7

> <PUBCHEM_COORDINATE_TYPE>
2
5
10

$$$$
