94263
  -OEChem-11012401053D

 21 21  0     1  0  0  0  0  0999 V2000
   -2.8705   -0.4491    0.2008 O   0  0  0  0  0  0  0  0  0  0  0  0
    0.3261    1.3168   -0.1845 N   0  0  0  0  0  0  0  0  0  0  0  0
   -0.5878    0.2540    0.2527 C   0  0  2  0  0  0  0  0  0  0  0  0
   -0.1175   -1.1137   -0.2611 C   0  0  0  0  0  0  0  0  0  0  0  0
    1.3165   -1.4040    0.1734 C   0  0  0  0  0  0  0  0  0  0  0  0
    2.2365   -0.2509   -0.2127 C   0  0  0  0  0  0  0  0  0  0  0  0
    1.6908    1.0838    0.2889 C   0  0  0  0  0  0  0  0  0  0  0  0
   -1.9941    0.5632   -0.2575 C   0  0  0  0  0  0  0  0  0  0  0  0
   -0.6179    0.2207    1.3504 H   0  0  0  0  0  0  0  0  0  0  0  0
   -0.1774   -1.1477   -1.3570 H   0  0  0  0  0  0  0  0  0  0  0  0
   -0.7598   -1.9160    0.1195 H   0  0  0  0  0  0  0  0  0  0  0  0
    1.6675   -2.3347   -0.2859 H   0  0  0  0  0  0  0  0  0  0  0  0
    1.3475   -1.5489    1.2603 H   0  0  0  0  0  0  0  0  0  0  0  0
    3.2372   -0.4216    0.1998 H   0  0  0  0  0  0  0  0  0  0  0  0
    2.3416   -0.2182   -1.3046 H   0  0  0  0  0  0  0  0  0  0  0  0
    1.7203    1.1187    1.3848 H   0  0  0  0  0  0  0  0  0  0  0  0
    2.3340    1.8928   -0.0741 H   0  0  0  0  0  0  0  0  0  0  0  0
   -0.0029    2.2157    0.1669 H   0  0  0  0  0  0  0  0  0  0  0  0
   -2.0422    0.6107   -1.3514 H   0  0  0  0  0  0  0  0  0  0  0  0
   -2.3504    1.5199    0.1392 H   0  0  0  0  0  0  0  0  0  0  0  0
   -2.7811   -1.2130   -0.3936 H   0  0  0  0  0  0  0  0  0  0  0  0
  1  8  1  0  0  0  0
  1 21  1  0  0  0  0
  2  3  1  0  0  0  0
  2  7  1  0  0  0  0
  2 18  1  0  0  0  0
  3  4  1  0  0  0  0
  3  8  1  0  0  0  0
  3  9  1  0  0  0  0
  4  5  1  0  0  0  0
  4 10  1  0  0  0  0
  4 11  1  0  0  0  0
  5  6  1  0  0  0  0
  5 12  1  0  0  0  0
  5 13  1  0  0  0  0
  6  7  1  0  0  0  0
  6 14  1  0  0  0  0
  6 15  1  0  0  0  0
  7 16  1  0  0  0  0
  7 17  1  0  0  0  0
  8 19  1  0  0  0  0
  8 20  1  0  0  0  0
M  END
> <PUBCHEM_COMPOUND_CID>
94263

> <PUBCHEM_CONFORMER_RMSD>
0.4

> <PUBCHEM_CONFORMER_DIVERSEORDER>
1
13
10
3
12
9
6
4
11
5
7
8
2

> <PUBCHEM_MMFF94_PARTIAL_CHARGES>
7
1 -0.68
18 0.36
2 -0.9
21 0.4
3 0.27
7 0.27
8 0.28

> <PUBCHEM_EFFECTIVE_ROTOR_COUNT>
2.2

> <PUBCHEM_PHARMACOPHORE_FEATURES>
5
1 1 acceptor
1 1 donor
1 2 cation
1 2 donor
6 2 3 4 5 6 7 rings

> <PUBCHEM_HEAVY_ATOM_COUNT>
8

> <PUBCHEM_ATOM_DEF_STEREO_COUNT>
0

> <PUBCHEM_ATOM_UDEF_STEREO_COUNT>
1

> <PUBCHEM_BOND_DEF_STEREO_COUNT>
0

> <PUBCHEM_BOND_UDEF_STEREO_COUNT>
0

> <PUBCHEM_ISOTOPIC_ATOM_COUNT>
0

> <PUBCHEM_COMPONENT_COUNT>
1

> <PUBCHEM_CACTVS_TAUTO_COUNT>
1

> <PUBCHEM_CONFORMER_ID>
0001703700000001

> <PUBCHEM_MMFF94_ENERGY>
-1.7388

> <PUBCHEM_FEATURE_SELFOVERLAP>
25.371

> <PUBCHEM_SHAPE_FINGERPRINT>
10857977 72 18335975428453051995
12897270 3 18408884010194404629
18185500 45 18341608174966800870
20096714 4 18412543240773723086
21040471 1 18267020737986080068
23235685 24 18338794627964714384
23552423 10 18043819684137016646
29004967 10 18335703814626261833
5084963 1 18409171016920284809

> <PUBCHEM_SHAPE_MULTIPOLES>
153.79
3.25
1.43
0.65
1.58
0.05
0
0.12
0.05
-0.47
0.01
-0.03
0
0.08

> <PUBCHEM_SHAPE_SELFOVERLAP>
292.19

> <PUBCHEM_SHAPE_VOLUME>
94.3

> <PUBCHEM_COORDINATE_TYPE>
2
5
10

$$$$
