7480
  -OEChem-11012400523D

 20 20  0     0  0  0  0  0  0999 V2000
    3.1200    1.0977    0.1722 O   0  5  0  0  0  0  0  0  0  0  0  0
    3.1201   -1.0975    0.1721 O   0  0  0  0  0  0  0  0  0  0  0  0
    2.5148    0.0000    0.1134 N   0  3  0  0  0  0  0  0  0  0  0  0
   -1.6755    0.0000   -0.2906 C   0  0  0  0  0  0  0  0  0  0  0  0
   -3.1600   -0.0002   -0.4326 C   0  0  0  0  0  0  0  0  0  0  0  0
   -0.9813    1.2080   -0.2239 C   0  0  0  0  0  0  0  0  0  0  0  0
   -0.9813   -1.2080   -0.2238 C   0  0  0  0  0  0  0  0  0  0  0  0
    1.1015   -0.0001   -0.0236 C   0  0  0  0  0  0  0  0  0  0  0  0
   -3.8725    0.0002    0.9175 C   0  0  0  0  0  0  0  0  0  0  0  0
    0.4071    1.2079   -0.0905 C   0  0  0  0  0  0  0  0  0  0  0  0
    0.4072   -1.2082   -0.0903 C   0  0  0  0  0  0  0  0  0  0  0  0
   -3.4806    0.8737   -1.0134 H   0  0  0  0  0  0  0  0  0  0  0  0
   -3.4805   -0.8745   -1.0128 H   0  0  0  0  0  0  0  0  0  0  0  0
   -1.5113    2.1557   -0.2729 H   0  0  0  0  0  0  0  0  0  0  0  0
   -1.5113   -2.1556   -0.2727 H   0  0  0  0  0  0  0  0  0  0  0  0
   -3.6077   -0.8852    1.5054 H   0  0  0  0  0  0  0  0  0  0  0  0
   -4.9574    0.0000    0.7719 H   0  0  0  0  0  0  0  0  0  0  0  0
   -3.6080    0.8861    1.5047 H   0  0  0  0  0  0  0  0  0  0  0  0
    0.9146    2.1680   -0.0410 H   0  0  0  0  0  0  0  0  0  0  0  0
    0.9147   -2.1682   -0.0408 H   0  0  0  0  0  0  0  0  0  0  0  0
  1  3  1  0  0  0  0
  2  3  2  0  0  0  0
  3  8  1  0  0  0  0
  4  5  1  0  0  0  0
  4  6  2  0  0  0  0
  4  7  1  0  0  0  0
  5  9  1  0  0  0  0
  5 12  1  0  0  0  0
  5 13  1  0  0  0  0
  6 10  1  0  0  0  0
  6 14  1  0  0  0  0
  7 11  2  0  0  0  0
  7 15  1  0  0  0  0
  8 10  2  0  0  0  0
  8 11  1  0  0  0  0
  9 16  1  0  0  0  0
  9 17  1  0  0  0  0
  9 18  1  0  0  0  0
 10 19  1  0  0  0  0
 11 20  1  0  0  0  0
M  CHG  2   1  -1   3   1
M  END
> <PUBCHEM_COMPOUND_CID>
7480

> <PUBCHEM_CONFORMER_RMSD>
0.4

> <PUBCHEM_CONFORMER_DIVERSEORDER>
1
2

> <PUBCHEM_MMFF94_PARTIAL_CHARGES>
14
1 -0.52
10 -0.15
11 -0.15
14 0.15
15 0.15
19 0.15
2 -0.52
20 0.15
3 0.91
4 -0.14
5 0.14
6 -0.15
7 -0.15
8 0.13

> <PUBCHEM_EFFECTIVE_ROTOR_COUNT>
2

> <PUBCHEM_PHARMACOPHORE_FEATURES>
5
1 1 acceptor
1 1 anion
1 2 acceptor
1 9 hydrophobe
6 4 6 7 8 10 11 rings

> <PUBCHEM_HEAVY_ATOM_COUNT>
11

> <PUBCHEM_ATOM_DEF_STEREO_COUNT>
0

> <PUBCHEM_ATOM_UDEF_STEREO_COUNT>
0

> <PUBCHEM_BOND_DEF_STEREO_COUNT>
0

> <PUBCHEM_BOND_UDEF_STEREO_COUNT>
0

> <PUBCHEM_ISOTOPIC_ATOM_COUNT>
0

> <PUBCHEM_COMPONENT_COUNT>
1

> <PUBCHEM_CACTVS_TAUTO_COUNT>
1

> <PUBCHEM_CONFORMER_ID>
00001D3800000001

> <PUBCHEM_MMFF94_ENERGY>
27.6471

> <PUBCHEM_FEATURE_SELFOVERLAP>
25.453

> <PUBCHEM_SHAPE_FINGERPRINT>
10219947 1 18410576184496479621
10857977 72 18186237342524195425
11062470 55 12751238103697223475
12032990 46 18335425633989940703
14325111 11 18410571781954671093
16945 1 18410567392429399447
17844478 74 18040155102323814021
19026448 4 16515680039799565039
19026448 5 16558745724121203781
193761 8 17618502078038198167
23235685 24 18413102874991286405
23402655 69 18195223548654553765
23463225 33 18409164377048596710
23552423 10 18189048879497502606
2748010 2 18122620548607036909
369184 2 18411411821696716198
528886 8 18340761628280587707

> <PUBCHEM_SHAPE_MULTIPOLES>
209.66
5.44
1.33
0.72
0.7
0
0.05
0
1.13
-0.46
-0.05
0.42
0
0

> <PUBCHEM_SHAPE_SELFOVERLAP>
432.179

> <PUBCHEM_SHAPE_VOLUME>
121.8

> <PUBCHEM_COORDINATE_TYPE>
2
5
10

$$$$
