69110
  -OEChem-11012400363D

 14 14  0     0  0  0  0  0  0999 V2000
    0.3229    2.4816   -0.3014 Cl  0  0  0  0  0  0  0  0  0  0  0  0
    2.6565   -1.1831   -0.9954 Cl  0  0  0  0  0  0  0  0  0  0  0  0
    2.2612    0.4313    1.0377 O   0  0  0  0  0  0  0  0  0  0  0  0
    0.2375   -0.2186    0.0792 C   0  0  0  0  0  0  0  0  0  0  0  0
   -0.4777    0.9617   -0.1229 C   0  0  0  0  0  0  0  0  0  0  0  0
   -0.4405   -1.4295    0.2202 C   0  0  0  0  0  0  0  0  0  0  0  0
   -1.8708    0.9313   -0.1839 C   0  0  0  0  0  0  0  0  0  0  0  0
   -1.8338   -1.4598    0.1592 C   0  0  0  0  0  0  0  0  0  0  0  0
   -2.5489   -0.2794   -0.0427 C   0  0  0  0  0  0  0  0  0  0  0  0
    1.6936   -0.2357    0.1499 C   0  0  0  0  0  0  0  0  0  0  0  0
    0.1001   -2.3582    0.3840 H   0  0  0  0  0  0  0  0  0  0  0  0
   -2.4432    1.8422   -0.3405 H   0  0  0  0  0  0  0  0  0  0  0  0
   -2.3619   -2.4023    0.2705 H   0  0  0  0  0  0  0  0  0  0  0  0
   -3.6338   -0.3032   -0.0896 H   0  0  0  0  0  0  0  0  0  0  0  0
  1  5  1  0  0  0  0
  2 10  1  0  0  0  0
  3 10  2  0  0  0  0
  4  5  1  0  0  0  0
  4  6  2  0  0  0  0
  4 10  1  0  0  0  0
  5  7  2  0  0  0  0
  6  8  1  0  0  0  0
  6 11  1  0  0  0  0
  7  9  1  0  0  0  0
  7 12  1  0  0  0  0
  8  9  2  0  0  0  0
  8 13  1  0  0  0  0
  9 14  1  0  0  0  0
M  END
> <PUBCHEM_COMPOUND_CID>
69110

> <PUBCHEM_CONFORMER_RMSD>
0.4

> <PUBCHEM_CONFORMER_DIVERSEORDER>
1
2
3
4

> <PUBCHEM_MMFF94_PARTIAL_CHARGES>
14
1 -0.18
10 0.69
11 0.15
12 0.15
13 0.15
14 0.15
2 -0.21
3 -0.57
4 0.09
5 0.18
6 -0.15
7 -0.15
8 -0.15
9 -0.15

> <PUBCHEM_EFFECTIVE_ROTOR_COUNT>
1

> <PUBCHEM_PHARMACOPHORE_FEATURES>
1
6 4 5 6 7 8 9 rings

> <PUBCHEM_HEAVY_ATOM_COUNT>
10

> <PUBCHEM_ATOM_DEF_STEREO_COUNT>
0

> <PUBCHEM_ATOM_UDEF_STEREO_COUNT>
0

> <PUBCHEM_BOND_DEF_STEREO_COUNT>
0

> <PUBCHEM_BOND_UDEF_STEREO_COUNT>
0

> <PUBCHEM_ISOTOPIC_ATOM_COUNT>
0

> <PUBCHEM_COMPONENT_COUNT>
1

> <PUBCHEM_CACTVS_TAUTO_COUNT>
1

> <PUBCHEM_CONFORMER_ID>
00010DF600000001

> <PUBCHEM_MMFF94_ENERGY>
28.2607

> <PUBCHEM_FEATURE_SELFOVERLAP>
5.074

> <PUBCHEM_SHAPE_FINGERPRINT>
10857977 72 18337658815041023465
12423570 1 12607143814884958731
12524768 44 18341888614851040434
12716758 59 18265615377262931510
16945 1 18334010601416913099
20645464 45 18272356569115709186
20645477 70 17905322189374628567
21040471 1 18047184159610886177
22802520 49 18199196083268603662
23552423 10 18261114135493543759
23559900 14 18126004854990241926
241688 4 18338804398751426040
2748010 2 18410851045002014887
29004967 10 18201999966615373034
369184 2 18337378396642247691
5084963 1 18271249330588436418
7364860 26 18125448763060095612

> <PUBCHEM_SHAPE_MULTIPOLES>
203.67
3.47
2.08
0.82
0.88
1.07
0
-1.16
-0.34
-0.12
-0.2
0.44
-0.03
0.43

> <PUBCHEM_SHAPE_SELFOVERLAP>
406.828

> <PUBCHEM_SHAPE_VOLUME>
120.2

> <PUBCHEM_COORDINATE_TYPE>
2
5
10

$$$$
