142678
  -OEChem-11012401073D

 24 25  0     0  0  0  0  0  0999 V2000
    0.6306    0.0004   -1.3403 N   0  0  0  0  0  0  0  0  0  0  0  0
   -0.6306    0.0000   -1.3403 N   0  0  0  0  0  0  0  0  0  0  0  0
    1.2564    0.0001    0.0083 C   0  0  0  0  0  0  0  0  0  0  0  0
   -1.2563   -0.0001    0.0082 C   0  0  0  0  0  0  0  0  0  0  0  0
   -0.7662    1.2615    0.7418 C   0  0  0  0  0  0  0  0  0  0  0  0
    0.7659    1.2612    0.7424 C   0  0  0  0  0  0  0  0  0  0  0  0
   -0.7660   -1.2614    0.7420 C   0  0  0  0  0  0  0  0  0  0  0  0
    0.7662   -1.2615    0.7416 C   0  0  0  0  0  0  0  0  0  0  0  0
    2.7712    0.0001   -0.1520 C   0  0  0  0  0  0  0  0  0  0  0  0
   -2.7713   -0.0001   -0.1519 C   0  0  0  0  0  0  0  0  0  0  0  0
   -1.1276    2.1672    0.2390 H   0  0  0  0  0  0  0  0  0  0  0  0
   -1.1464    1.2917    1.7698 H   0  0  0  0  0  0  0  0  0  0  0  0
   -1.1457   -1.2911    1.7703 H   0  0  0  0  0  0  0  0  0  0  0  0
   -1.1279   -2.1673    0.2400 H   0  0  0  0  0  0  0  0  0  0  0  0
    1.1280    2.1673    0.2405 H   0  0  0  0  0  0  0  0  0  0  0  0
    1.1455    1.2906    1.7706 H   0  0  0  0  0  0  0  0  0  0  0  0
    1.1464   -1.2919    1.7696 H   0  0  0  0  0  0  0  0  0  0  0  0
    1.1278   -2.1672    0.2388 H   0  0  0  0  0  0  0  0  0  0  0  0
    3.2725   -0.0002    0.8217 H   0  0  0  0  0  0  0  0  0  0  0  0
    3.1091   -0.8816   -0.7081 H   0  0  0  0  0  0  0  0  0  0  0  0
    3.1092    0.8820   -0.7076 H   0  0  0  0  0  0  0  0  0  0  0  0
   -3.2725    0.0000    0.8219 H   0  0  0  0  0  0  0  0  0  0  0  0
   -3.1093    0.8817   -0.7077 H   0  0  0  0  0  0  0  0  0  0  0  0
   -3.1093   -0.8819   -0.7077 H   0  0  0  0  0  0  0  0  0  0  0  0
  1  2  2  0  0  0  0
  1  3  1  0  0  0  0
  2  4  1  0  0  0  0
  3  6  1  0  0  0  0
  3  8  1  0  0  0  0
  3  9  1  0  0  0  0
  4  5  1  0  0  0  0
  4  7  1  0  0  0  0
  4 10  1  0  0  0  0
  5  6  1  0  0  0  0
  5 11  1  0  0  0  0
  5 12  1  0  0  0  0
  6 15  1  0  0  0  0
  6 16  1  0  0  0  0
  7  8  1  0  0  0  0
  7 13  1  0  0  0  0
  7 14  1  0  0  0  0
  8 17  1  0  0  0  0
  8 18  1  0  0  0  0
  9 19  1  0  0  0  0
  9 20  1  0  0  0  0
  9 21  1  0  0  0  0
 10 22  1  0  0  0  0
 10 23  1  0  0  0  0
 10 24  1  0  0  0  0
M  END
> <PUBCHEM_COMPOUND_CID>
142678

> <PUBCHEM_CONFORMER_RMSD>
0.4

> <PUBCHEM_CONFORMER_DIVERSEORDER>
1

> <PUBCHEM_MMFF94_PARTIAL_CHARGES>
4
1 -0.25
2 -0.25
3 0.25
4 0.25

> <PUBCHEM_EFFECTIVE_ROTOR_COUNT>
0.8

> <PUBCHEM_PHARMACOPHORE_FEATURES>
1
8 1 2 3 4 5 6 7 8 rings

> <PUBCHEM_HEAVY_ATOM_COUNT>
10

> <PUBCHEM_ATOM_DEF_STEREO_COUNT>
0

> <PUBCHEM_ATOM_UDEF_STEREO_COUNT>
0

> <PUBCHEM_BOND_DEF_STEREO_COUNT>
0

> <PUBCHEM_BOND_UDEF_STEREO_COUNT>
0

> <PUBCHEM_ISOTOPIC_ATOM_COUNT>
0

> <PUBCHEM_COMPONENT_COUNT>
1

> <PUBCHEM_CACTVS_TAUTO_COUNT>
1

> <PUBCHEM_CONFORMER_ID>
00022D5600000001

> <PUBCHEM_MMFF94_ENERGY>
29.0676

> <PUBCHEM_FEATURE_SELFOVERLAP>
5.074

> <PUBCHEM_SHAPE_FINGERPRINT>
12423570 1 9187273889020099334
13024252 1 16298390171241714448
137420 1 8309687370345617996
16945 1 18410856559639789712
21040471 1 18040996275768517531
23235685 24 17821725044091379375
29004967 10 17775294875579270954
369184 2 18413105061335323026
5084963 1 17822010912656155555
528886 8 17240480325253892503
68250623 7 17699018283663875862

> <PUBCHEM_SHAPE_MULTIPOLES>
195.83
2.86
1.27
1.12
0
0
0.25
0
0.27
0
-0.47
0
0
0

> <PUBCHEM_SHAPE_SELFOVERLAP>
408.434

> <PUBCHEM_SHAPE_VOLUME>
110.9

> <PUBCHEM_COORDINATE_TYPE>
2
5
10

$$$$
