138216
  -OEChem-11012401053D

 14 15  0     0  0  0  0  0  0999 V2000
   -0.5250    0.0005   -0.4828 N   0  0  0  0  0  0  0  0  0  0  0  0
    0.5250   -0.0005    0.4828 N   0  0  0  0  0  0  0  0  0  0  0  0
   -1.6420    0.7501    0.0774 C   0  0  0  0  0  0  0  0  0  0  0  0
   -1.6413   -0.7506    0.0770 C   0  0  0  0  0  0  0  0  0  0  0  0
    1.6420   -0.7502   -0.0774 C   0  0  0  0  0  0  0  0  0  0  0  0
    1.6413    0.7507   -0.0770 C   0  0  0  0  0  0  0  0  0  0  0  0
   -2.2737    1.2551   -0.6420 H   0  0  0  0  0  0  0  0  0  0  0  0
   -1.5159    1.2668    1.0210 H   0  0  0  0  0  0  0  0  0  0  0  0
   -1.5151   -1.2675    1.0204 H   0  0  0  0  0  0  0  0  0  0  0  0
   -2.2725   -1.2556   -0.6428 H   0  0  0  0  0  0  0  0  0  0  0  0
    1.5159   -1.2669   -1.0211 H   0  0  0  0  0  0  0  0  0  0  0  0
    2.2737   -1.2550    0.6420 H   0  0  0  0  0  0  0  0  0  0  0  0
    2.2725    1.2557    0.6427 H   0  0  0  0  0  0  0  0  0  0  0  0
    1.5149    1.2676   -1.0205 H   0  0  0  0  0  0  0  0  0  0  0  0
  1  2  1  0  0  0  0
  1  3  1  0  0  0  0
  1  4  1  0  0  0  0
  2  5  1  0  0  0  0
  2  6  1  0  0  0  0
  3  4  1  0  0  0  0
  3  7  1  0  0  0  0
  3  8  1  0  0  0  0
  4  9  1  0  0  0  0
  4 10  1  0  0  0  0
  5  6  1  0  0  0  0
  5 11  1  0  0  0  0
  5 12  1  0  0  0  0
  6 13  1  0  0  0  0
  6 14  1  0  0  0  0
M  END
> <PUBCHEM_COMPOUND_CID>
138216

> <PUBCHEM_CONFORMER_RMSD>
0.4

> <PUBCHEM_CONFORMER_DIVERSEORDER>
1

> <PUBCHEM_MMFF94_PARTIAL_CHARGES>
14
1 -0.32
10 0.1
11 0.1
12 0.1
13 0.1
14 0.1
2 -0.32
3 -0.04
4 -0.04
5 -0.04
6 -0.04
7 0.1
8 0.1
9 0.1

> <PUBCHEM_EFFECTIVE_ROTOR_COUNT>
2.2

> <PUBCHEM_PHARMACOPHORE_FEATURES>
0

> <PUBCHEM_HEAVY_ATOM_COUNT>
6

> <PUBCHEM_ATOM_DEF_STEREO_COUNT>
0

> <PUBCHEM_ATOM_UDEF_STEREO_COUNT>
0

> <PUBCHEM_BOND_DEF_STEREO_COUNT>
0

> <PUBCHEM_BOND_UDEF_STEREO_COUNT>
0

> <PUBCHEM_ISOTOPIC_ATOM_COUNT>
0

> <PUBCHEM_COMPONENT_COUNT>
1

> <PUBCHEM_CACTVS_TAUTO_COUNT>
1

> <PUBCHEM_CONFORMER_ID>
00021BE800000001

> <PUBCHEM_MMFF94_ENERGY>
16.3727

> <PUBCHEM_FEATURE_SELFOVERLAP>
0

> <PUBCHEM_SHAPE_FINGERPRINT>
139733 1 9295289447455155586
20096714 4 18410012126162102920
21040471 1 18339922589334409873
24536 1 18338503196974035365
29004967 10 18343023280976083906
5460574 1 9151176454107561986

> <PUBCHEM_SHAPE_MULTIPOLES>
113.52
2.62
1
0.66
0
0
0
0
0
0
0
0
0
0

> <PUBCHEM_SHAPE_SELFOVERLAP>
217.714

> <PUBCHEM_SHAPE_VOLUME>
72.6

> <PUBCHEM_COORDINATE_TYPE>
2
5
10

$$$$
