221260
  -OEChem-11012400383D

 42 41  0     0  0  0  0  0  0999 V2000
   -1.0806   -0.6073    0.2985 O   0  0  0  0  0  0  0  0  0  0  0  0
    1.0906   -0.4786   -0.7376 O   0  0  0  0  0  0  0  0  0  0  0  0
   -1.5302    0.4450   -0.6074 O   0  0  0  0  0  0  0  0  0  0  0  0
    1.6102    0.1004    0.4975 O   0  0  0  0  0  0  0  0  0  0  0  0
   -0.0243   -1.3140   -0.3723 C   0  0  0  0  0  0  0  0  0  0  0  0
   -2.5691    1.1172    0.0886 C   0  0  0  0  0  0  0  0  0  0  0  0
    2.7028    0.9134    0.0967 C   0  0  0  0  0  0  0  0  0  0  0  0
    0.4794   -2.4256    0.5743 C   0  0  0  0  0  0  0  0  0  0  0  0
   -0.5587   -1.9142   -1.6779 C   0  0  0  0  0  0  0  0  0  0  0  0
   -1.9961    1.6862    1.3859 C   0  0  0  0  0  0  0  0  0  0  0  0
   -3.0754    2.2405   -0.8135 C   0  0  0  0  0  0  0  0  0  0  0  0
   -3.6865    0.1164    0.3794 C   0  0  0  0  0  0  0  0  0  0  0  0
    2.1857    1.9841   -0.8631 C   0  0  0  0  0  0  0  0  0  0  0  0
    3.2846    1.5549    1.3545 C   0  0  0  0  0  0  0  0  0  0  0  0
    3.7440    0.0273   -0.5855 C   0  0  0  0  0  0  0  0  0  0  0  0
   -0.5765   -3.4458    0.9817 C   0  0  0  0  0  0  0  0  0  0  0  0
    0.8577   -1.9746    1.5002 H   0  0  0  0  0  0  0  0  0  0  0  0
    1.3343   -2.9422    0.1202 H   0  0  0  0  0  0  0  0  0  0  0  0
   -0.7483   -1.1307   -2.4209 H   0  0  0  0  0  0  0  0  0  0  0  0
    0.1734   -2.5933   -2.1284 H   0  0  0  0  0  0  0  0  0  0  0  0
   -1.5026   -2.4470   -1.5261 H   0  0  0  0  0  0  0  0  0  0  0  0
   -1.1044    2.2913    1.1848 H   0  0  0  0  0  0  0  0  0  0  0  0
   -2.7309    2.3160    1.8992 H   0  0  0  0  0  0  0  0  0  0  0  0
   -1.6907    0.9033    2.0888 H   0  0  0  0  0  0  0  0  0  0  0  0
   -3.4432    1.8398   -1.7652 H   0  0  0  0  0  0  0  0  0  0  0  0
   -2.2645    2.9345   -1.0631 H   0  0  0  0  0  0  0  0  0  0  0  0
   -3.8837    2.8075   -0.3405 H   0  0  0  0  0  0  0  0  0  0  0  0
   -3.3762   -0.6667    1.0801 H   0  0  0  0  0  0  0  0  0  0  0  0
   -4.5599    0.6150    0.8136 H   0  0  0  0  0  0  0  0  0  0  0  0
   -4.0015   -0.3925   -0.5389 H   0  0  0  0  0  0  0  0  0  0  0  0
    1.3405    2.5258   -0.4227 H   0  0  0  0  0  0  0  0  0  0  0  0
    2.9704    2.7091   -1.1055 H   0  0  0  0  0  0  0  0  0  0  0  0
    1.8283    1.5628   -1.8091 H   0  0  0  0  0  0  0  0  0  0  0  0
    3.6129    0.7887    2.0662 H   0  0  0  0  0  0  0  0  0  0  0  0
    2.5263    2.1534    1.8725 H   0  0  0  0  0  0  0  0  0  0  0  0
    4.1375    2.2012    1.1230 H   0  0  0  0  0  0  0  0  0  0  0  0
    3.3819   -0.3945   -1.5295 H   0  0  0  0  0  0  0  0  0  0  0  0
    4.6565    0.5908   -0.8090 H   0  0  0  0  0  0  0  0  0  0  0  0
    4.0117   -0.8215    0.0544 H   0  0  0  0  0  0  0  0  0  0  0  0
   -1.4413   -2.9627    1.4467 H   0  0  0  0  0  0  0  0  0  0  0  0
   -0.9230   -4.0286    0.1235 H   0  0  0  0  0  0  0  0  0  0  0  0
   -0.1551   -4.1488    1.7079 H   0  0  0  0  0  0  0  0  0  0  0  0
  1  3  1  0  0  0  0
  1  5  1  0  0  0  0
  2  4  1  0  0  0  0
  2  5  1  0  0  0  0
  3  6  1  0  0  0  0
  4  7  1  0  0  0  0
  5  8  1  0  0  0  0
  5  9  1  0  0  0  0
  6 10  1  0  0  0  0
  6 11  1  0  0  0  0
  6 12  1  0  0  0  0
  7 13  1  0  0  0  0
  7 14  1  0  0  0  0
  7 15  1  0  0  0  0
  8 16  1  0  0  0  0
  8 17  1  0  0  0  0
  8 18  1  0  0  0  0
  9 19  1  0  0  0  0
  9 20  1  0  0  0  0
  9 21  1  0  0  0  0
 10 22  1  0  0  0  0
 10 23  1  0  0  0  0
 10 24  1  0  0  0  0
 11 25  1  0  0  0  0
 11 26  1  0  0  0  0
 11 27  1  0  0  0  0
 12 28  1  0  0  0  0
 12 29  1  0  0  0  0
 12 30  1  0  0  0  0
 13 31  1  0  0  0  0
 13 32  1  0  0  0  0
 13 33  1  0  0  0  0
 14 34  1  0  0  0  0
 14 35  1  0  0  0  0
 14 36  1  0  0  0  0
 15 37  1  0  0  0  0
 15 38  1  0  0  0  0
 15 39  1  0  0  0  0
 16 40  1  0  0  0  0
 16 41  1  0  0  0  0
 16 42  1  0  0  0  0
M  END
> <PUBCHEM_COMPOUND_CID>
221260

> <PUBCHEM_CONFORMER_RMSD>
0.8

> <PUBCHEM_CONFORMER_DIVERSEORDER>
1
7
18
25
9
22
2
15
8
24
17
21
11
16
3
6
19
20
23
5
10
4
14
12
13

> <PUBCHEM_MMFF94_PARTIAL_CHARGES>
7
1 -0.28
2 -0.28
3 -0.28
4 -0.28
5 0.56
6 0.28
7 0.28

> <PUBCHEM_EFFECTIVE_ROTOR_COUNT>
7

> <PUBCHEM_PHARMACOPHORE_FEATURES>
3
1 16 hydrophobe
4 6 10 11 12 hydrophobe
4 7 13 14 15 hydrophobe

> <PUBCHEM_HEAVY_ATOM_COUNT>
16

> <PUBCHEM_ATOM_DEF_STEREO_COUNT>
0

> <PUBCHEM_ATOM_UDEF_STEREO_COUNT>
0

> <PUBCHEM_BOND_DEF_STEREO_COUNT>
0

> <PUBCHEM_BOND_UDEF_STEREO_COUNT>
0

> <PUBCHEM_ISOTOPIC_ATOM_COUNT>
0

> <PUBCHEM_COMPONENT_COUNT>
1

> <PUBCHEM_CACTVS_TAUTO_COUNT>
1

> <PUBCHEM_CONFORMER_ID>
0003604C00000001

> <PUBCHEM_MMFF94_ENERGY>
34.388

> <PUBCHEM_FEATURE_SELFOVERLAP>
15.223

> <PUBCHEM_SHAPE_FINGERPRINT>
10382601 240 17835263154744723880
10922049 32 18412553097497125999
11132069 177 18270122439045204473
13275264 69 17538288727552470874
13294875 104 18127389203973164674
13538477 17 17898008177447727060
136203 1 18046351004612129538
13764800 53 18198068181864660208
14787075 74 18198905997415051883
15295992 7 17988652938286021570
15775835 57 18341894073659807469
15906896 17 18267583692002860583
16945 1 18190179168586816398
17980427 23 17051018846908126777
18186145 218 18060422395668696584
20510252 161 18194967576132998746
20645476 183 18187649136813116736
20645477 56 18129942415980967624
20671657 1 18197210347925473003
21028194 46 18342181063400802508
21069387 34 14274029891465915163
21524375 3 18342179951014705527
21731228 192 18409446994375682594
23419403 2 17122327892439509287
23557571 272 17414718971214831988
23558518 356 18338509858700933502
25 1 18129111038897496348
305870 269 18262797354635728427
6333272 397 18334581269342123793
7364860 26 18050568443690689943
81228 2 17979630457226579939
81539 233 18262516983776771415
9981440 41 17557397059138679960

> <PUBCHEM_SHAPE_MULTIPOLES>
305.8
5.75
3.29
1.32
1.02
2.41
0.02
-4.51
-0.36
-0.84
-0.51
0.06
0.05
0.29

> <PUBCHEM_SHAPE_SELFOVERLAP>
573.077

> <PUBCHEM_SHAPE_VOLUME>
194.7

> <PUBCHEM_COORDINATE_TYPE>
2
5
10

$$$$
