15285
  -OEChem-11012400423D

 19 19  0     0  0  0  0  0  0999 V2000
   -2.7331    1.0568    0.0002 O   0  0  0  0  0  0  0  0  0  0  0  0
    1.8875   -1.9525   -0.0001 O   0  0  0  0  0  0  0  0  0  0  0  0
    2.1012    2.1215   -0.0007 O   0  5  0  0  0  0  0  0  0  0  0  0
    3.1302    0.1823    0.0002 O   0  0  0  0  0  0  0  0  0  0  0  0
    2.0804    0.8679   -0.0002 N   0  3  0  0  0  0  0  0  0  0  0  0
    0.8243    0.2014    0.0005 C   0  0  0  0  0  0  0  0  0  0  0  0
   -1.5889    0.3196    0.0002 C   0  0  0  0  0  0  0  0  0  0  0  0
   -0.3482    0.9571    0.0006 C   0  0  0  0  0  0  0  0  0  0  0  0
    0.7559   -1.1919    0.0001 C   0  0  0  0  0  0  0  0  0  0  0  0
   -1.6573   -1.0735   -0.0003 C   0  0  0  0  0  0  0  0  0  0  0  0
   -0.4850   -1.8292   -0.0002 C   0  0  0  0  0  0  0  0  0  0  0  0
   -3.9670    0.3405   -0.0003 C   0  0  0  0  0  0  0  0  0  0  0  0
   -0.3301    2.0445    0.0008 H   0  0  0  0  0  0  0  0  0  0  0  0
   -2.5868   -1.6327   -0.0007 H   0  0  0  0  0  0  0  0  0  0  0  0
   -0.5525   -2.9140   -0.0006 H   0  0  0  0  0  0  0  0  0  0  0  0
   -4.0846   -0.2581   -0.9101 H   0  0  0  0  0  0  0  0  0  0  0  0
   -4.7718    1.0830   -0.0003 H   0  0  0  0  0  0  0  0  0  0  0  0
   -4.0850   -0.2586    0.9090 H   0  0  0  0  0  0  0  0  0  0  0  0
    1.6392   -2.8928   -0.0004 H   0  0  0  0  0  0  0  0  0  0  0  0
  1  7  1  0  0  0  0
  1 12  1  0  0  0  0
  2  9  1  0  0  0  0
  2 19  1  0  0  0  0
  3  5  1  0  0  0  0
  4  5  2  0  0  0  0
  5  6  1  0  0  0  0
  6  8  1  0  0  0  0
  6  9  2  0  0  0  0
  7  8  2  0  0  0  0
  7 10  1  0  0  0  0
  8 13  1  0  0  0  0
  9 11  1  0  0  0  0
 10 11  2  0  0  0  0
 10 14  1  0  0  0  0
 11 15  1  0  0  0  0
 12 16  1  0  0  0  0
 12 17  1  0  0  0  0
 12 18  1  0  0  0  0
M  CHG  2   3  -1   5   1
M  END
> <PUBCHEM_COMPOUND_CID>
15285

> <PUBCHEM_CONFORMER_RMSD>
0.6

> <PUBCHEM_CONFORMER_DIVERSEORDER>
1
2

> <PUBCHEM_MMFF94_PARTIAL_CHARGES>
16
1 -0.36
10 -0.15
11 -0.15
12 0.28
13 0.15
14 0.15
15 0.15
19 0.45
2 -0.53
3 -0.52
4 -0.52
5 0.91
6 0.13
7 0.08
8 -0.15
9 0.08

> <PUBCHEM_EFFECTIVE_ROTOR_COUNT>
2

> <PUBCHEM_PHARMACOPHORE_FEATURES>
6
1 1 acceptor
1 2 donor
1 3 acceptor
1 3 anion
1 4 acceptor
6 6 7 8 9 10 11 rings

> <PUBCHEM_HEAVY_ATOM_COUNT>
12

> <PUBCHEM_ATOM_DEF_STEREO_COUNT>
0

> <PUBCHEM_ATOM_UDEF_STEREO_COUNT>
0

> <PUBCHEM_BOND_DEF_STEREO_COUNT>
0

> <PUBCHEM_BOND_UDEF_STEREO_COUNT>
0

> <PUBCHEM_ISOTOPIC_ATOM_COUNT>
0

> <PUBCHEM_COMPONENT_COUNT>
1

> <PUBCHEM_CACTVS_TAUTO_COUNT>
4

> <PUBCHEM_CONFORMER_ID>
00003BB500000001

> <PUBCHEM_MMFF94_ENERGY>
45.0217

> <PUBCHEM_FEATURE_SELFOVERLAP>
30.527

> <PUBCHEM_SHAPE_FINGERPRINT>
11471102 20 18338511920564349109
13380535 21 18337685186346221755
13380535 76 18410290328468887475
14325111 11 18410856542998094497
14897335 6 18412819205286371951
15775835 57 18335143124021011860
16945 1 18410575071783471270
193761 8 18338517563750884487
20645477 70 18267860593672565095
21040471 1 18410574032422530114
21501502 16 18411131476423420567
23235685 24 18410287025607167433
23402655 69 18341601574440921837
23552423 10 18336264634413333638
23559900 14 18271256006218179348
241688 4 17187853017160568147
2748010 2 18194687196488843500
5084963 1 18058162822064172691
528862 383 18334851671708672131
528886 8 18411132549948557642
53812653 166 18343016722323665712
63268167 104 18340208488206472465
7364860 26 18271243829020459166

> <PUBCHEM_SHAPE_MULTIPOLES>
218.5
4.69
1.93
0.58
2.35
0.31
0
-1.51
0
-0.89
0
0.06
0.02
0

> <PUBCHEM_SHAPE_SELFOVERLAP>
459.1

> <PUBCHEM_SHAPE_VOLUME>
123.9

> <PUBCHEM_COORDINATE_TYPE>
2
5
10

$$$$
