143219
  -OEChem-11012400463D

 46 47  0     0  0  0  0  0  0999 V2000
   -0.0227   -0.4647    0.5709 C   0  0  0  0  0  0  0  0  0  0  0  0
   -1.3026    0.3564    0.4255 C   0  0  0  0  0  0  0  0  0  0  0  0
    1.1608    0.3172    0.0054 C   0  0  0  0  0  0  0  0  0  0  0  0
   -1.6121    0.6197   -1.0544 C   0  0  0  0  0  0  0  0  0  0  0  0
   -2.4798   -0.3485    1.1128 C   0  0  0  0  0  0  0  0  0  0  0  0
    1.3162    1.6714    0.7015 C   0  0  0  0  0  0  0  0  0  0  0  0
    2.4576   -0.5053    0.1059 C   0  0  0  0  0  0  0  0  0  0  0  0
   -0.1981   -1.8359   -0.1100 C   0  0  0  0  0  0  0  0  0  0  0  0
   -2.9167    1.3941   -1.2283 C   0  0  0  0  0  0  0  0  0  0  0  0
   -3.7830    0.4273    0.9352 C   0  0  0  0  0  0  0  0  0  0  0  0
    2.4258    2.5145    0.0670 C   0  0  0  0  0  0  0  0  0  0  0  0
    3.7274    0.3502    0.1271 C   0  0  0  0  0  0  0  0  0  0  0  0
   -4.0827    0.6949   -0.5364 C   0  0  0  0  0  0  0  0  0  0  0  0
    3.5333    1.6828   -0.5819 C   0  0  0  0  0  0  0  0  0  0  0  0
    1.0155   -2.7558    0.0435 C   0  0  0  0  0  0  0  0  0  0  0  0
    0.7610   -4.1183   -0.5837 C   0  0  0  0  0  0  0  0  0  0  0  0
    0.1545   -0.6414    1.6415 H   0  0  0  0  0  0  0  0  0  0  0  0
   -1.2190    1.3149    0.9447 H   0  0  0  0  0  0  0  0  0  0  0  0
    1.0105    0.4999   -1.0653 H   0  0  0  0  0  0  0  0  0  0  0  0
   -1.7199   -0.3065   -1.6257 H   0  0  0  0  0  0  0  0  0  0  0  0
   -0.8298    1.2132   -1.5353 H   0  0  0  0  0  0  0  0  0  0  0  0
   -2.2737   -0.4723    2.1826 H   0  0  0  0  0  0  0  0  0  0  0  0
   -2.6635   -1.3452    0.7035 H   0  0  0  0  0  0  0  0  0  0  0  0
    1.5451    1.5127    1.7634 H   0  0  0  0  0  0  0  0  0  0  0  0
    0.4195    2.2924    0.6642 H   0  0  0  0  0  0  0  0  0  0  0  0
    2.5921   -1.0041   -0.8562 H   0  0  0  0  0  0  0  0  0  0  0  0
    2.5154   -1.1520    0.9832 H   0  0  0  0  0  0  0  0  0  0  0  0
   -0.3763   -1.7308   -1.1843 H   0  0  0  0  0  0  0  0  0  0  0  0
   -1.0472   -2.3815    0.3076 H   0  0  0  0  0  0  0  0  0  0  0  0
   -3.1385    1.5109   -2.2953 H   0  0  0  0  0  0  0  0  0  0  0  0
   -2.7996    2.4036   -0.8150 H   0  0  0  0  0  0  0  0  0  0  0  0
   -3.7162    1.3809    1.4735 H   0  0  0  0  0  0  0  0  0  0  0  0
   -4.6110   -0.1334    1.3838 H   0  0  0  0  0  0  0  0  0  0  0  0
    2.8550    3.1662    0.8378 H   0  0  0  0  0  0  0  0  0  0  0  0
    2.0000    3.1810   -0.6931 H   0  0  0  0  0  0  0  0  0  0  0  0
    4.5624   -0.2025   -0.3197 H   0  0  0  0  0  0  0  0  0  0  0  0
    4.0108    0.5451    1.1697 H   0  0  0  0  0  0  0  0  0  0  0  0
   -4.9854    1.3100   -0.6230 H   0  0  0  0  0  0  0  0  0  0  0  0
   -4.2927   -0.2543   -1.0447 H   0  0  0  0  0  0  0  0  0  0  0  0
    3.2828    1.4986   -1.6343 H   0  0  0  0  0  0  0  0  0  0  0  0
    4.4689    2.2536   -0.5808 H   0  0  0  0  0  0  0  0  0  0  0  0
    1.2717   -2.8985    1.0984 H   0  0  0  0  0  0  0  0  0  0  0  0
    1.8847   -2.5134   -0.5367 H   0  0  0  0  0  0  0  0  0  0  0  0
   -0.0883   -4.6159   -0.1039 H   0  0  0  0  0  0  0  0  0  0  0  0
    0.5435   -4.0300   -1.6536 H   0  0  0  0  0  0  0  0  0  0  0  0
    1.6362   -4.7665   -0.4669 H   0  0  0  0  0  0  0  0  0  0  0  0
  1  2  1  0  0  0  0
  1  3  1  0  0  0  0
  1  8  1  0  0  0  0
  1 17  1  0  0  0  0
  2  4  1  0  0  0  0
  2  5  1  0  0  0  0
  2 18  1  0  0  0  0
  3  6  1  0  0  0  0
  3  7  1  0  0  0  0
  3 19  1  0  0  0  0
  4  9  1  0  0  0  0
  4 20  1  0  0  0  0
  4 21  1  0  0  0  0
  5 10  1  0  0  0  0
  5 22  1  0  0  0  0
  5 23  1  0  0  0  0
  6 11  1  0  0  0  0
  6 24  1  0  0  0  0
  6 25  1  0  0  0  0
  7 12  1  0  0  0  0
  7 26  1  0  0  0  0
  7 27  1  0  0  0  0
  8 15  1  0  0  0  0
  8 28  1  0  0  0  0
  8 29  1  0  0  0  0
  9 13  1  0  0  0  0
  9 30  1  0  0  0  0
  9 31  1  0  0  0  0
 10 13  1  0  0  0  0
 10 32  1  0  0  0  0
 10 33  1  0  0  0  0
 11 14  1  0  0  0  0
 11 34  1  0  0  0  0
 11 35  1  0  0  0  0
 12 14  1  0  0  0  0
 12 36  1  0  0  0  0
 12 37  1  0  0  0  0
 13 38  1  0  0  0  0
 13 39  1  0  0  0  0
 14 40  1  0  0  0  0
 14 41  1  0  0  0  0
 15 16  1  0  0  0  0
 15 42  1  0  0  0  0
 15 43  1  0  0  0  0
 16 44  1  0  0  0  0
 16 45  1  0  0  0  0
 16 46  1  0  0  0  0
M  END
> <PUBCHEM_COMPOUND_CID>
143219

> <PUBCHEM_CONFORMER_RMSD>
0.8

> <PUBCHEM_CONFORMER_DIVERSEORDER>
1
2

> <PUBCHEM_MMFF94_PARTIAL_CHARGES>
0

> <PUBCHEM_EFFECTIVE_ROTOR_COUNT>
6.4

> <PUBCHEM_PHARMACOPHORE_FEATURES>
3
1 16 hydrophobe
6 2 4 5 9 10 13 rings
6 3 6 7 11 12 14 rings

> <PUBCHEM_HEAVY_ATOM_COUNT>
16

> <PUBCHEM_ATOM_DEF_STEREO_COUNT>
0

> <PUBCHEM_ATOM_UDEF_STEREO_COUNT>
0

> <PUBCHEM_BOND_DEF_STEREO_COUNT>
0

> <PUBCHEM_BOND_UDEF_STEREO_COUNT>
0

> <PUBCHEM_ISOTOPIC_ATOM_COUNT>
0

> <PUBCHEM_COMPONENT_COUNT>
1

> <PUBCHEM_CACTVS_TAUTO_COUNT>
1

> <PUBCHEM_CONFORMER_ID>
00022F7300000001

> <PUBCHEM_MMFF94_ENERGY>
49.4119

> <PUBCHEM_FEATURE_SELFOVERLAP>
15.223

> <PUBCHEM_SHAPE_FINGERPRINT>
1 1 18410572868549845966
10608611 8 18114457856156253885
107287 299 18334857186726034057
10871710 139 16746515101480708300
11031198 65 18410291376477590765
11322862 65 18195536015244645278
11471102 20 18410854339231647704
116883 192 17403166002745626340
12119455 92 18333726939985383249
12173636 292 18268993253219777309
12500047 106 18195807590722710560
12553582 1 17475246695223966307
12592029 89 18411697664760954275
12730499 353 18408888417416380201
13464514 151 17973720281553498317
13681431 1 17979347564895051706
15219456 202 18187366463645934507
15309172 13 18410861000762736785
15502722 9 18339077064940337463
15775835 57 18335986466492778100
16945 1 18340206288988037995
17134986 127 18336823182178147012
1813 80 17268923372499605047
18175812 5 17967814968109845513
18186145 218 18343306989256900888
18219364 16 18410022056168689705
18915476 22 18337390423088668703
19049666 15 17971754368001117613
19591789 44 18339364191930713026
19786989 88 18409166597704768971
204376 136 18411140272299742729
20645477 56 18192712461111424080
20645477 70 18335976463761859127
20671657 53 17764872394564999047
21041028 32 17764595321929260241
21499 59 18411698811501099133
21501502 16 18050283966863875976
21524375 3 18334574693610232226
21639500 275 18339914948608663325
22802520 49 17971754363542685205
23114952 82 18117840988788488661
23419403 2 17612362576728606635
23526113 38 17827633652260212307
23557571 272 17530977860776577665
23558518 356 17686615054327292160
23598291 2 17630326337958257327
238 59 18046875287253988517
25 1 18410573968019282136
257057 1 17329987997917279218
2748010 2 18337117885437669610
3060560 45 18411413995182322294
458136 41 18339376205217600883
633830 44 17988098736928183229
69090 78 18337106894590030800
7364860 26 18266740186221863087
77492 1 17418089876170295777
81228 2 17472690802950582426
81539 233 18335422339644607630
8272917 22 18269560446890634517
9925002 15 17324937339704342517

> <PUBCHEM_SHAPE_MULTIPOLES>
329.27
6.43
3.35
1.04
2.39
4.28
-0.05
-4.08
-0.3
-2.55
-0.73
0.74
-0.18
0.44

> <PUBCHEM_SHAPE_SELFOVERLAP>
651.628

> <PUBCHEM_SHAPE_VOLUME>
193.3

> <PUBCHEM_COORDINATE_TYPE>
2
5
10

$$$$
