123194
  -OEChem-11012400503D

 30 30  0     0  0  0  0  0  0999 V2000
   -2.0455   -1.4001   -0.6529 O   0  5  0  0  0  0  0  0  0  0  0  0
    4.9160    0.8227   -0.2613 O   0  5  0  0  0  0  0  0  0  0  0  0
    4.6400   -1.3322    0.0823 O   0  0  0  0  0  0  0  0  0  0  0  0
   -2.3402   -0.2755   -0.1263 N   0  3  0  0  0  0  0  0  0  0  0  0
    4.1812   -0.1732   -0.0575 N   0  3  0  0  0  0  0  0  0  0  0  0
   -3.7646    0.0575    0.0168 C   0  0  0  0  0  0  0  0  0  0  0  0
   -4.5540   -1.1182   -0.5445 C   0  0  0  0  0  0  0  0  0  0  0  0
   -4.0094    0.2564    1.5064 C   0  0  0  0  0  0  0  0  0  0  0  0
   -3.9945    1.3337   -0.7821 C   0  0  0  0  0  0  0  0  0  0  0  0
   -1.4224    0.5908    0.2502 C   0  0  0  0  0  0  0  0  0  0  0  0
    0.0311    0.3927    0.1704 C   0  0  0  0  0  0  0  0  0  0  0  0
    0.8572    1.4842   -0.0559 C   0  0  0  0  0  0  0  0  0  0  0  0
    0.5556   -0.8829    0.3222 C   0  0  0  0  0  0  0  0  0  0  0  0
    2.2373    1.2962   -0.1324 C   0  0  0  0  0  0  0  0  0  0  0  0
    1.9357   -1.0709    0.2459 C   0  0  0  0  0  0  0  0  0  0  0  0
    2.7765    0.0187    0.0185 C   0  0  0  0  0  0  0  0  0  0  0  0
   -4.3598   -2.0500    0.0005 H   0  0  0  0  0  0  0  0  0  0  0  0
   -5.6302   -0.9241   -0.4611 H   0  0  0  0  0  0  0  0  0  0  0  0
   -4.3469   -1.2907   -1.6076 H   0  0  0  0  0  0  0  0  0  0  0  0
   -3.4894    1.1274    1.9186 H   0  0  0  0  0  0  0  0  0  0  0  0
   -3.6923   -0.6194    2.0851 H   0  0  0  0  0  0  0  0  0  0  0  0
   -5.0778    0.4081    1.6995 H   0  0  0  0  0  0  0  0  0  0  0  0
   -3.6308    1.2349   -1.8118 H   0  0  0  0  0  0  0  0  0  0  0  0
   -5.0664    1.5591   -0.8346 H   0  0  0  0  0  0  0  0  0  0  0  0
   -3.5164    2.2164   -0.3456 H   0  0  0  0  0  0  0  0  0  0  0  0
   -1.7536    1.5656    0.6398 H   0  0  0  0  0  0  0  0  0  0  0  0
    0.4468    2.4830   -0.1762 H   0  0  0  0  0  0  0  0  0  0  0  0
   -0.0567   -1.7483    0.5519 H   0  0  0  0  0  0  0  0  0  0  0  0
    2.8612    2.1683   -0.3108 H   0  0  0  0  0  0  0  0  0  0  0  0
    2.3212   -2.0785    0.3800 H   0  0  0  0  0  0  0  0  0  0  0  0
  1  4  1  0  0  0  0
  2  5  1  0  0  0  0
  3  5  2  0  0  0  0
  4  6  1  0  0  0  0
  4 10  2  3  0  0  0
  5 16  1  0  0  0  0
  6  7  1  0  0  0  0
  6  8  1  0  0  0  0
  6  9  1  0  0  0  0
  7 17  1  0  0  0  0
  7 18  1  0  0  0  0
  7 19  1  0  0  0  0
  8 20  1  0  0  0  0
  8 21  1  0  0  0  0
  8 22  1  0  0  0  0
  9 23  1  0  0  0  0
  9 24  1  0  0  0  0
  9 25  1  0  0  0  0
 10 11  1  0  0  0  0
 10 26  1  0  0  0  0
 11 12  2  0  0  0  0
 11 13  1  0  0  0  0
 12 14  1  0  0  0  0
 12 27  1  0  0  0  0
 13 15  2  0  0  0  0
 13 28  1  0  0  0  0
 14 16  2  0  0  0  0
 14 29  1  0  0  0  0
 15 16  1  0  0  0  0
 15 30  1  0  0  0  0
M  CHG  4   1  -1   2  -1   4   1   5   1
M  END
> <PUBCHEM_COMPOUND_CID>
123194

> <PUBCHEM_CONFORMER_RMSD>
0.6

> <PUBCHEM_CONFORMER_DIVERSEORDER>
1

> <PUBCHEM_MMFF94_PARTIAL_CHARGES>
18
1 -0.63
10 -0.14
11 0.09
12 -0.15
13 -0.15
14 -0.15
15 -0.15
16 0.13
2 -0.52
26 0.06
27 0.15
28 0.15
29 0.15
3 -0.52
30 0.15
4 0.53
5 0.91
6 0.1

> <PUBCHEM_EFFECTIVE_ROTOR_COUNT>
3

> <PUBCHEM_PHARMACOPHORE_FEATURES>
6
1 1 anion
1 2 acceptor
1 2 anion
1 3 acceptor
4 6 7 8 9 hydrophobe
6 11 12 13 14 15 16 rings

> <PUBCHEM_HEAVY_ATOM_COUNT>
16

> <PUBCHEM_ATOM_DEF_STEREO_COUNT>
0

> <PUBCHEM_ATOM_UDEF_STEREO_COUNT>
0

> <PUBCHEM_BOND_DEF_STEREO_COUNT>
0

> <PUBCHEM_BOND_UDEF_STEREO_COUNT>
1

> <PUBCHEM_ISOTOPIC_ATOM_COUNT>
0

> <PUBCHEM_COMPONENT_COUNT>
1

> <PUBCHEM_CACTVS_TAUTO_COUNT>
1

> <PUBCHEM_CONFORMER_ID>
0001E13A00000001

> <PUBCHEM_MMFF94_ENERGY>
58.5575

> <PUBCHEM_FEATURE_SELFOVERLAP>
30.526

> <PUBCHEM_SHAPE_FINGERPRINT>
10680689 15 18187367623350420929
11287383 113 16370734767953343404
11401426 45 18410006646184675472
11471102 20 18335417972037102124
11806522 49 18411418427514731344
12236239 1 18202004326481769811
12500047 106 14189575209188098725
12916754 54 18339359786058593157
13675066 3 18334015007842453272
13690532 89 18411418401792432834
13760787 5 18333737922464594436
13862211 1 18335979792646642594
14123238 8 18343302586725174182
14144814 61 18272369772114072361
14252887 29 18202290173666817262
15196674 1 18409728452161967892
15375462 189 18408884014384013570
15536298 74 18272085049947147464
15788980 27 18260267434246374214
17834072 33 18201153351199094709
18186145 218 18272090521556108561
19422 9 18272091642811364151
200 152 18343579651250591161
20279233 1 17385726898352875011
20645477 70 18337388249577130750
21119208 17 18412824685500994421
21267235 1 18411707607847627751
221490 88 18119814856947316283
22485316 2 18411696582508011526
2306618 200 18272934891422078529
23402539 116 16773796974405109929
23402655 69 18409445860504576205
23557571 272 16443059465980977951
23559900 14 17988640827042709912
4214541 1 18411135827441315949
4990 188 18343305855538288486
5104073 3 18412825802187217539
542803 24 16988566805182487065
633830 44 17458341961475434796
77779 3 18408885148276406917
9981440 41 17260173922875037768

> <PUBCHEM_SHAPE_MULTIPOLES>
301.7
10.07
1.45
0.85
1.96
0.05
0.18
-0.82
-0.52
0.11
-0.19
-0.92
0.03
-0.25

> <PUBCHEM_SHAPE_SELFOVERLAP>
626.603

> <PUBCHEM_SHAPE_VOLUME>
174.3

> <PUBCHEM_COORDINATE_TYPE>
2
5
10

$$$$
