96416
  -OEChem-11012400523D

 26 25  0     0  0  0  0  0  0999 V2000
   -0.3626   -0.3644   -0.6162 N   0  0  0  0  0  0  0  0  0  0  0  0
    0.3700   -0.3646    0.6145 N   0  0  0  0  0  0  0  0  0  0  0  0
   -2.3413    1.7913    1.1505 N   0  0  0  0  0  0  0  0  0  0  0  0
    2.3387    1.7918   -1.1505 N   0  0  0  0  0  0  0  0  0  0  0  0
   -1.7908   -0.3501   -0.2861 C   0  0  0  0  0  0  0  0  0  0  0  0
    1.7896   -0.3496    0.2866 C   0  0  0  0  0  0  0  0  0  0  0  0
   -2.1407   -1.6141    0.5085 C   0  0  0  0  0  0  0  0  0  0  0  0
   -2.5918   -0.3132   -1.5928 C   0  0  0  0  0  0  0  0  0  0  0  0
    2.1403   -1.6136   -0.5077 C   0  0  0  0  0  0  0  0  0  0  0  0
    2.5904   -0.3120    1.5932 C   0  0  0  0  0  0  0  0  0  0  0  0
   -2.0976    0.8490    0.5179 C   0  0  0  0  0  0  0  0  0  0  0  0
    2.0958    0.8495   -0.5178 C   0  0  0  0  0  0  0  0  0  0  0  0
   -0.1509    0.4656   -1.1695 H   0  0  0  0  0  0  0  0  0  0  0  0
    0.1538    0.4627    1.1698 H   0  0  0  0  0  0  0  0  0  0  0  0
   -1.6763   -1.6444    1.5016 H   0  0  0  0  0  0  0  0  0  0  0  0
   -3.2235   -1.6775    0.6758 H   0  0  0  0  0  0  0  0  0  0  0  0
   -1.8444   -2.5213   -0.0319 H   0  0  0  0  0  0  0  0  0  0  0  0
   -2.3617    0.5822   -2.1837 H   0  0  0  0  0  0  0  0  0  0  0  0
   -3.6708   -0.3001   -1.3966 H   0  0  0  0  0  0  0  0  0  0  0  0
   -2.3790   -1.1892   -2.2170 H   0  0  0  0  0  0  0  0  0  0  0  0
    1.6780   -1.6444   -1.5017 H   0  0  0  0  0  0  0  0  0  0  0  0
    3.2234   -1.6768   -0.6734 H   0  0  0  0  0  0  0  0  0  0  0  0
    1.8438   -2.5212    0.0322 H   0  0  0  0  0  0  0  0  0  0  0  0
    2.3603    0.5835    2.1840 H   0  0  0  0  0  0  0  0  0  0  0  0
    3.6695   -0.2984    1.3969 H   0  0  0  0  0  0  0  0  0  0  0  0
    2.3784   -1.1879    2.2178 H   0  0  0  0  0  0  0  0  0  0  0  0
  1  2  1  0  0  0  0
  1  5  1  0  0  0  0
  1 13  1  0  0  0  0
  2  6  1  0  0  0  0
  2 14  1  0  0  0  0
  3 11  3  0  0  0  0
  4 12  3  0  0  0  0
  5  7  1  0  0  0  0
  5  8  1  0  0  0  0
  5 11  1  0  0  0  0
  6  9  1  0  0  0  0
  6 10  1  0  0  0  0
  6 12  1  0  0  0  0
  7 15  1  0  0  0  0
  7 16  1  0  0  0  0
  7 17  1  0  0  0  0
  8 18  1  0  0  0  0
  8 19  1  0  0  0  0
  8 20  1  0  0  0  0
  9 21  1  0  0  0  0
  9 22  1  0  0  0  0
  9 23  1  0  0  0  0
 10 24  1  0  0  0  0
 10 25  1  0  0  0  0
 10 26  1  0  0  0  0
M  END
> <PUBCHEM_COMPOUND_CID>
96416

> <PUBCHEM_CONFORMER_RMSD>
0.6

> <PUBCHEM_CONFORMER_DIVERSEORDER>
1
6
3
2
4
5

> <PUBCHEM_MMFF94_PARTIAL_CHARGES>
10
1 -0.63
11 0.36
12 0.36
13 0.36
14 0.36
2 -0.63
3 -0.56
4 -0.56
5 0.47
6 0.47

> <PUBCHEM_EFFECTIVE_ROTOR_COUNT>
3

> <PUBCHEM_PHARMACOPHORE_FEATURES>
6
1 1 donor
1 2 donor
1 3 acceptor
1 4 acceptor
3 5 7 8 hydrophobe
3 6 9 10 hydrophobe

> <PUBCHEM_HEAVY_ATOM_COUNT>
12

> <PUBCHEM_ATOM_DEF_STEREO_COUNT>
0

> <PUBCHEM_ATOM_UDEF_STEREO_COUNT>
0

> <PUBCHEM_BOND_DEF_STEREO_COUNT>
0

> <PUBCHEM_BOND_UDEF_STEREO_COUNT>
0

> <PUBCHEM_ISOTOPIC_ATOM_COUNT>
0

> <PUBCHEM_COMPONENT_COUNT>
1

> <PUBCHEM_CACTVS_TAUTO_COUNT>
1

> <PUBCHEM_CONFORMER_ID>
000178A000000001

> <PUBCHEM_MMFF94_ENERGY>
16.3889

> <PUBCHEM_FEATURE_SELFOVERLAP>
31.749

> <PUBCHEM_SHAPE_FINGERPRINT>
100427 49 17843397651300009545
12932764 1 17203614795469969383
13380536 127 18339931509907513961
16945 1 18059008518046219691
18511873 20 17769944480147177563
19973954 147 18410864256221229475
20082192 1 18186793677790299783
20511035 2 17916025659459189998
20653085 51 14260801525174684609
20653091 64 18113896087429193160
207724 885 18121228579781879546
21028194 46 17773321123722443297
23235687 12 18187080654725566202
23552423 10 18412266094945056119
23557571 272 16630234900628115625
3248919 1 18410568491888500423
369184 2 17313096475720499267
5084963 1 18339066108378343631
74978 22 18114178601292383314
8030462 33 18202561791255662359

> <PUBCHEM_SHAPE_MULTIPOLES>
227.03
4.79
1.69
1.39
0.01
0.26
0
0.28
0
0
0
0
0.2
-0.79

> <PUBCHEM_SHAPE_SELFOVERLAP>
434.405

> <PUBCHEM_SHAPE_VOLUME>
137

> <PUBCHEM_COORDINATE_TYPE>
2
5
10

$$$$
