70848
  -OEChem-11012400383D

 29 31  0     0  0  0  0  0  0999 V2000
   -0.0003   -0.0454    0.0254 N   0  0  0  0  0  0  0  0  0  0  0  0
   -3.4152   -0.6156   -0.5223 N   0  0  0  0  0  0  0  0  0  0  0  0
    3.4148   -0.6150   -0.5244 N   0  0  0  0  0  0  0  0  0  0  0  0
   -1.1489   -0.7527    0.1138 C   0  0  0  0  0  0  0  0  0  0  0  0
    1.1486   -0.7527    0.1122 C   0  0  0  0  0  0  0  0  0  0  0  0
   -2.3567    0.0317    0.0143 C   0  0  0  0  0  0  0  0  0  0  0  0
    2.3565    0.0316    0.0137 C   0  0  0  0  0  0  0  0  0  0  0  0
   -1.2025   -2.1267    0.2840 C   0  0  0  0  0  0  0  0  0  0  0  0
    1.2026   -2.1267    0.2825 C   0  0  0  0  0  0  0  0  0  0  0  0
    0.0002   -2.8194    0.3689 C   0  0  0  0  0  0  0  0  0  0  0  0
   -2.3900    1.3475    0.4471 C   0  0  0  0  0  0  0  0  0  0  0  0
    2.3904    1.3466    0.4491 C   0  0  0  0  0  0  0  0  0  0  0  0
   -3.5869    2.0437    0.3213 C   0  0  0  0  0  0  0  0  0  0  0  0
    3.5875    2.0428    0.3238 C   0  0  0  0  0  0  0  0  0  0  0  0
   -4.6981    1.4118   -0.2258 C   0  0  0  0  0  0  0  0  0  0  0  0
    4.6983    1.4117   -0.2250 C   0  0  0  0  0  0  0  0  0  0  0  0
   -4.5615    0.0932   -0.6287 C   0  0  0  0  0  0  0  0  0  0  0  0
    4.5612    0.0937   -0.6300 C   0  0  0  0  0  0  0  0  0  0  0  0
   -2.1369   -2.6731    0.3620 H   0  0  0  0  0  0  0  0  0  0  0  0
    2.1370   -2.6730    0.3597 H   0  0  0  0  0  0  0  0  0  0  0  0
    0.0002   -3.8965    0.5067 H   0  0  0  0  0  0  0  0  0  0  0  0
   -1.5296    1.8445    0.8836 H   0  0  0  0  0  0  0  0  0  0  0  0
    1.5303    1.8429    0.8869 H   0  0  0  0  0  0  0  0  0  0  0  0
   -3.6546    3.0761    0.6510 H   0  0  0  0  0  0  0  0  0  0  0  0
    3.6556    3.0746    0.6552 H   0  0  0  0  0  0  0  0  0  0  0  0
   -5.6415    1.9348   -0.3330 H   0  0  0  0  0  0  0  0  0  0  0  0
    5.6417    1.9346   -0.3316 H   0  0  0  0  0  0  0  0  0  0  0  0
   -5.3984   -0.4449   -1.0615 H   0  0  0  0  0  0  0  0  0  0  0  0
    5.3977   -0.4438   -1.0640 H   0  0  0  0  0  0  0  0  0  0  0  0
  1  4  2  0  0  0  0
  1  5  1  0  0  0  0
  2  6  1  0  0  0  0
  2 17  2  0  0  0  0
  3  7  1  0  0  0  0
  3 18  2  0  0  0  0
  4  6  1  0  0  0  0
  4  8  1  0  0  0  0
  5  7  1  0  0  0  0
  5  9  2  0  0  0  0
  6 11  2  0  0  0  0
  7 12  2  0  0  0  0
  8 10  2  0  0  0  0
  8 19  1  0  0  0  0
  9 10  1  0  0  0  0
  9 20  1  0  0  0  0
 10 21  1  0  0  0  0
 11 13  1  0  0  0  0
 11 22  1  0  0  0  0
 12 14  1  0  0  0  0
 12 23  1  0  0  0  0
 13 15  2  0  0  0  0
 13 24  1  0  0  0  0
 14 16  2  0  0  0  0
 14 25  1  0  0  0  0
 15 17  1  0  0  0  0
 15 26  1  0  0  0  0
 16 18  1  0  0  0  0
 16 27  1  0  0  0  0
 17 28  1  0  0  0  0
 18 29  1  0  0  0  0
M  END
> <PUBCHEM_COMPOUND_CID>
70848

> <PUBCHEM_CONFORMER_RMSD>
0.6

> <PUBCHEM_CONFORMER_DIVERSEORDER>
1
4
2
3

> <PUBCHEM_MMFF94_PARTIAL_CHARGES>
29
1 -0.62
10 -0.15
11 -0.15
12 -0.15
13 -0.15
14 -0.15
15 -0.15
16 -0.15
17 0.16
18 0.16
19 0.15
2 -0.62
20 0.15
21 0.15
22 0.15
23 0.15
24 0.15
25 0.15
26 0.15
27 0.15
28 0.15
29 0.15
3 -0.62
4 0.31
5 0.31
6 0.31
7 0.31
8 -0.15
9 -0.15

> <PUBCHEM_EFFECTIVE_ROTOR_COUNT>
2

> <PUBCHEM_PHARMACOPHORE_FEATURES>
6
1 1 acceptor
1 2 acceptor
1 3 acceptor
6 1 4 5 8 9 10 rings
6 2 6 11 13 15 17 rings
6 3 7 12 14 16 18 rings

> <PUBCHEM_HEAVY_ATOM_COUNT>
18

> <PUBCHEM_ATOM_DEF_STEREO_COUNT>
0

> <PUBCHEM_ATOM_UDEF_STEREO_COUNT>
0

> <PUBCHEM_BOND_DEF_STEREO_COUNT>
0

> <PUBCHEM_BOND_UDEF_STEREO_COUNT>
0

> <PUBCHEM_ISOTOPIC_ATOM_COUNT>
0

> <PUBCHEM_COMPONENT_COUNT>
1

> <PUBCHEM_CACTVS_TAUTO_COUNT>
1

> <PUBCHEM_CONFORMER_ID>
000114C000000001

> <PUBCHEM_MMFF94_ENERGY>
56.3577

> <PUBCHEM_FEATURE_SELFOVERLAP>
30.448

> <PUBCHEM_SHAPE_FINGERPRINT>
10411042 1 17400925696223273130
10498660 4 18409443666045592573
10608611 8 18197499747728631720
11543360 7 16988556943942759341
12173636 292 18338514265263279414
122479 349 18334579083193370122
12251169 10 10953745490939697091
12346645 44 18408884014573897715
12363563 72 10663818611000704868
12500047 106 18338800134418574094
12644460 14 17895189935925327306
12730499 353 18336554828574497595
12769317 202 18266446625397377949
12788726 201 17464819365275208282
12892183 10 12685091488222548382
12916748 109 18411142458448665433
13464514 151 18341621356369248742
13583140 156 16805880796675853361
14123255 52 18409166610283728673
14252887 29 8070032189960139124
14528608 73 18411974754950537341
14848178 96 18410289198776651933
15196674 1 18411418410081836457
1741750 31 18408884074656097250
17834072 32 18335987570526479916
1798214 55 18408602565145581176
18186145 218 18411696560769612924
19862831 5 17989769981622224169
20300324 65 18060418036651223245
204376 136 18333734623829568747
20510252 161 18195814191470259987
20645477 56 18337111280004977496
20645477 70 17131567080700575476
212916 134 18269253786294272634
21524375 3 18408039598054625154
221357 26 18131913754087553409
22182937 141 18339370754761502371
2255824 54 18121777227769148451
22646028 28 9871745797480651069
22950370 63 9583518745765300368
23227448 37 18341330114531217437
23402539 116 18342450473835270180
23402655 69 18202282493885535900
23557571 272 18196380435732207886
23558518 356 17755017841491388048
23559900 14 18343867728035101934
25 1 18411136913867601206
3091708 16 9265027528942781579
335352 9 18409731734414002022
351380 180 18343300375117963476
4028521 119 18412824702791860789
474 4 18259988175652350885
495365 180 17489297638357319496
4990 188 17988647376166242422
5104073 3 18334858303138145435
6138700 20 18196940972726691022
6328613 192 18261682571249460620
6333272 397 18408884066029005449
633830 44 18341891866141225527
67856867 119 18265601113808618515
7364860 26 18195808461994585599
7808743 9 18190743235822987540
84936 182 18341609252929635633
9709674 26 18271814574487242086
9981440 41 18335977648946324627

> <PUBCHEM_SHAPE_MULTIPOLES>
355.49
9.71
2.61
0.73
0
0.98
0.01
-6.54
1.87
0
-0.48
0
-0.02
0

> <PUBCHEM_SHAPE_SELFOVERLAP>
790.199

> <PUBCHEM_SHAPE_VOLUME>
186

> <PUBCHEM_COORDINATE_TYPE>
2
5
10

$$$$
