66101
  -OEChem-11012400493D

 23 23  0     0  0  0  0  0  0999 V2000
    0.3407   -3.5142   -0.0888 O   0  5  0  0  0  0  0  0  0  0  0  0
    0.3434    3.5138   -0.0894 O   0  5  0  0  0  0  0  0  0  0  0  0
    2.2632   -2.4593   -0.1906 O   0  0  0  0  0  0  0  0  0  0  0  0
    2.2652    2.4574   -0.1900 O   0  0  0  0  0  0  0  0  0  0  0  0
   -3.7858   -1.0963    0.1284 O   0  5  0  0  0  0  0  0  0  0  0  0
   -3.7849    1.0990    0.1292 O   0  0  0  0  0  0  0  0  0  0  0  0
    2.4405   -0.0010   -0.1996 N   0  0  0  0  0  0  0  0  0  0  0  0
    1.0120   -2.4566   -0.1241 N   0  3  0  0  0  0  0  0  0  0  0  0
    1.0138    2.4557   -0.1244 N   0  3  0  0  0  0  0  0  0  0  0  0
   -3.1784    0.0011    0.0968 N   0  3  0  0  0  0  0  0  0  0  0  0
    1.0259   -0.0005   -0.1246 C   0  0  0  0  0  0  0  0  0  0  0  0
    0.3288   -1.2082   -0.0877 C   0  0  0  0  0  0  0  0  0  0  0  0
    0.3298    1.2078   -0.0880 C   0  0  0  0  0  0  0  0  0  0  0  0
   -1.7602    0.0005    0.0225 C   0  0  0  0  0  0  0  0  0  0  0  0
   -1.0641   -1.2077   -0.0142 C   0  0  0  0  0  0  0  0  0  0  0  0
   -1.0633    1.2082   -0.0145 C   0  0  0  0  0  0  0  0  0  0  0  0
    3.2734    0.0004    0.9589 C   0  0  0  0  0  0  0  0  0  0  0  0
   -1.6119   -2.1467    0.0148 H   0  0  0  0  0  0  0  0  0  0  0  0
   -1.6103    2.1476    0.0142 H   0  0  0  0  0  0  0  0  0  0  0  0
    2.8016   -0.5296   -0.9895 H   0  0  0  0  0  0  0  0  0  0  0  0
    3.0916    0.8721    1.5956 H   0  0  0  0  0  0  0  0  0  0  0  0
    4.3260    0.0231    0.6598 H   0  0  0  0  0  0  0  0  0  0  0  0
    3.1213   -0.8888    1.5787 H   0  0  0  0  0  0  0  0  0  0  0  0
  1  8  1  0  0  0  0
  2  9  1  0  0  0  0
  3  8  2  0  0  0  0
  4  9  2  0  0  0  0
  5 10  1  0  0  0  0
  6 10  2  0  0  0  0
  7 11  1  0  0  0  0
  7 17  1  0  0  0  0
  7 20  1  0  0  0  0
  8 12  1  0  0  0  0
  9 13  1  0  0  0  0
 10 14  1  0  0  0  0
 11 12  2  0  0  0  0
 11 13  1  0  0  0  0
 12 15  1  0  0  0  0
 13 16  2  0  0  0  0
 14 15  2  0  0  0  0
 14 16  1  0  0  0  0
 15 18  1  0  0  0  0
 16 19  1  0  0  0  0
 17 21  1  0  0  0  0
 17 22  1  0  0  0  0
 17 23  1  0  0  0  0
M  CHG  6   1  -1   2  -1   5  -1   8   1   9   1  10   1
M  END
> <PUBCHEM_COMPOUND_CID>
66101

> <PUBCHEM_CONFORMER_RMSD>
0.6

> <PUBCHEM_CONFORMER_DIVERSEORDER>
1

> <PUBCHEM_MMFF94_PARTIAL_CHARGES>
20
1 -0.52
10 0.91
11 0.1
12 0.13
13 0.13
14 0.13
15 -0.15
16 -0.15
17 0.37
18 0.15
19 0.15
2 -0.52
20 0.4
3 -0.52
4 -0.52
5 -0.52
6 -0.52
7 -0.87
8 0.91
9 0.91

> <PUBCHEM_EFFECTIVE_ROTOR_COUNT>
4

> <PUBCHEM_PHARMACOPHORE_FEATURES>
12
1 1 acceptor
1 1 anion
1 2 acceptor
1 2 anion
1 3 acceptor
1 4 acceptor
1 5 acceptor
1 5 anion
1 6 acceptor
1 7 cation
1 7 donor
6 11 12 13 14 15 16 rings

> <PUBCHEM_HEAVY_ATOM_COUNT>
17

> <PUBCHEM_ATOM_DEF_STEREO_COUNT>
0

> <PUBCHEM_ATOM_UDEF_STEREO_COUNT>
0

> <PUBCHEM_BOND_DEF_STEREO_COUNT>
0

> <PUBCHEM_BOND_UDEF_STEREO_COUNT>
0

> <PUBCHEM_ISOTOPIC_ATOM_COUNT>
0

> <PUBCHEM_COMPONENT_COUNT>
1

> <PUBCHEM_CACTVS_TAUTO_COUNT>
1

> <PUBCHEM_CONFORMER_ID>
0001023500000001

> <PUBCHEM_MMFF94_ENERGY>
87.249

> <PUBCHEM_FEATURE_SELFOVERLAP>
61.143

> <PUBCHEM_SHAPE_FINGERPRINT>
1 1 18338238283639105701
10967382 1 18338800125248319342
13140716 1 18266458896081383083
13380535 76 18052539068911319476
13380536 305 18267031720006537452
14178342 30 18341609274752586329
14251717 144 18411131468012632847
14790565 3 18338249231743826068
15490181 7 17615983534922648776
15490181 8 18196367254456464358
161256 15 18125722279726020966
16945 1 18410859858401487317
193761 8 17690279309527658492
19591789 44 18265904725083526910
20511035 2 17824835678350228426
20645476 183 17825965993710500036
20645477 70 18334851766941783487
21501502 16 17906165505585090646
21524375 3 18044934820913811769
2334 1 17978228592886092711
23388829 49 18341885273371830357
23463225 33 18335697239226516952
23557571 272 17048521804663183702
23558518 356 16965199168468836452
23559900 14 16181004849778723262
241688 4 17905895777217243378
2748010 2 18050844425150638356
352729 6 17834679679115889511
54173680 148 17113258836854455998
589210 1 17690557490343490010
7364860 26 18411422812771208181
7832392 63 18268714901037439297
81228 2 17614572431980842657

> <PUBCHEM_SHAPE_MULTIPOLES>
294.71
4.68
3.56
0.63
3.35
0
0.06
0
0.77
-1.76
-0.36
-0.21
0
0

> <PUBCHEM_SHAPE_SELFOVERLAP>
626.974

> <PUBCHEM_SHAPE_VOLUME>
164.6

> <PUBCHEM_COORDINATE_TYPE>
2
5
10

$$$$
