15089
  -OEChem-11012400553D

 48 48  0     0  0  0  0  0  0999 V2000
   -2.4995   -1.4417    0.0000 C   0  0  0  0  0  0  0  0  0  0  0  0
   -0.0075    2.8927    0.0000 C   0  0  0  0  0  0  0  0  0  0  0  0
    2.4999   -1.4326    0.0001 C   0  0  0  0  0  0  0  0  0  0  0  0
   -1.2092   -0.6935   -0.0008 C   0  0  0  0  0  0  0  0  0  0  0  0
   -0.0048    1.3550   -0.0004 C   0  0  0  0  0  0  0  0  0  0  0  0
    1.2069   -0.6891   -0.0004 C   0  0  0  0  0  0  0  0  0  0  0  0
   -1.2115    0.7015   -0.0006 C   0  0  0  0  0  0  0  0  0  0  0  0
    0.0002   -1.3888   -0.0006 C   0  0  0  0  0  0  0  0  0  0  0  0
    1.2043    0.7058   -0.0002 C   0  0  0  0  0  0  0  0  0  0  0  0
   -3.3543   -1.0962   -1.2585 C   0  0  0  0  0  0  0  0  0  0  0  0
   -3.3538   -1.0949    1.2587 C   0  0  0  0  0  0  0  0  0  0  0  0
   -2.3711   -3.0012    0.0010 C   0  0  0  0  0  0  0  0  0  0  0  0
    0.7190    3.4138   -1.2588 C   0  0  0  0  0  0  0  0  0  0  0  0
    0.7203    3.4133    1.2584 C   0  0  0  0  0  0  0  0  0  0  0  0
   -1.4221    3.5153    0.0011 C   0  0  0  0  0  0  0  0  0  0  0  0
    3.3519   -1.0844    1.2597 C   0  0  0  0  0  0  0  0  0  0  0  0
    3.3543   -1.0825   -1.2575 C   0  0  0  0  0  0  0  0  0  0  0  0
    2.3771   -2.9926   -0.0013 C   0  0  0  0  0  0  0  0  0  0  0  0
   -2.1633    1.2148   -0.0005 H   0  0  0  0  0  0  0  0  0  0  0  0
    0.0021   -2.4689   -0.0006 H   0  0  0  0  0  0  0  0  0  0  0  0
    2.1402    1.2534    0.0001 H   0  0  0  0  0  0  0  0  0  0  0  0
   -4.2889   -1.6689   -1.2751 H   0  0  0  0  0  0  0  0  0  0  0  0
   -3.6260   -0.0355   -1.2920 H   0  0  0  0  0  0  0  0  0  0  0  0
   -2.8029   -1.3252   -2.1780 H   0  0  0  0  0  0  0  0  0  0  0  0
   -3.6257   -0.0342    1.2911 H   0  0  0  0  0  0  0  0  0  0  0  0
   -4.2882   -1.6679    1.2765 H   0  0  0  0  0  0  0  0  0  0  0  0
   -2.8018   -1.3228    2.1783 H   0  0  0  0  0  0  0  0  0  0  0  0
   -3.3594   -3.4773    0.0016 H   0  0  0  0  0  0  0  0  0  0  0  0
   -1.8446   -3.3630   -0.8900 H   0  0  0  0  0  0  0  0  0  0  0  0
   -1.8440   -3.3619    0.8920 H   0  0  0  0  0  0  0  0  0  0  0  0
    0.6920    4.5089   -1.3046 H   0  0  0  0  0  0  0  0  0  0  0  0
    1.7743    3.1214   -1.2846 H   0  0  0  0  0  0  0  0  0  0  0  0
    0.2488    3.0311   -2.1724 H   0  0  0  0  0  0  0  0  0  0  0  0
    1.7758    3.1213    1.2830 H   0  0  0  0  0  0  0  0  0  0  0  0
    0.6930    4.5084    1.3050 H   0  0  0  0  0  0  0  0  0  0  0  0
    0.2513    3.0298    2.1724 H   0  0  0  0  0  0  0  0  0  0  0  0
   -1.3636    4.6110    0.0016 H   0  0  0  0  0  0  0  0  0  0  0  0
   -1.9956    3.2352   -0.8905 H   0  0  0  0  0  0  0  0  0  0  0  0
   -1.9946    3.2342    0.8929 H   0  0  0  0  0  0  0  0  0  0  0  0
    2.8010   -1.3174    2.1786 H   0  0  0  0  0  0  0  0  0  0  0  0
    3.6173   -0.0221    1.2940 H   0  0  0  0  0  0  0  0  0  0  0  0
    4.2895   -1.6521    1.2763 H   0  0  0  0  0  0  0  0  0  0  0  0
    3.6200   -0.0201   -1.2895 H   0  0  0  0  0  0  0  0  0  0  0  0
    4.2918   -1.6505   -1.2733 H   0  0  0  0  0  0  0  0  0  0  0  0
    2.8050   -1.3137   -2.1777 H   0  0  0  0  0  0  0  0  0  0  0  0
    1.8520   -3.3549   -0.8930 H   0  0  0  0  0  0  0  0  0  0  0  0
    1.8513   -3.3566    0.8891 H   0  0  0  0  0  0  0  0  0  0  0  0
    3.3671   -3.4651   -0.0013 H   0  0  0  0  0  0  0  0  0  0  0  0
  1  4  1  0  0  0  0
  1 10  1  0  0  0  0
  1 11  1  0  0  0  0
  1 12  1  0  0  0  0
  2  5  1  0  0  0  0
  2 13  1  0  0  0  0
  2 14  1  0  0  0  0
  2 15  1  0  0  0  0
  3  6  1  0  0  0  0
  3 16  1  0  0  0  0
  3 17  1  0  0  0  0
  3 18  1  0  0  0  0
  4  7  2  0  0  0  0
  4  8  1  0  0  0  0
  5  7  1  0  0  0  0
  5  9  2  0  0  0  0
  6  8  2  0  0  0  0
  6  9  1  0  0  0  0
  7 19  1  0  0  0  0
  8 20  1  0  0  0  0
  9 21  1  0  0  0  0
 10 22  1  0  0  0  0
 10 23  1  0  0  0  0
 10 24  1  0  0  0  0
 11 25  1  0  0  0  0
 11 26  1  0  0  0  0
 11 27  1  0  0  0  0
 12 28  1  0  0  0  0
 12 29  1  0  0  0  0
 12 30  1  0  0  0  0
 13 31  1  0  0  0  0
 13 32  1  0  0  0  0
 13 33  1  0  0  0  0
 14 34  1  0  0  0  0
 14 35  1  0  0  0  0
 14 36  1  0  0  0  0
 15 37  1  0  0  0  0
 15 38  1  0  0  0  0
 15 39  1  0  0  0  0
 16 40  1  0  0  0  0
 16 41  1  0  0  0  0
 16 42  1  0  0  0  0
 17 43  1  0  0  0  0
 17 44  1  0  0  0  0
 17 45  1  0  0  0  0
 18 46  1  0  0  0  0
 18 47  1  0  0  0  0
 18 48  1  0  0  0  0
M  END
> <PUBCHEM_COMPOUND_CID>
15089

> <PUBCHEM_CONFORMER_RMSD>
0.6

> <PUBCHEM_CONFORMER_DIVERSEORDER>
1

> <PUBCHEM_MMFF94_PARTIAL_CHARGES>
12
1 0.14
19 0.15
2 0.14
20 0.15
21 0.15
3 0.14
4 -0.14
5 -0.14
6 -0.14
7 -0.15
8 -0.15
9 -0.15

> <PUBCHEM_EFFECTIVE_ROTOR_COUNT>
3

> <PUBCHEM_PHARMACOPHORE_FEATURES>
4
4 1 10 11 12 hydrophobe
4 2 13 14 15 hydrophobe
4 3 16 17 18 hydrophobe
6 4 5 6 7 8 9 rings

> <PUBCHEM_HEAVY_ATOM_COUNT>
18

> <PUBCHEM_ATOM_DEF_STEREO_COUNT>
0

> <PUBCHEM_ATOM_UDEF_STEREO_COUNT>
0

> <PUBCHEM_BOND_DEF_STEREO_COUNT>
0

> <PUBCHEM_BOND_UDEF_STEREO_COUNT>
0

> <PUBCHEM_ISOTOPIC_ATOM_COUNT>
0

> <PUBCHEM_COMPONENT_COUNT>
1

> <PUBCHEM_CACTVS_TAUTO_COUNT>
1

> <PUBCHEM_CONFORMER_ID>
00003AF100000001

> <PUBCHEM_MMFF94_ENERGY>
75.773

> <PUBCHEM_FEATURE_SELFOVERLAP>
20.298

> <PUBCHEM_SHAPE_FINGERPRINT>
1 1 17689432011132582365
104564 63 18267311923736258015
10967382 1 17762338419499150819
11578080 2 17460004444578903276
12160290 23 17978229361542878820
12173636 292 17617658757189396924
12553582 1 18410581686060117479
12730499 353 17687180207763044727
12788726 201 18193552264218571027
13140716 1 18338798905567440864
13538477 17 17972607576234289470
13681431 1 18337950215655597348
14022347 108 18264508220609771171
14178342 30 17621884609950342827
14181834 199 18052237781271545623
14790565 3 17977120263601917521
15042514 8 17976265638302889955
15309172 13 17111289075180040513
15490181 7 17330552047276437047
15490181 8 17259624171360650398
16752209 62 18049155562563955263
16945 1 18410573985162487846
1813 80 18200333077007666631
18186145 218 17334510791969675965
19591789 44 17259063991687547743
19868273 325 18411699855057079670
20097449 115 18409166631784965034
20510252 161 17909822141983154792
20645476 183 17470463832680419438
20645477 70 17976812418111247263
21041028 32 18336841839663709017
21524375 3 17185595711156266809
22112679 90 18127159461350214593
2255824 54 18122068868642999391
2334 1 18410573998057497520
23419403 2 17684039834622734484
23557571 272 18271241596069845606
23558518 356 17900831452752128226
23559900 14 18124018294659890971
23598291 2 17985845932535171623
23598294 1 18192721046328614274
238 59 17545002332988302047
257057 1 18411407410702181451
2748010 2 18339911667132375428
305870 269 17690552413586885017
3060560 45 17400356145089039445
3071541 236 17830443986563353968
3071541 250 18266477553261093676
3091708 16 9066837315213763155
31174 14 18046078313460717619
350125 39 17257941385841136746
352729 6 17762058731255267535
4175511 71 18339940280473637203
43471831 8 17401202768968450187
458136 41 17542244787837615675
5845 1 12871108600576589656
6138700 20 18050578636281417844
6992083 37 18200889408806757931
7364860 26 18053105308825481159
81228 2 18265610970568372800
9981440 41 16835096861210185530

> <PUBCHEM_SHAPE_MULTIPOLES>
370.43
4.93
4.87
1.14
0.12
4.56
0
-5
0
0.06
0
-0.13
0.22
0

> <PUBCHEM_SHAPE_SELFOVERLAP>
753.819

> <PUBCHEM_SHAPE_VOLUME>
216.1

> <PUBCHEM_COORDINATE_TYPE>
2
5
10

$$$$
