97053177
  -OEChem-11012400563D

 26 27  0     1  0  0  0  0  0999 V2000
    0.0088   -0.7128    0.2933 C   0  0  1  0  0  0  0  0  0  0  0  0
    0.0088    0.7128   -0.2933 C   0  0  1  0  0  0  0  0  0  0  0  0
   -1.2661   -1.4762   -0.0891 C   0  0  0  0  0  0  0  0  0  0  0  0
   -1.2663    1.4762    0.0891 C   0  0  0  0  0  0  0  0  0  0  0  0
   -2.5236   -0.7023    0.2975 C   0  0  0  0  0  0  0  0  0  0  0  0
   -2.5236    0.7022   -0.2975 C   0  0  0  0  0  0  0  0  0  0  0  0
    1.2631   -1.4832   -0.1583 C   0  0  0  0  0  0  0  0  0  0  0  0
    1.2631    1.4832    0.1582 C   0  0  0  0  0  0  0  0  0  0  0  0
    2.5180   -0.6654   -0.0776 C   0  0  0  0  0  0  0  0  0  0  0  0
    2.5179    0.6655    0.0776 C   0  0  0  0  0  0  0  0  0  0  0  0
    0.0361   -0.6324    1.3903 H   0  0  0  0  0  0  0  0  0  0  0  0
    0.0360    0.6324   -1.3903 H   0  0  0  0  0  0  0  0  0  0  0  0
   -1.2794   -1.6640   -1.1704 H   0  0  0  0  0  0  0  0  0  0  0  0
   -1.2764   -2.4558    0.4034 H   0  0  0  0  0  0  0  0  0  0  0  0
   -1.2766    2.4557   -0.4034 H   0  0  0  0  0  0  0  0  0  0  0  0
   -1.2795    1.6639    1.1704 H   0  0  0  0  0  0  0  0  0  0  0  0
   -2.5909   -0.6368    1.3904 H   0  0  0  0  0  0  0  0  0  0  0  0
   -3.4106   -1.2471   -0.0449 H   0  0  0  0  0  0  0  0  0  0  0  0
   -2.5909    0.6367   -1.3904 H   0  0  0  0  0  0  0  0  0  0  0  0
   -3.4107    1.2470    0.0449 H   0  0  0  0  0  0  0  0  0  0  0  0
    1.1497   -1.8316   -1.1923 H   0  0  0  0  0  0  0  0  0  0  0  0
    1.3777   -2.3758    0.4684 H   0  0  0  0  0  0  0  0  0  0  0  0
    1.1497    1.8317    1.1922 H   0  0  0  0  0  0  0  0  0  0  0  0
    1.3777    2.3758   -0.4686 H   0  0  0  0  0  0  0  0  0  0  0  0
    3.4658   -1.1911   -0.1483 H   0  0  0  0  0  0  0  0  0  0  0  0
    3.4657    1.1911    0.1485 H   0  0  0  0  0  0  0  0  0  0  0  0
  1  2  1  0  0  0  0
  1  3  1  0  0  0  0
  1  7  1  0  0  0  0
  1 11  1  0  0  0  0
  2  4  1  0  0  0  0
  2  8  1  0  0  0  0
  2 12  1  0  0  0  0
  3  5  1  0  0  0  0
  3 13  1  0  0  0  0
  3 14  1  0  0  0  0
  4  6  1  0  0  0  0
  4 15  1  0  0  0  0
  4 16  1  0  0  0  0
  5  6  1  0  0  0  0
  5 17  1  0  0  0  0
  5 18  1  0  0  0  0
  6 19  1  0  0  0  0
  6 20  1  0  0  0  0
  7  9  1  0  0  0  0
  7 21  1  0  0  0  0
  7 22  1  0  0  0  0
  8 10  1  0  0  0  0
  8 23  1  0  0  0  0
  8 24  1  0  0  0  0
  9 10  2  0  0  0  0
  9 25  1  0  0  0  0
 10 26  1  0  0  0  0
M  END
> <PUBCHEM_COMPOUND_CID>
97053177

> <PUBCHEM_CONFORMER_RMSD>
0.4

> <PUBCHEM_CONFORMER_DIVERSEORDER>
1

> <PUBCHEM_MMFF94_PARTIAL_CHARGES>
6
10 -0.29
25 0.15
26 0.15
7 0.14
8 0.14
9 -0.29

> <PUBCHEM_EFFECTIVE_ROTOR_COUNT>
1.2

> <PUBCHEM_PHARMACOPHORE_FEATURES>
2
6 1 2 3 4 5 6 rings
6 1 2 7 8 9 10 rings

> <PUBCHEM_HEAVY_ATOM_COUNT>
10

> <PUBCHEM_ATOM_DEF_STEREO_COUNT>
2

> <PUBCHEM_ATOM_UDEF_STEREO_COUNT>
0

> <PUBCHEM_BOND_DEF_STEREO_COUNT>
0

> <PUBCHEM_BOND_UDEF_STEREO_COUNT>
0

> <PUBCHEM_ISOTOPIC_ATOM_COUNT>
0

> <PUBCHEM_COMPONENT_COUNT>
1

> <PUBCHEM_CACTVS_TAUTO_COUNT>
1

> <PUBCHEM_CONFORMER_ID>
05C8E9F900000001

> <PUBCHEM_MMFF94_ENERGY>
5.8971

> <PUBCHEM_FEATURE_SELFOVERLAP>
10.166

> <PUBCHEM_SHAPE_FINGERPRINT>
10857977 72 18336539507908980153
12524768 44 18339927013076988791
12897270 3 18411136935110147308
14325111 11 18410011035198315668
15775835 57 18410301306283775337
16945 1 18411981360056103430
17844478 74 18113912580098334961
19973954 147 18410858754384006032
20201158 50 18411416185288699247
21040471 1 18410010992448920892
23235685 24 18410285913115763701
23402655 69 18268696248221599509
23552423 10 18260550064606217318
241688 4 18334576802349536200
2748010 2 18194682806873978948
29004967 10 18412266125099140730
369184 2 18341893004360299521
5084963 1 18272090521423973434
528886 8 18411412921113424434
63268167 104 18410858724313914968
66348 1 18266458694006936165

> <PUBCHEM_SHAPE_MULTIPOLES>
205.8
3.8
1.78
0.66
0.02
0
0
0
0
0.02
0
0.04
0
0.16

> <PUBCHEM_SHAPE_SELFOVERLAP>
417.078

> <PUBCHEM_SHAPE_VOLUME>
116.3

> <PUBCHEM_COORDINATE_TYPE>
2
5
10

$$$$
