142882
  -OEChem-11012400443D

 16 15  0     0  0  0  0  0  0999 V2000
    0.8319    0.1436   -0.0004 O   0  0  0  0  0  0  0  0  0  0  0  0
   -1.5710    1.3307    0.0009 O   0  0  0  0  0  0  0  0  0  0  0  0
   -2.6880   -0.6814   -0.0026 N   0  0  0  0  0  0  0  0  0  0  0  0
    2.0589   -0.5805    0.0011 C   0  0  0  0  0  0  0  0  0  0  0  0
   -0.2872   -0.7173    0.0023 C   0  0  0  0  0  0  0  0  0  0  0  0
    3.2109    0.4016   -0.0019 C   0  0  0  0  0  0  0  0  0  0  0  0
   -1.5554    0.1033    0.0006 C   0  0  0  0  0  0  0  0  0  0  0  0
    2.1132   -1.2122    0.8947 H   0  0  0  0  0  0  0  0  0  0  0  0
    2.1126   -1.2168   -0.8892 H   0  0  0  0  0  0  0  0  0  0  0  0
   -0.2779   -1.3509   -0.8920 H   0  0  0  0  0  0  0  0  0  0  0  0
   -0.2776   -1.3460    0.9000 H   0  0  0  0  0  0  0  0  0  0  0  0
    4.1710   -0.1219   -0.0009 H   0  0  0  0  0  0  0  0  0  0  0  0
    3.1626    1.0498   -0.8831 H   0  0  0  0  0  0  0  0  0  0  0  0
    3.1632    1.0544    0.8760 H   0  0  0  0  0  0  0  0  0  0  0  0
   -3.6124   -0.2633   -0.0044 H   0  0  0  0  0  0  0  0  0  0  0  0
   -2.6456   -1.6956   -0.0030 H   0  0  0  0  0  0  0  0  0  0  0  0
  1  4  1  0  0  0  0
  1  5  1  0  0  0  0
  2  7  2  0  0  0  0
  3  7  1  0  0  0  0
  3 15  1  0  0  0  0
  3 16  1  0  0  0  0
  4  6  1  0  0  0  0
  4  8  1  0  0  0  0
  4  9  1  0  0  0  0
  5  7  1  0  0  0  0
  5 10  1  0  0  0  0
  5 11  1  0  0  0  0
  6 12  1  0  0  0  0
  6 13  1  0  0  0  0
  6 14  1  0  0  0  0
M  END
> <PUBCHEM_COMPOUND_CID>
142882

> <PUBCHEM_CONFORMER_RMSD>
0.4

> <PUBCHEM_CONFORMER_DIVERSEORDER>
1
33
8
6
32
7
31
5
9
34
3
22
10
4
21
2
27
25
29
26
24
30
11
28
23
18
17
12
13
16
15
14
19
20

> <PUBCHEM_MMFF94_PARTIAL_CHARGES>
8
1 -0.56
15 0.37
16 0.37
2 -0.57
3 -0.8
4 0.28
5 0.34
7 0.57

> <PUBCHEM_EFFECTIVE_ROTOR_COUNT>
3

> <PUBCHEM_PHARMACOPHORE_FEATURES>
3
1 1 acceptor
1 2 acceptor
1 3 donor

> <PUBCHEM_HEAVY_ATOM_COUNT>
7

> <PUBCHEM_ATOM_DEF_STEREO_COUNT>
0

> <PUBCHEM_ATOM_UDEF_STEREO_COUNT>
0

> <PUBCHEM_BOND_DEF_STEREO_COUNT>
0

> <PUBCHEM_BOND_UDEF_STEREO_COUNT>
0

> <PUBCHEM_ISOTOPIC_ATOM_COUNT>
0

> <PUBCHEM_COMPONENT_COUNT>
1

> <PUBCHEM_CACTVS_TAUTO_COUNT>
2

> <PUBCHEM_CONFORMER_ID>
00022E2200000001

> <PUBCHEM_MMFF94_ENERGY>
7.4303

> <PUBCHEM_FEATURE_SELFOVERLAP>
15.23

> <PUBCHEM_SHAPE_FINGERPRINT>
12932764 1 17346308298179303894
14325111 11 18410856538486829890
14390081 3 18413105061303843360
16714656 1 18342738537402705831
23552423 10 18262803934726423722
29004967 10 16128658543807971882
5460574 1 9295290542893453090

> <PUBCHEM_SHAPE_MULTIPOLES>
127.34
4.56
1
0.58
1.88
0.17
0
0.22
0
-0.31
0
0.05
-0.01
0

> <PUBCHEM_SHAPE_SELFOVERLAP>
227.934

> <PUBCHEM_SHAPE_VOLUME>
82.9

> <PUBCHEM_COORDINATE_TYPE>
2
5
10

$$$$
