11872
  -OEChem-11012401013D

 20 20  0     0  0  0  0  0  0999 V2000
    0.0001    2.0899    0.0001 O   0  0  0  0  0  0  0  0  0  0  0  0
   -3.5138    0.0554    0.0002 O   0  5  0  0  0  0  0  0  0  0  0  0
    3.5138    0.0552    0.0000 O   0  5  0  0  0  0  0  0  0  0  0  0
   -2.4447    1.9727    0.0002 O   0  0  0  0  0  0  0  0  0  0  0  0
    2.4448    1.9726   -0.0002 O   0  0  0  0  0  0  0  0  0  0  0  0
   -2.4502    0.7190   -0.0001 N   0  3  0  0  0  0  0  0  0  0  0  0
    2.4502    0.7190    0.0001 N   0  3  0  0  0  0  0  0  0  0  0  0
   -0.0001   -2.0659    0.0000 C   0  0  0  0  0  0  0  0  0  0  0  0
   -1.2080    0.0264   -0.0004 C   0  0  0  0  0  0  0  0  0  0  0  0
    1.2079    0.0264    0.0002 C   0  0  0  0  0  0  0  0  0  0  0  0
    0.0000    0.7238   -0.0001 C   0  0  0  0  0  0  0  0  0  0  0  0
   -1.2080   -1.3685   -0.0002 C   0  0  0  0  0  0  0  0  0  0  0  0
    1.2080   -1.3685    0.0002 C   0  0  0  0  0  0  0  0  0  0  0  0
   -0.0001   -3.5574    0.0001 C   0  0  0  0  0  0  0  0  0  0  0  0
   -2.1353   -1.9370   -0.0025 H   0  0  0  0  0  0  0  0  0  0  0  0
    2.1352   -1.9370   -0.0019 H   0  0  0  0  0  0  0  0  0  0  0  0
    0.8796   -3.9532    0.5191 H   0  0  0  0  0  0  0  0  0  0  0  0
   -0.8806   -3.9533    0.5176 H   0  0  0  0  0  0  0  0  0  0  0  0
    0.0008   -3.9329   -1.0280 H   0  0  0  0  0  0  0  0  0  0  0  0
   -0.7995    2.4265   -0.4332 H   0  0  0  0  0  0  0  0  0  0  0  0
  1 11  1  0  0  0  0
  1 20  1  0  0  0  0
  2  6  1  0  0  0  0
  3  7  1  0  0  0  0
  4  6  2  0  0  0  0
  5  7  2  0  0  0  0
  6  9  1  0  0  0  0
  7 10  1  0  0  0  0
  8 12  2  0  0  0  0
  8 13  1  0  0  0  0
  8 14  1  0  0  0  0
  9 11  2  0  0  0  0
  9 12  1  0  0  0  0
 10 11  1  0  0  0  0
 10 13  2  0  0  0  0
 12 15  1  0  0  0  0
 13 16  1  0  0  0  0
 14 17  1  0  0  0  0
 14 18  1  0  0  0  0
 14 19  1  0  0  0  0
M  CHG  4   2  -1   3  -1   6   1   7   1
M  END
> <PUBCHEM_COMPOUND_CID>
11872

> <PUBCHEM_CONFORMER_RMSD>
0.6

> <PUBCHEM_CONFORMER_DIVERSEORDER>
1

> <PUBCHEM_MMFF94_PARTIAL_CHARGES>
17
1 -0.53
10 0.13
11 0.08
12 -0.15
13 -0.15
14 0.14
15 0.15
16 0.15
2 -0.52
20 0.45
3 -0.52
4 -0.52
5 -0.52
6 0.91
7 0.91
8 -0.14
9 0.13

> <PUBCHEM_EFFECTIVE_ROTOR_COUNT>
2

> <PUBCHEM_PHARMACOPHORE_FEATURES>
8
1 1 donor
1 2 acceptor
1 2 anion
1 3 acceptor
1 3 anion
1 4 acceptor
1 5 acceptor
6 8 9 10 11 12 13 rings

> <PUBCHEM_HEAVY_ATOM_COUNT>
14

> <PUBCHEM_ATOM_DEF_STEREO_COUNT>
0

> <PUBCHEM_ATOM_UDEF_STEREO_COUNT>
0

> <PUBCHEM_BOND_DEF_STEREO_COUNT>
0

> <PUBCHEM_BOND_UDEF_STEREO_COUNT>
0

> <PUBCHEM_ISOTOPIC_ATOM_COUNT>
0

> <PUBCHEM_COMPONENT_COUNT>
1

> <PUBCHEM_CACTVS_TAUTO_COUNT>
3

> <PUBCHEM_CONFORMER_ID>
00002E6000000001

> <PUBCHEM_MMFF94_ENERGY>
51.3742

> <PUBCHEM_FEATURE_SELFOVERLAP>
40.76

> <PUBCHEM_SHAPE_FINGERPRINT>
1 1 18338516335305569183
10967382 1 18122624950869556038
12423570 1 10546293883456395350
13380535 76 18410572885640265099
14648413 74 17976542706822379465
16945 1 18410575088958124166
17990270 104 17977381634141871827
19021347 11 18338232661463858319
193761 8 17618222802053224356
20510252 161 18199190765893187744
20645476 183 17968958490431118878
20645477 70 18194394490884784543
20871998 184 17839471320630404222
21040471 1 18410855498962293474
21524375 3 18334855017409126250
2334 1 18410856593999891719
23402539 116 18270950353641158895
23463225 33 18334571300765253922
23552423 10 18122908625191191223
23559900 14 13228330012201550167
241688 4 16897364209707572482
2748010 2 18410019835596932711
43471831 8 18336826373085880722
528886 8 18411131437578382266
54173680 148 18049442835810026954
7364860 26 18052256193822989855
81228 2 17834667571476813051

> <PUBCHEM_SHAPE_MULTIPOLES>
248.8
3.97
3.07
0.57
0
2.23
0
-2.22
0
0
0
0
0.06
0

> <PUBCHEM_SHAPE_SELFOVERLAP>
529.867

> <PUBCHEM_SHAPE_VOLUME>
140.2

> <PUBCHEM_COORDINATE_TYPE>
2
5
10

$$$$
