137267
  -OEChem-10312420452D

 68 67  0     0  0  0  0  0  0999 V2000
   11.5263   -1.0600    0.0000 O   0  0  0  0  0  0  0  0  0  0  0  0
   12.3923    0.4400    0.0000 N   0  0  0  0  0  0  0  0  0  0  0  0
   10.6603    0.4400    0.0000 N   0  0  0  0  0  0  0  0  0  0  0  0
   16.7224   -0.0600    0.0000 C   0  0  0  0  0  0  0  0  0  0  0  0
    6.3301   -0.0600    0.0000 C   0  0  0  0  0  0  0  0  0  0  0  0
   15.8564    0.4400    0.0000 C   0  0  0  0  0  0  0  0  0  0  0  0
    7.1962    0.4400    0.0000 C   0  0  0  0  0  0  0  0  0  0  0  0
   17.5885    0.4400    0.0000 C   0  0  0  0  0  0  0  0  0  0  0  0
    5.4641    0.4400    0.0000 C   0  0  0  0  0  0  0  0  0  0  0  0
   14.9904   -0.0600    0.0000 C   0  0  0  0  0  0  0  0  0  0  0  0
    8.0622   -0.0600    0.0000 C   0  0  0  0  0  0  0  0  0  0  0  0
   18.4545   -0.0600    0.0000 C   0  0  0  0  0  0  0  0  0  0  0  0
    4.5981   -0.0600    0.0000 C   0  0  0  0  0  0  0  0  0  0  0  0
   14.1244    0.4400    0.0000 C   0  0  0  0  0  0  0  0  0  0  0  0
    8.9282    0.4400    0.0000 C   0  0  0  0  0  0  0  0  0  0  0  0
   19.3205    0.4400    0.0000 C   0  0  0  0  0  0  0  0  0  0  0  0
    3.7320    0.4400    0.0000 C   0  0  0  0  0  0  0  0  0  0  0  0
   13.2583   -0.0600    0.0000 C   0  0  0  0  0  0  0  0  0  0  0  0
    9.7942   -0.0600    0.0000 C   0  0  0  0  0  0  0  0  0  0  0  0
   20.1865   -0.0600    0.0000 C   0  0  0  0  0  0  0  0  0  0  0  0
    2.8660   -0.0600    0.0000 C   0  0  0  0  0  0  0  0  0  0  0  0
   11.5263   -0.0600    0.0000 C   0  0  0  0  0  0  0  0  0  0  0  0
   21.0526    0.4400    0.0000 C   0  0  0  0  0  0  0  0  0  0  0  0
    2.0000    0.4400    0.0000 C   0  0  0  0  0  0  0  0  0  0  0  0
   16.3239   -0.5349    0.0000 H   0  0  0  0  0  0  0  0  0  0  0  0
   17.1210   -0.5349    0.0000 H   0  0  0  0  0  0  0  0  0  0  0  0
    5.9316   -0.5349    0.0000 H   0  0  0  0  0  0  0  0  0  0  0  0
    6.7287   -0.5349    0.0000 H   0  0  0  0  0  0  0  0  0  0  0  0
   16.2549    0.9149    0.0000 H   0  0  0  0  0  0  0  0  0  0  0  0
   15.4579    0.9149    0.0000 H   0  0  0  0  0  0  0  0  0  0  0  0
    7.5947    0.9149    0.0000 H   0  0  0  0  0  0  0  0  0  0  0  0
    6.7976    0.9149    0.0000 H   0  0  0  0  0  0  0  0  0  0  0  0
   17.9870    0.9149    0.0000 H   0  0  0  0  0  0  0  0  0  0  0  0
   17.1899    0.9149    0.0000 H   0  0  0  0  0  0  0  0  0  0  0  0
    5.8626    0.9149    0.0000 H   0  0  0  0  0  0  0  0  0  0  0  0
    5.0656    0.9149    0.0000 H   0  0  0  0  0  0  0  0  0  0  0  0
   14.5919   -0.5349    0.0000 H   0  0  0  0  0  0  0  0  0  0  0  0
   15.3889   -0.5349    0.0000 H   0  0  0  0  0  0  0  0  0  0  0  0
    7.6636   -0.5349    0.0000 H   0  0  0  0  0  0  0  0  0  0  0  0
    8.4607   -0.5349    0.0000 H   0  0  0  0  0  0  0  0  0  0  0  0
   18.0560   -0.5349    0.0000 H   0  0  0  0  0  0  0  0  0  0  0  0
   18.8530   -0.5349    0.0000 H   0  0  0  0  0  0  0  0  0  0  0  0
    4.1996   -0.5349    0.0000 H   0  0  0  0  0  0  0  0  0  0  0  0
    4.9966   -0.5349    0.0000 H   0  0  0  0  0  0  0  0  0  0  0  0
   14.5229    0.9149    0.0000 H   0  0  0  0  0  0  0  0  0  0  0  0
   13.7258    0.9149    0.0000 H   0  0  0  0  0  0  0  0  0  0  0  0
    9.3267    0.9149    0.0000 H   0  0  0  0  0  0  0  0  0  0  0  0
    8.5297    0.9149    0.0000 H   0  0  0  0  0  0  0  0  0  0  0  0
   19.7190    0.9149    0.0000 H   0  0  0  0  0  0  0  0  0  0  0  0
   18.9220    0.9149    0.0000 H   0  0  0  0  0  0  0  0  0  0  0  0
    4.1306    0.9149    0.0000 H   0  0  0  0  0  0  0  0  0  0  0  0
    3.3335    0.9149    0.0000 H   0  0  0  0  0  0  0  0  0  0  0  0
   12.8598   -0.5349    0.0000 H   0  0  0  0  0  0  0  0  0  0  0  0
   13.6569   -0.5349    0.0000 H   0  0  0  0  0  0  0  0  0  0  0  0
    9.3957   -0.5349    0.0000 H   0  0  0  0  0  0  0  0  0  0  0  0
   10.1928   -0.5349    0.0000 H   0  0  0  0  0  0  0  0  0  0  0  0
   19.7880   -0.5349    0.0000 H   0  0  0  0  0  0  0  0  0  0  0  0
   20.5851   -0.5349    0.0000 H   0  0  0  0  0  0  0  0  0  0  0  0
    2.4675   -0.5349    0.0000 H   0  0  0  0  0  0  0  0  0  0  0  0
    3.2646   -0.5349    0.0000 H   0  0  0  0  0  0  0  0  0  0  0  0
   12.3923    1.0600    0.0000 H   0  0  0  0  0  0  0  0  0  0  0  0
   10.6603    1.0600    0.0000 H   0  0  0  0  0  0  0  0  0  0  0  0
   21.3626   -0.0969    0.0000 H   0  0  0  0  0  0  0  0  0  0  0  0
   21.5895    0.7500    0.0000 H   0  0  0  0  0  0  0  0  0  0  0  0
   20.7426    0.9769    0.0000 H   0  0  0  0  0  0  0  0  0  0  0  0
    2.3100    0.9769    0.0000 H   0  0  0  0  0  0  0  0  0  0  0  0
    1.4631    0.7500    0.0000 H   0  0  0  0  0  0  0  0  0  0  0  0
    1.6900   -0.0969    0.0000 H   0  0  0  0  0  0  0  0  0  0  0  0
  1 22  2  0  0  0  0
  2 18  1  0  0  0  0
  2 22  1  0  0  0  0
  2 61  1  0  0  0  0
  3 19  1  0  0  0  0
  3 22  1  0  0  0  0
  3 62  1  0  0  0  0
  4  6  1  0  0  0  0
  4  8  1  0  0  0  0
  4 25  1  0  0  0  0
  4 26  1  0  0  0  0
  5  7  1  0  0  0  0
  5  9  1  0  0  0  0
  5 27  1  0  0  0  0
  5 28  1  0  0  0  0
  6 10  1  0  0  0  0
  6 29  1  0  0  0  0
  6 30  1  0  0  0  0
  7 11  1  0  0  0  0
  7 31  1  0  0  0  0
  7 32  1  0  0  0  0
  8 12  1  0  0  0  0
  8 33  1  0  0  0  0
  8 34  1  0  0  0  0
  9 13  1  0  0  0  0
  9 35  1  0  0  0  0
  9 36  1  0  0  0  0
 10 14  1  0  0  0  0
 10 37  1  0  0  0  0
 10 38  1  0  0  0  0
 11 15  1  0  0  0  0
 11 39  1  0  0  0  0
 11 40  1  0  0  0  0
 12 16  1  0  0  0  0
 12 41  1  0  0  0  0
 12 42  1  0  0  0  0
 13 17  1  0  0  0  0
 13 43  1  0  0  0  0
 13 44  1  0  0  0  0
 14 18  1  0  0  0  0
 14 45  1  0  0  0  0
 14 46  1  0  0  0  0
 15 19  1  0  0  0  0
 15 47  1  0  0  0  0
 15 48  1  0  0  0  0
 16 20  1  0  0  0  0
 16 49  1  0  0  0  0
 16 50  1  0  0  0  0
 17 21  1  0  0  0  0
 17 51  1  0  0  0  0
 17 52  1  0  0  0  0
 18 53  1  0  0  0  0
 18 54  1  0  0  0  0
 19 55  1  0  0  0  0
 19 56  1  0  0  0  0
 20 23  1  0  0  0  0
 20 57  1  0  0  0  0
 20 58  1  0  0  0  0
 21 24  1  0  0  0  0
 21 59  1  0  0  0  0
 21 60  1  0  0  0  0
 23 63  1  0  0  0  0
 23 64  1  0  0  0  0
 23 65  1  0  0  0  0
 24 66  1  0  0  0  0
 24 67  1  0  0  0  0
 24 68  1  0  0  0  0
M  END
> <PUBCHEM_COMPOUND_CID>
137267

> <PUBCHEM_COMPOUND_CANONICALIZED>
1

> <PUBCHEM_CACTVS_COMPLEXITY>
232

> <PUBCHEM_CACTVS_HBOND_ACCEPTOR>
1

> <PUBCHEM_CACTVS_HBOND_DONOR>
2

> <PUBCHEM_CACTVS_ROTATABLE_BOND>
18

> <PUBCHEM_CACTVS_SUBSKEYS>
AAADcfB7IAAAAAAAAAAAAAAAAAAAAAAAAAAAAAAAAAAAAAAAAAAAHgAQAAAACADBAAQDAALAAAAIAAAAEAAAAAAAAAAAAIAIAACAAAIAgAAEAAAIFgIAAAEQgIAAAAAAAAAAAAAAAAAAAAAAAAAAAAAAAA==

> <PUBCHEM_IUPAC_OPENEYE_NAME>
1,3-didecylurea

> <PUBCHEM_IUPAC_CAS_NAME>
1,3-didecylurea

> <PUBCHEM_IUPAC_NAME_MARKUP>
1,3-didecylurea

> <PUBCHEM_IUPAC_NAME>
1,3-didecylurea

> <PUBCHEM_IUPAC_SYSTEMATIC_NAME>
1,3-didecylurea

> <PUBCHEM_IUPAC_TRADITIONAL_NAME>
1,3-didecylurea

> <PUBCHEM_IUPAC_INCHI>
InChI=1S/C21H44N2O/c1-3-5-7-9-11-13-15-17-19-22-21(24)23-20-18-16-14-12-10-8-6-4-2/h3-20H2,1-2H3,(H2,22,23,24)

> <PUBCHEM_IUPAC_INCHIKEY>
PVJCTMOYESWMEF-UHFFFAOYSA-N

> <PUBCHEM_XLOGP3_AA>
8.4

> <PUBCHEM_EXACT_MASS>
340.345364031

> <PUBCHEM_MOLECULAR_FORMULA>
C21H44N2O

> <PUBCHEM_MOLECULAR_WEIGHT>
340.6

> <PUBCHEM_OPENEYE_CAN_SMILES>
CCCCCCCCCCNC(=O)NCCCCCCCCCC

> <PUBCHEM_OPENEYE_ISO_SMILES>
CCCCCCCCCCNC(=O)NCCCCCCCCCC

> <PUBCHEM_CACTVS_TPSA>
41.1

> <PUBCHEM_MONOISOTOPIC_WEIGHT>
340.345364031

> <PUBCHEM_TOTAL_CHARGE>
0

> <PUBCHEM_HEAVY_ATOM_COUNT>
24

> <PUBCHEM_ATOM_DEF_STEREO_COUNT>
0

> <PUBCHEM_ATOM_UDEF_STEREO_COUNT>
0

> <PUBCHEM_BOND_DEF_STEREO_COUNT>
0

> <PUBCHEM_BOND_UDEF_STEREO_COUNT>
0

> <PUBCHEM_ISOTOPIC_ATOM_COUNT>
0

> <PUBCHEM_COMPONENT_COUNT>
1

> <PUBCHEM_CACTVS_TAUTO_COUNT>
-1

> <PUBCHEM_COORDINATE_TYPE>
1
5
255

$$$$
