142301
  -OEChem-11012400513D

 24 24  0     0  0  0  0  0  0999 V2000
    0.5978   -2.2566   -0.3556 O   0  5  0  0  0  0  0  0  0  0  0  0
    1.7638    2.2673   -0.1614 O   0  5  0  0  0  0  0  0  0  0  0  0
    2.5737   -0.2256    2.0284 O   0  5  0  0  0  0  0  0  0  0  0  0
    1.5456   -1.0854   -1.9450 O   0  0  0  0  0  0  0  0  0  0  0  0
    0.4512    1.3634   -1.6660 O   0  0  0  0  0  0  0  0  0  0  0  0
    3.5055   -0.1330    0.0435 O   0  0  0  0  0  0  0  0  0  0  0  0
    1.0679   -1.2032   -0.8077 N   0  3  0  0  0  0  0  0  0  0  0  0
    1.0959    1.3237   -0.6078 N   0  3  0  0  0  0  0  0  0  0  0  0
    2.5185   -0.1296    0.7950 N   0  3  0  0  0  0  0  0  0  0  0  0
    1.1337   -0.0089    0.1434 C   0  0  0  0  0  0  0  0  0  0  0  0
    0.0083   -0.0308    1.2025 C   0  0  0  0  0  0  0  0  0  0  0  0
   -1.4178   -0.0043    0.6883 C   0  0  0  0  0  0  0  0  0  0  0  0
   -2.0407    1.2150    0.4948 C   0  0  0  0  0  0  0  0  0  0  0  0
   -2.0604   -1.2000    0.4249 C   0  0  0  0  0  0  0  0  0  0  0  0
   -3.3525    1.2394    0.0215 C   0  0  0  0  0  0  0  0  0  0  0  0
   -3.3723   -1.1755   -0.0486 C   0  0  0  0  0  0  0  0  0  0  0  0
   -4.0183    0.0443   -0.2502 C   0  0  0  0  0  0  0  0  0  0  0  0
    0.1092   -0.9151    1.8494 H   0  0  0  0  0  0  0  0  0  0  0  0
    0.1322    0.8196    1.8902 H   0  0  0  0  0  0  0  0  0  0  0  0
   -1.5333    2.1514    0.7070 H   0  0  0  0  0  0  0  0  0  0  0  0
   -1.5999   -2.1617    0.6197 H   0  0  0  0  0  0  0  0  0  0  0  0
   -3.8561    2.1890   -0.1342 H   0  0  0  0  0  0  0  0  0  0  0  0
   -3.8950   -2.1061   -0.2493 H   0  0  0  0  0  0  0  0  0  0  0  0
   -5.0407    0.0633   -0.6160 H   0  0  0  0  0  0  0  0  0  0  0  0
  1  7  1  0  0  0  0
  2  8  1  0  0  0  0
  3  9  1  0  0  0  0
  4  7  2  0  0  0  0
  5  8  2  0  0  0  0
  6  9  2  0  0  0  0
  7 10  1  0  0  0  0
  8 10  1  0  0  0  0
  9 10  1  0  0  0  0
 10 11  1  0  0  0  0
 11 12  1  0  0  0  0
 11 18  1  0  0  0  0
 11 19  1  0  0  0  0
 12 13  2  0  0  0  0
 12 14  1  0  0  0  0
 13 15  1  0  0  0  0
 13 20  1  0  0  0  0
 14 16  2  0  0  0  0
 14 21  1  0  0  0  0
 15 17  2  0  0  0  0
 15 22  1  0  0  0  0
 16 17  1  0  0  0  0
 16 23  1  0  0  0  0
 17 24  1  0  0  0  0
M  CHG  6   1  -1   2  -1   3  -1   7   1   8   1   9   1
M  END
> <PUBCHEM_COMPOUND_CID>
142301

> <PUBCHEM_CONFORMER_RMSD>
0.6

> <PUBCHEM_CONFORMER_DIVERSEORDER>
1
6
5
4
8
2
3
7

> <PUBCHEM_MMFF94_PARTIAL_CHARGES>
22
1 -0.52
10 0.72
11 0.14
12 -0.14
13 -0.15
14 -0.15
15 -0.15
16 -0.15
17 -0.15
2 -0.52
20 0.15
21 0.15
22 0.15
23 0.15
24 0.15
3 -0.52
4 -0.52
5 -0.52
6 -0.52
7 0.8
8 0.8
9 0.8

> <PUBCHEM_EFFECTIVE_ROTOR_COUNT>
5

> <PUBCHEM_PHARMACOPHORE_FEATURES>
10
1 1 acceptor
1 1 anion
1 2 acceptor
1 2 anion
1 3 acceptor
1 3 anion
1 4 acceptor
1 5 acceptor
1 6 acceptor
6 12 13 14 15 16 17 rings

> <PUBCHEM_HEAVY_ATOM_COUNT>
17

> <PUBCHEM_ATOM_DEF_STEREO_COUNT>
0

> <PUBCHEM_ATOM_UDEF_STEREO_COUNT>
0

> <PUBCHEM_BOND_DEF_STEREO_COUNT>
0

> <PUBCHEM_BOND_UDEF_STEREO_COUNT>
0

> <PUBCHEM_ISOTOPIC_ATOM_COUNT>
0

> <PUBCHEM_COMPONENT_COUNT>
1

> <PUBCHEM_CACTVS_TAUTO_COUNT>
1

> <PUBCHEM_CONFORMER_ID>
00022BDD00000001

> <PUBCHEM_MMFF94_ENERGY>
53.6911

> <PUBCHEM_FEATURE_SELFOVERLAP>
51.007

> <PUBCHEM_SHAPE_FINGERPRINT>
13132413 78 16950558827272854404
13134695 92 17240469312894351420
14344429 50 17749395857633030024
14993402 34 18409737287416091486
15775835 57 17385724686270533545
15852999 172 18201995508687583883
16945 1 18337964389416887385
1813 80 16299788612762740794
18186145 218 18056487153922802673
20201158 50 18343864403261039955
21524375 3 17684386322129469292
21730867 7 17489868219766219899
23402539 116 18337094714484707519
23419403 2 16259218690591430779
23557571 272 18131633392060805763
23559900 14 18129943365020942898
2748010 2 18192447465733668081
3248919 1 18343588443138291113
74978 22 17458351883134582521
7832392 63 18124324796352811841

> <PUBCHEM_SHAPE_MULTIPOLES>
299.69
5.63
1.79
1.35
2.58
0.11
0.09
0.08
-0.39
-0.08
0.46
-1.02
-0.08
0.02

> <PUBCHEM_SHAPE_SELFOVERLAP>
622.844

> <PUBCHEM_SHAPE_VOLUME>
167.2

> <PUBCHEM_COORDINATE_TYPE>
2
5
10

$$$$
