80056
  -OEChem-11012400483D

 13 13  0     1  0  0  0  0  0999 V2000
    0.0017    1.3945    0.0007 S   0  0  0  0  0  0  0  0  0  0  0  0
    0.6031   -0.1590   -0.4377 C   0  0  2  0  0  0  0  0  0  0  0  0
   -0.6062   -0.1602    0.4360 C   0  0  2  0  0  0  0  0  0  0  0  0
    1.9216   -0.5384    0.1380 C   0  0  0  0  0  0  0  0  0  0  0  0
   -1.9201   -0.5370   -0.1370 C   0  0  0  0  0  0  0  0  0  0  0  0
    0.5080   -0.4301   -1.4807 H   0  0  0  0  0  0  0  0  0  0  0  0
   -0.5103   -0.4327    1.4786 H   0  0  0  0  0  0  0  0  0  0  0  0
    2.7347   -0.0559   -0.4151 H   0  0  0  0  0  0  0  0  0  0  0  0
    2.0245   -0.2739    1.1967 H   0  0  0  0  0  0  0  0  0  0  0  0
    2.0616   -1.6214    0.0545 H   0  0  0  0  0  0  0  0  0  0  0  0
   -2.0614   -1.6200   -0.0564 H   0  0  0  0  0  0  0  0  0  0  0  0
   -2.7337   -0.0562    0.4169 H   0  0  0  0  0  0  0  0  0  0  0  0
   -2.0254   -0.2707   -1.1952 H   0  0  0  0  0  0  0  0  0  0  0  0
  1  2  1  0  0  0  0
  1  3  1  0  0  0  0
  2  3  1  0  0  0  0
  2  4  1  0  0  0  0
  2  6  1  0  0  0  0
  3  5  1  0  0  0  0
  3  7  1  0  0  0  0
  4  8  1  0  0  0  0
  4  9  1  0  0  0  0
  4 10  1  0  0  0  0
  5 11  1  0  0  0  0
  5 12  1  0  0  0  0
  5 13  1  0  0  0  0
M  END
> <PUBCHEM_COMPOUND_CID>
80056

> <PUBCHEM_CONFORMER_RMSD>
0.4

> <PUBCHEM_CONFORMER_DIVERSEORDER>
1

> <PUBCHEM_MMFF94_PARTIAL_CHARGES>
7
1 -0.28
2 -0.05
3 -0.05
4 0.09
5 0.09
6 0.1
7 0.1

> <PUBCHEM_EFFECTIVE_ROTOR_COUNT>
0.6

> <PUBCHEM_PHARMACOPHORE_FEATURES>
0

> <PUBCHEM_HEAVY_ATOM_COUNT>
5

> <PUBCHEM_ATOM_DEF_STEREO_COUNT>
2

> <PUBCHEM_ATOM_UDEF_STEREO_COUNT>
0

> <PUBCHEM_BOND_DEF_STEREO_COUNT>
0

> <PUBCHEM_BOND_UDEF_STEREO_COUNT>
0

> <PUBCHEM_ISOTOPIC_ATOM_COUNT>
0

> <PUBCHEM_COMPONENT_COUNT>
1

> <PUBCHEM_CACTVS_TAUTO_COUNT>
1

> <PUBCHEM_CONFORMER_ID>
000138B800000001

> <PUBCHEM_MMFF94_ENERGY>
8.5589

> <PUBCHEM_FEATURE_SELFOVERLAP>
0

> <PUBCHEM_SHAPE_FINGERPRINT>
139733 1 9295289430275318882
16714656 1 18268718220477343038
20096714 4 17836935864065024525
21015797 1 10086480392562583673
21040471 1 17617946824624284988
29004967 10 18409451418149909819
5460574 1 9655580707600442914
5943 1 13956503637228848505

> <PUBCHEM_SHAPE_MULTIPOLES>
106.75
2.2
1.2
0.71
0
0.54
0
-0.84
0
0
0
0
0
-0.04

> <PUBCHEM_SHAPE_SELFOVERLAP>
187.846

> <PUBCHEM_SHAPE_VOLUME>
72.4

> <PUBCHEM_COORDINATE_TYPE>
2
5
10

$$$$
