140106
  -OEChem-11012400423D

 20 20  0     0  0  0  0  0  0999 V2000
    1.4132    0.6324    0.8318 O   0  0  0  0  0  0  0  0  0  0  0  0
    1.1839   -1.3316   -0.5383 O   0  0  0  0  0  0  0  0  0  0  0  0
   -0.0087    1.3324   -0.9603 O   0  0  0  0  0  0  0  0  0  0  0  0
   -1.1655   -1.3426   -0.5394 O   0  0  0  0  0  0  0  0  0  0  0  0
   -1.4221    0.6162    0.8323 O   0  0  0  0  0  0  0  0  0  0  0  0
    1.9957   -0.5811    0.3601 C   0  0  0  0  0  0  0  0  0  0  0  0
    1.1784    1.5829   -0.2063 C   0  0  0  0  0  0  0  0  0  0  0  0
    0.0113   -1.8732    0.0663 C   0  0  0  0  0  0  0  0  0  0  0  0
   -1.1983    1.5694   -0.2057 C   0  0  0  0  0  0  0  0  0  0  0  0
   -1.9879   -0.6047    0.3595 C   0  0  0  0  0  0  0  0  0  0  0  0
    2.9407   -0.3539   -0.1458 H   0  0  0  0  0  0  0  0  0  0  0  0
    2.2455   -1.2009    1.2288 H   0  0  0  0  0  0  0  0  0  0  0  0
    2.0265    1.6037   -0.8999 H   0  0  0  0  0  0  0  0  0  0  0  0
    1.1182    2.5773    0.2503 H   0  0  0  0  0  0  0  0  0  0  0  0
    0.0105   -1.7552    1.1576 H   0  0  0  0  0  0  0  0  0  0  0  0
    0.0164   -2.9469   -0.1451 H   0  0  0  0  0  0  0  0  0  0  0  0
   -1.1494    2.5642    0.2508 H   0  0  0  0  0  0  0  0  0  0  0  0
   -2.0469    1.5806   -0.8991 H   0  0  0  0  0  0  0  0  0  0  0  0
   -2.2299   -1.2286    1.2274 H   0  0  0  0  0  0  0  0  0  0  0  0
   -2.9357   -0.3898   -0.1466 H   0  0  0  0  0  0  0  0  0  0  0  0
  1  6  1  0  0  0  0
  1  7  1  0  0  0  0
  2  6  1  0  0  0  0
  2  8  1  0  0  0  0
  3  7  1  0  0  0  0
  3  9  1  0  0  0  0
  4  8  1  0  0  0  0
  4 10  1  0  0  0  0
  5  9  1  0  0  0  0
  5 10  1  0  0  0  0
  6 11  1  0  0  0  0
  6 12  1  0  0  0  0
  7 13  1  0  0  0  0
  7 14  1  0  0  0  0
  8 15  1  0  0  0  0
  8 16  1  0  0  0  0
  9 17  1  0  0  0  0
  9 18  1  0  0  0  0
 10 19  1  0  0  0  0
 10 20  1  0  0  0  0
M  END
> <PUBCHEM_COMPOUND_CID>
140106

> <PUBCHEM_CONFORMER_RMSD>
0.4

> <PUBCHEM_CONFORMER_DIVERSEORDER>
1
11
7
8
9
10
2
3
5
6
4

> <PUBCHEM_MMFF94_PARTIAL_CHARGES>
10
1 -0.56
10 0.56
2 -0.56
3 -0.56
4 -0.56
5 -0.56
6 0.56
7 0.56
8 0.56
9 0.56

> <PUBCHEM_EFFECTIVE_ROTOR_COUNT>
2

> <PUBCHEM_PHARMACOPHORE_FEATURES>
5
1 1 acceptor
1 2 acceptor
1 3 acceptor
1 4 acceptor
1 5 acceptor

> <PUBCHEM_HEAVY_ATOM_COUNT>
10

> <PUBCHEM_ATOM_DEF_STEREO_COUNT>
0

> <PUBCHEM_ATOM_UDEF_STEREO_COUNT>
0

> <PUBCHEM_BOND_DEF_STEREO_COUNT>
0

> <PUBCHEM_BOND_UDEF_STEREO_COUNT>
0

> <PUBCHEM_ISOTOPIC_ATOM_COUNT>
0

> <PUBCHEM_COMPONENT_COUNT>
1

> <PUBCHEM_CACTVS_TAUTO_COUNT>
1

> <PUBCHEM_CONFORMER_ID>
0002234A00000001

> <PUBCHEM_MMFF94_ENERGY>
28.9471

> <PUBCHEM_FEATURE_SELFOVERLAP>
25.548

> <PUBCHEM_SHAPE_FINGERPRINT>
18185500 45 17689430911531160178
21040471 1 18052261991986323123
21922407 69 16126651883494763200
241688 4 18409448055179974091
2748010 2 18051131397680446934
5084963 1 18272088300905022722
528862 383 17827649367534869059
66348 1 17762619486416980179

> <PUBCHEM_SHAPE_MULTIPOLES>
176.45
2.38
2.15
0.84
0
0.04
-0.02
0.14
-0.4
0
0.33
0
-0.09
0

> <PUBCHEM_SHAPE_SELFOVERLAP>
334.873

> <PUBCHEM_SHAPE_VOLUME>
103.6

> <PUBCHEM_COORDINATE_TYPE>
2
5
10

$$$$
