79664
  -OEChem-11012401163D

 19 19  0     0  0  0  0  0  0999 V2000
    1.3797    0.0029   -0.4878 S   0  0  0  0  0  0  0  0  0  0  0  0
    1.7333   -1.2503   -1.1437 O   0  0  0  0  0  0  0  0  0  0  0  0
    1.7116    1.2635   -1.1405 O   0  0  0  0  0  0  0  0  0  0  0  0
   -0.3382    0.0004   -0.1762 C   0  0  0  0  0  0  0  0  0  0  0  0
   -1.0252    1.2074   -0.0464 C   0  0  0  0  0  0  0  0  0  0  0  0
   -1.0234   -1.2085   -0.0557 C   0  0  0  0  0  0  0  0  0  0  0  0
   -2.3974    1.2055    0.2042 C   0  0  0  0  0  0  0  0  0  0  0  0
   -2.3957   -1.2105    0.1947 C   0  0  0  0  0  0  0  0  0  0  0  0
    2.0541   -0.0038    1.1086 C   0  0  0  0  0  0  0  0  0  0  0  0
   -3.0826   -0.0034    0.3246 C   0  0  0  0  0  0  0  0  0  0  0  0
    3.3839   -0.0033    1.2183 C   0  0  0  0  0  0  0  0  0  0  0  0
   -0.5111    2.1608   -0.1293 H   0  0  0  0  0  0  0  0  0  0  0  0
   -0.5075   -2.1602   -0.1467 H   0  0  0  0  0  0  0  0  0  0  0  0
   -2.9321    2.1452    0.3071 H   0  0  0  0  0  0  0  0  0  0  0  0
   -2.9291   -2.1517    0.2902 H   0  0  0  0  0  0  0  0  0  0  0  0
    1.4137   -0.0083    1.9827 H   0  0  0  0  0  0  0  0  0  0  0  0
   -4.1509   -0.0049    0.5204 H   0  0  0  0  0  0  0  0  0  0  0  0
    3.8482   -0.0075    2.1988 H   0  0  0  0  0  0  0  0  0  0  0  0
    4.0384    0.0014    0.3534 H   0  0  0  0  0  0  0  0  0  0  0  0
  1  2  2  0  0  0  0
  1  3  2  0  0  0  0
  1  4  1  0  0  0  0
  1  9  1  0  0  0  0
  4  5  2  0  0  0  0
  4  6  1  0  0  0  0
  5  7  1  0  0  0  0
  5 12  1  0  0  0  0
  6  8  2  0  0  0  0
  6 13  1  0  0  0  0
  7 10  2  0  0  0  0
  7 14  1  0  0  0  0
  8 10  1  0  0  0  0
  8 15  1  0  0  0  0
  9 11  2  0  0  0  0
  9 16  1  0  0  0  0
 10 17  1  0  0  0  0
 11 18  1  0  0  0  0
 11 19  1  0  0  0  0
M  END
> <PUBCHEM_COMPOUND_CID>
79664

> <PUBCHEM_CONFORMER_RMSD>
0.4

> <PUBCHEM_CONFORMER_DIVERSEORDER>
1
4
2
3

> <PUBCHEM_MMFF94_PARTIAL_CHARGES>
19
1 1.33
10 -0.15
11 -0.3
12 0.15
13 0.15
14 0.15
15 0.15
16 0.15
17 0.15
18 0.15
19 0.15
2 -0.65
3 -0.65
4 -0.01
5 -0.15
6 -0.15
7 -0.15
8 -0.15
9 -0.17

> <PUBCHEM_EFFECTIVE_ROTOR_COUNT>
2

> <PUBCHEM_PHARMACOPHORE_FEATURES>
3
1 2 acceptor
1 3 acceptor
6 4 5 6 7 8 10 rings

> <PUBCHEM_HEAVY_ATOM_COUNT>
11

> <PUBCHEM_ATOM_DEF_STEREO_COUNT>
0

> <PUBCHEM_ATOM_UDEF_STEREO_COUNT>
0

> <PUBCHEM_BOND_DEF_STEREO_COUNT>
0

> <PUBCHEM_BOND_UDEF_STEREO_COUNT>
0

> <PUBCHEM_ISOTOPIC_ATOM_COUNT>
0

> <PUBCHEM_COMPONENT_COUNT>
1

> <PUBCHEM_CACTVS_TAUTO_COUNT>
1

> <PUBCHEM_CONFORMER_ID>
0001373000000001

> <PUBCHEM_MMFF94_ENERGY>
15.3332

> <PUBCHEM_FEATURE_SELFOVERLAP>
15.241

> <PUBCHEM_SHAPE_FINGERPRINT>
10857977 72 18343303703743705819
12251169 10 18336817667498102888
12932764 1 17203620280412056583
13839132 238 18058725780423048728
15219456 202 17917991642310893058
16945 1 18188216403308793271
20201158 50 17918269848616901699
20645464 45 17775282768108622691
20653091 64 17749391515800947328
20715346 28 18130791126866233927
20871998 184 18129377266772331591
21040471 1 18339932493713571869
22445834 79 17749379339215216418
23402539 116 18269815606724074741
23552423 10 18334306352764883895
2748010 2 18049732823691038639
3248919 1 18411422812729010269
369184 2 17132114619836662235
5084963 1 18198921226836255663

> <PUBCHEM_SHAPE_MULTIPOLES>
218.49
4.88
1.37
1.08
0.83
0
-0.01
-0.01
1.52
-0.55
-0.21
0.93
0
0

> <PUBCHEM_SHAPE_SELFOVERLAP>
437.744

> <PUBCHEM_SHAPE_VOLUME>
128.2

> <PUBCHEM_COORDINATE_TYPE>
2
5
10

$$$$
