137596
  -OEChem-11012401193D

 13 13  0     0  0  0  0  0  0999 V2000
   -2.0592   -2.1517    0.3956 N   0  0  0  0  0  0  0  0  0  0  0  0
   -2.0587    2.1515    0.3948 N   0  0  0  0  0  0  0  0  0  0  0  0
    2.0578   -2.1541    0.3956 N   0  0  0  0  0  0  0  0  0  0  0  0
    2.0556    2.1553    0.3959 N   0  0  0  0  0  0  0  0  0  0  0  0
   -0.7491   -0.0005   -0.2427 C   0  0  0  0  0  0  0  0  0  0  0  0
    0.7515   -0.0001   -0.2413 C   0  0  0  0  0  0  0  0  0  0  0  0
    0.0025   -0.0006   -1.5415 C   0  0  0  0  0  0  0  0  0  0  0  0
   -1.4744   -1.1912    0.1106 C   0  0  0  0  0  0  0  0  0  0  0  0
   -1.4740    1.1908    0.1102 C   0  0  0  0  0  0  0  0  0  0  0  0
    1.4745   -1.1924    0.1113 C   0  0  0  0  0  0  0  0  0  0  0  0
    1.4735    1.1929    0.1114 C   0  0  0  0  0  0  0  0  0  0  0  0
    0.0029   -0.9029   -2.1461 H   0  0  0  0  0  0  0  0  0  0  0  0
    0.0026    0.9013   -2.1466 H   0  0  0  0  0  0  0  0  0  0  0  0
  1  8  3  0  0  0  0
  2  9  3  0  0  0  0
  3 10  3  0  0  0  0
  4 11  3  0  0  0  0
  5  6  1  0  0  0  0
  5  7  1  0  0  0  0
  5  8  1  0  0  0  0
  5  9  1  0  0  0  0
  6  7  1  0  0  0  0
  6 10  1  0  0  0  0
  6 11  1  0  0  0  0
  7 12  1  0  0  0  0
  7 13  1  0  0  0  0
M  END
> <PUBCHEM_COMPOUND_CID>
137596

> <PUBCHEM_CONFORMER_RMSD>
0.4

> <PUBCHEM_CONFORMER_DIVERSEORDER>
1

> <PUBCHEM_MMFF94_PARTIAL_CHARGES>
13
1 -0.56
10 0.45
11 0.45
12 0.1
13 0.1
2 -0.56
3 -0.56
4 -0.56
5 0.21
6 0.21
7 -0.2
8 0.45
9 0.45

> <PUBCHEM_EFFECTIVE_ROTOR_COUNT>
0.6

> <PUBCHEM_PHARMACOPHORE_FEATURES>
4
1 1 acceptor
1 2 acceptor
1 3 acceptor
1 4 acceptor

> <PUBCHEM_HEAVY_ATOM_COUNT>
11

> <PUBCHEM_ATOM_DEF_STEREO_COUNT>
0

> <PUBCHEM_ATOM_UDEF_STEREO_COUNT>
0

> <PUBCHEM_BOND_DEF_STEREO_COUNT>
0

> <PUBCHEM_BOND_UDEF_STEREO_COUNT>
0

> <PUBCHEM_ISOTOPIC_ATOM_COUNT>
0

> <PUBCHEM_COMPONENT_COUNT>
1

> <PUBCHEM_CACTVS_TAUTO_COUNT>
1

> <PUBCHEM_CONFORMER_ID>
0002197C00000001

> <PUBCHEM_MMFF94_ENERGY>
12.4008

> <PUBCHEM_FEATURE_SELFOVERLAP>
20.3

> <PUBCHEM_SHAPE_FINGERPRINT>
12423570 1 12435371038787841678
16945 1 18410573985151451146
193761 8 18410856563934756913
20511035 2 18059281076829163952
21040471 1 18193852448204516477
5084963 1 17914069843280275416
68250623 7 18411144627560202190

> <PUBCHEM_SHAPE_MULTIPOLES>
206.45
2.84
2.55
0.88
0
0
0.36
0
-0.65
0
-0.68
0
0
0

> <PUBCHEM_SHAPE_SELFOVERLAP>
429.88

> <PUBCHEM_SHAPE_VOLUME>
111.1

> <PUBCHEM_COORDINATE_TYPE>
2
5
10

$$$$
