20623
  -OEChem-11012400353D

 13 12  0     0  0  0  0  0  0999 V2000
   -0.7508    0.2420    0.3606 O   0  0  0  0  0  0  0  0  0  0  0  0
    1.9821    1.3803    0.2144 O   0  5  0  0  0  0  0  0  0  0  0  0
    2.6510   -0.3048   -1.0375 O   0  0  0  0  0  0  0  0  0  0  0  0
   -2.3882   -1.0133   -0.4396 O   0  5  0  0  0  0  0  0  0  0  0  0
   -2.7769    1.1579   -0.1142 O   0  0  0  0  0  0  0  0  0  0  0  0
    2.0453    0.1708   -0.0625 N   0  3  0  0  0  0  0  0  0  0  0  0
   -2.0910    0.1333   -0.1024 N   0  3  0  0  0  0  0  0  0  0  0  0
    1.3691   -0.7753    0.8448 C   0  0  0  0  0  0  0  0  0  0  0  0
   -0.0405   -0.9907    0.3365 C   0  0  0  0  0  0  0  0  0  0  0  0
    1.3790   -0.3247    1.8427 H   0  0  0  0  0  0  0  0  0  0  0  0
    1.9480   -1.7035    0.8586 H   0  0  0  0  0  0  0  0  0  0  0  0
   -0.5321   -1.7180    0.9947 H   0  0  0  0  0  0  0  0  0  0  0  0
   -0.0053   -1.3887   -0.6864 H   0  0  0  0  0  0  0  0  0  0  0  0
  1  7  1  0  0  0  0
  1  9  1  0  0  0  0
  2  6  1  0  0  0  0
  3  6  2  0  0  0  0
  4  7  1  0  0  0  0
  5  7  2  0  0  0  0
  6  8  1  0  0  0  0
  8  9  1  0  0  0  0
  8 10  1  0  0  0  0
  8 11  1  0  0  0  0
  9 12  1  0  0  0  0
  9 13  1  0  0  0  0
M  CHG  4   2  -1   4  -1   6   1   7   1
M  END
> <PUBCHEM_COMPOUND_CID>
20623

> <PUBCHEM_CONFORMER_RMSD>
0.6

> <PUBCHEM_CONFORMER_DIVERSEORDER>
1
9
8
4
14
11
7
17
15
18
13
6
16
10
3
5
2
12

> <PUBCHEM_MMFF94_PARTIAL_CHARGES>
9
1 -0.27
2 -0.52
3 -0.52
4 -0.52
5 -0.52
6 0.8
7 1.03
8 0.24
9 0.28

> <PUBCHEM_EFFECTIVE_ROTOR_COUNT>
4

> <PUBCHEM_PHARMACOPHORE_FEATURES>
5
1 2 acceptor
1 2 anion
1 3 acceptor
1 4 acceptor
1 5 acceptor

> <PUBCHEM_HEAVY_ATOM_COUNT>
9

> <PUBCHEM_ATOM_DEF_STEREO_COUNT>
0

> <PUBCHEM_ATOM_UDEF_STEREO_COUNT>
0

> <PUBCHEM_BOND_DEF_STEREO_COUNT>
0

> <PUBCHEM_BOND_UDEF_STEREO_COUNT>
0

> <PUBCHEM_ISOTOPIC_ATOM_COUNT>
0

> <PUBCHEM_COMPONENT_COUNT>
1

> <PUBCHEM_CACTVS_TAUTO_COUNT>
2

> <PUBCHEM_CONFORMER_ID>
0000508F00000001

> <PUBCHEM_MMFF94_ENERGY>
14.9275

> <PUBCHEM_FEATURE_SELFOVERLAP>
25.523

> <PUBCHEM_SHAPE_FINGERPRINT>
10857977 72 8574423197393713855
12897270 3 18411979178365808383
12932764 1 18333730204392513299
14390081 3 18334853930951075537
20096714 4 18261109694724050770
21040471 1 18040435533544382986
23552423 10 18264480698680761059
29004967 10 12463572885085937750
3248919 1 17418371385285198723

> <PUBCHEM_SHAPE_MULTIPOLES>
145.91
4.22
1.2
0.79
1.21
0.14
0.06
0.9
0.88
0.09
-0.11
-0.38
-0.12
-0.12

> <PUBCHEM_SHAPE_SELFOVERLAP>
272.129

> <PUBCHEM_SHAPE_VOLUME>
91.6

> <PUBCHEM_COORDINATE_TYPE>
2
5
10

$$$$
