2751963
  -OEChem-11012401283D

 54 56  0     0  0  0  0  0  0999 V2000
    0.9626    0.4507    3.1446 O   0  0  0  0  0  0  0  0  0  0  0  0
   -4.4326   -0.8541   -1.1345 C   0  0  0  0  0  0  0  0  0  0  0  0
   -3.5475    0.3645   -1.4195 C   0  0  0  0  0  0  0  0  0  0  0  0
   -3.7773   -2.1697   -1.5726 C   0  0  0  0  0  0  0  0  0  0  0  0
   -4.0555    1.6118   -0.6970 C   0  0  0  0  0  0  0  0  0  0  0  0
   -3.0081   -2.8994   -0.4608 C   0  0  0  0  0  0  0  0  0  0  0  0
   -3.1875    2.8483   -0.9499 C   0  0  0  0  0  0  0  0  0  0  0  0
   -1.9194   -2.0583    0.2051 C   0  0  0  0  0  0  0  0  0  0  0  0
   -1.7195    2.7360   -0.5163 C   0  0  0  0  0  0  0  0  0  0  0  0
   -1.0845   -2.8740    1.1940 C   0  0  0  0  0  0  0  0  0  0  0  0
   -1.5408    2.4425    0.9779 C   0  0  0  0  0  0  0  0  0  0  0  0
   -0.1787   -1.9916    2.0683 C   0  0  0  0  0  0  0  0  0  0  0  0
   -0.0849    2.5843    1.4431 C   0  0  0  0  0  0  0  0  0  0  0  0
    0.7959   -1.0791    1.3500 C   0  0  0  0  0  0  0  0  0  0  0  0
    0.8185    1.4520    1.0024 C   0  0  0  0  0  0  0  0  0  0  0  0
    0.9111    0.2890    1.9280 C   0  0  0  0  0  0  0  0  0  0  0  0
    1.5514   -1.4885    0.3192 C   0  0  0  0  0  0  0  0  0  0  0  0
    1.5887    1.5632   -0.0907 C   0  0  0  0  0  0  0  0  0  0  0  0
    2.6072   -0.7504   -0.3887 C   0  0  0  0  0  0  0  0  0  0  0  0
    2.6234    0.6402   -0.5765 C   0  0  0  0  0  0  0  0  0  0  0  0
    3.6396   -1.5265   -0.9544 C   0  0  0  0  0  0  0  0  0  0  0  0
    3.6714    1.2152   -1.3243 C   0  0  0  0  0  0  0  0  0  0  0  0
    4.6752   -0.9402   -1.6808 C   0  0  0  0  0  0  0  0  0  0  0  0
    4.6912    0.4340   -1.8663 C   0  0  0  0  0  0  0  0  0  0  0  0
   -5.3705   -0.7256   -1.6894 H   0  0  0  0  0  0  0  0  0  0  0  0
   -4.7035   -0.9036   -0.0733 H   0  0  0  0  0  0  0  0  0  0  0  0
   -3.5220    0.5478   -2.5008 H   0  0  0  0  0  0  0  0  0  0  0  0
   -2.5192    0.1634   -1.1154 H   0  0  0  0  0  0  0  0  0  0  0  0
   -3.1178   -2.0012   -2.4324 H   0  0  0  0  0  0  0  0  0  0  0  0
   -4.5672   -2.8486   -1.9183 H   0  0  0  0  0  0  0  0  0  0  0  0
   -4.1193    1.4196    0.3803 H   0  0  0  0  0  0  0  0  0  0  0  0
   -5.0768    1.8300   -1.0331 H   0  0  0  0  0  0  0  0  0  0  0  0
   -2.5601   -3.8038   -0.8905 H   0  0  0  0  0  0  0  0  0  0  0  0
   -3.7199   -3.2360    0.3034 H   0  0  0  0  0  0  0  0  0  0  0  0
   -3.6437    3.7018   -0.4328 H   0  0  0  0  0  0  0  0  0  0  0  0
   -3.2142    3.0877   -2.0203 H   0  0  0  0  0  0  0  0  0  0  0  0
   -2.3810   -1.2217    0.7416 H   0  0  0  0  0  0  0  0  0  0  0  0
   -1.2636   -1.6420   -0.5673 H   0  0  0  0  0  0  0  0  0  0  0  0
   -1.2298    3.6886   -0.7549 H   0  0  0  0  0  0  0  0  0  0  0  0
   -1.2107    1.9737   -1.1157 H   0  0  0  0  0  0  0  0  0  0  0  0
   -0.4905   -3.6199    0.6532 H   0  0  0  0  0  0  0  0  0  0  0  0
   -1.7526   -3.4352    1.8593 H   0  0  0  0  0  0  0  0  0  0  0  0
   -1.9115    1.4392    1.2177 H   0  0  0  0  0  0  0  0  0  0  0  0
   -2.1504    3.1529    1.5502 H   0  0  0  0  0  0  0  0  0  0  0  0
    0.3913   -2.6349    2.7509 H   0  0  0  0  0  0  0  0  0  0  0  0
   -0.8379   -1.3878    2.7065 H   0  0  0  0  0  0  0  0  0  0  0  0
   -0.0766    2.6515    2.5382 H   0  0  0  0  0  0  0  0  0  0  0  0
    0.3170    3.5464    1.0986 H   0  0  0  0  0  0  0  0  0  0  0  0
    1.4343   -2.5181   -0.0157 H   0  0  0  0  0  0  0  0  0  0  0  0
    1.4918    2.4750   -0.6801 H   0  0  0  0  0  0  0  0  0  0  0  0
    3.6491   -2.6084   -0.8310 H   0  0  0  0  0  0  0  0  0  0  0  0
    3.7059    2.2907   -1.4917 H   0  0  0  0  0  0  0  0  0  0  0  0
    5.4620   -1.5581   -2.1029 H   0  0  0  0  0  0  0  0  0  0  0  0
    5.4905    0.8998   -2.4347 H   0  0  0  0  0  0  0  0  0  0  0  0
  1 16  2  0  0  0  0
  2  3  1  0  0  0  0
  2  4  1  0  0  0  0
  2 25  1  0  0  0  0
  2 26  1  0  0  0  0
  3  5  1  0  0  0  0
  3 27  1  0  0  0  0
  3 28  1  0  0  0  0
  4  6  1  0  0  0  0
  4 29  1  0  0  0  0
  4 30  1  0  0  0  0
  5  7  1  0  0  0  0
  5 31  1  0  0  0  0
  5 32  1  0  0  0  0
  6  8  1  0  0  0  0
  6 33  1  0  0  0  0
  6 34  1  0  0  0  0
  7  9  1  0  0  0  0
  7 35  1  0  0  0  0
  7 36  1  0  0  0  0
  8 10  1  0  0  0  0
  8 37  1  0  0  0  0
  8 38  1  0  0  0  0
  9 11  1  0  0  0  0
  9 39  1  0  0  0  0
  9 40  1  0  0  0  0
 10 12  1  0  0  0  0
 10 41  1  0  0  0  0
 10 42  1  0  0  0  0
 11 13  1  0  0  0  0
 11 43  1  0  0  0  0
 11 44  1  0  0  0  0
 12 14  1  0  0  0  0
 12 45  1  0  0  0  0
 12 46  1  0  0  0  0
 13 15  1  0  0  0  0
 13 47  1  0  0  0  0
 13 48  1  0  0  0  0
 14 16  1  0  0  0  0
 14 17  2  0  0  0  0
 15 16  1  0  0  0  0
 15 18  2  0  0  0  0
 17 19  1  0  0  0  0
 17 49  1  0  0  0  0
 18 20  1  0  0  0  0
 18 50  1  0  0  0  0
 19 20  1  0  0  0  0
 19 21  2  0  0  0  0
 20 22  2  0  0  0  0
 21 23  1  0  0  0  0
 21 51  1  0  0  0  0
 22 24  1  0  0  0  0
 22 52  1  0  0  0  0
 23 24  2  0  0  0  0
 23 53  1  0  0  0  0
 24 54  1  0  0  0  0
M  END
> <PUBCHEM_COMPOUND_CID>
2751963

> <PUBCHEM_CONFORMER_RMSD>
0.6

> <PUBCHEM_CONFORMER_DIVERSEORDER>
1
38
28
42
43
19
33
37
5
16
4
32
36
34
7
13
17
48
35
41
26
39
21
18
30
40
46
6
12
45
25
10
24
22
11
44
3
23
8
2
20
50
14
31
49
9
15
47
29
27

> <PUBCHEM_MMFF94_PARTIAL_CHARGES>
20
1 -0.57
12 0.14
13 0.14
14 -0.12
15 -0.12
16 0.54
17 -0.18
18 -0.18
19 0.03
20 0.03
21 -0.15
22 -0.15
23 -0.15
24 -0.15
49 0.15
50 0.15
51 0.15
52 0.15
53 0.15
54 0.15

> <PUBCHEM_EFFECTIVE_ROTOR_COUNT>
2.4

> <PUBCHEM_PHARMACOPHORE_FEATURES>
3
1 1 acceptor
6 19 20 21 22 23 24 rings
7 14 15 16 17 18 19 20 rings

> <PUBCHEM_HEAVY_ATOM_COUNT>
24

> <PUBCHEM_ATOM_DEF_STEREO_COUNT>
0

> <PUBCHEM_ATOM_UDEF_STEREO_COUNT>
0

> <PUBCHEM_BOND_DEF_STEREO_COUNT>
0

> <PUBCHEM_BOND_UDEF_STEREO_COUNT>
0

> <PUBCHEM_ISOTOPIC_ATOM_COUNT>
0

> <PUBCHEM_COMPONENT_COUNT>
1

> <PUBCHEM_CACTVS_TAUTO_COUNT>
1

> <PUBCHEM_CONFORMER_ID>
0029FDDB00000001

> <PUBCHEM_MMFF94_ENERGY>
56.7526

> <PUBCHEM_FEATURE_SELFOVERLAP>
15.231

> <PUBCHEM_SHAPE_FINGERPRINT>
10498660 4 18115572885775138119
10577160 103 18268718389052693692
10674148 151 17416690137559545537
10764073 3 17621266396616080658
11578080 2 17418100944459287104
12035759 4 18261392187613311282
12553582 1 18264752424666850061
12596599 1 17916570047323411787
12633257 1 12175611919664462933
13947920 24 17681286769202424092
14114206 34 18197477564017398453
14251740 79 18338808814051763398
14251751 93 18262805060086639037
14251757 17 18341613749955592676
14251757 5 18413394215618880103
14537116 161 18124000595679511591
14931854 50 18335977610618289935
15210252 30 17896593067333719349
15420108 30 16896233912550667514
15684973 49 16976199233149853494
15848702 105 18261112950224799956
17357779 13 18197794386505706970
17909252 39 18130790087732204670
20465049 17 18410855426612474781
21304303 94 18053941754081008469
21344244 78 9221217518320118029
221357 26 18340768260195831519
22907989 373 17900296209758886028
23419403 2 17418088862726806560
238 59 17605284973436651860
238918 7 17479997031921353376
24941158 1 16413482740743539873
2637199 183 18186802435592717239
3052486 1 18190158157654063185
3493558 16 16810960703736824724
46194498 28 17838333339144224791
469060 322 14707787232818521099
474144 1 17826497874113172875
484985 159 13181627512106325060
5104073 3 9726507876075527374
5283173 99 18408886261258655044
53917941 68 18114473292526996604
5895379 119 18263066778240213674
621550 5 16667999985321427906
6823239 73 18058713797891424161

> <PUBCHEM_SHAPE_MULTIPOLES>
488.04
8.39
3.79
2.28
1.25
0.18
1.14
-0.93
-7.91
-3.85
0.39
0.8
-0.16
-0.03

> <PUBCHEM_SHAPE_SELFOVERLAP>
1009.41

> <PUBCHEM_SHAPE_VOLUME>
275.1

> <PUBCHEM_COORDINATE_TYPE>
2
5
10

$$$$
