137890
  -OEChem-11012401133D

 25 25  0     0  0  0  0  0  0999 V2000
    0.9005    1.5028    1.0138 O   0  0  0  0  0  0  0  0  0  0  0  0
    2.9146   -0.0722   -0.0069 N   0  0  0  0  0  0  0  0  0  0  0  0
    1.6269   -0.6889    0.3097 C   0  0  0  0  0  0  0  0  0  0  0  0
    0.6010    0.4026    0.5548 C   0  0  0  0  0  0  0  0  0  0  0  0
   -0.8277    0.1218    0.2230 C   0  0  0  0  0  0  0  0  0  0  0  0
    2.8022    0.7592   -1.2048 C   0  0  0  0  0  0  0  0  0  0  0  0
    3.9411   -1.0975   -0.1909 C   0  0  0  0  0  0  0  0  0  0  0  0
   -1.2835   -1.1727    0.3187 C   0  0  0  0  0  0  0  0  0  0  0  0
   -1.6315    1.1689   -0.1648 C   0  0  0  0  0  0  0  0  0  0  0  0
   -2.6180   -1.4349    0.0091 C   0  0  0  0  0  0  0  0  0  0  0  0
   -2.9661    0.9064   -0.4743 C   0  0  0  0  0  0  0  0  0  0  0  0
   -3.4593   -0.3955   -0.3874 C   0  0  0  0  0  0  0  0  0  0  0  0
    1.3055   -1.3411   -0.5107 H   0  0  0  0  0  0  0  0  0  0  0  0
    1.7007   -1.2795    1.2302 H   0  0  0  0  0  0  0  0  0  0  0  0
    2.1543    1.6298   -1.0697 H   0  0  0  0  0  0  0  0  0  0  0  0
    2.4388    0.1899   -2.0688 H   0  0  0  0  0  0  0  0  0  0  0  0
    3.7840    1.1706   -1.4692 H   0  0  0  0  0  0  0  0  0  0  0  0
    4.9173   -0.6363   -0.3777 H   0  0  0  0  0  0  0  0  0  0  0  0
    3.7114   -1.7695   -1.0258 H   0  0  0  0  0  0  0  0  0  0  0  0
    4.0491   -1.7008    0.7175 H   0  0  0  0  0  0  0  0  0  0  0  0
   -0.6551   -1.9957    0.6428 H   0  0  0  0  0  0  0  0  0  0  0  0
   -1.2592    2.1857   -0.2420 H   0  0  0  0  0  0  0  0  0  0  0  0
   -3.0036   -2.4478    0.0808 H   0  0  0  0  0  0  0  0  0  0  0  0
   -3.6211    1.7154   -0.7841 H   0  0  0  0  0  0  0  0  0  0  0  0
   -4.4986   -0.5995   -0.6276 H   0  0  0  0  0  0  0  0  0  0  0  0
  1  4  2  0  0  0  0
  2  3  1  0  0  0  0
  2  6  1  0  0  0  0
  2  7  1  0  0  0  0
  3  4  1  0  0  0  0
  3 13  1  0  0  0  0
  3 14  1  0  0  0  0
  4  5  1  0  0  0  0
  5  8  2  0  0  0  0
  5  9  1  0  0  0  0
  6 15  1  0  0  0  0
  6 16  1  0  0  0  0
  6 17  1  0  0  0  0
  7 18  1  0  0  0  0
  7 19  1  0  0  0  0
  7 20  1  0  0  0  0
  8 10  1  0  0  0  0
  8 21  1  0  0  0  0
  9 11  2  0  0  0  0
  9 22  1  0  0  0  0
 10 12  2  0  0  0  0
 10 23  1  0  0  0  0
 11 12  1  0  0  0  0
 11 24  1  0  0  0  0
 12 25  1  0  0  0  0
M  END
> <PUBCHEM_COMPOUND_CID>
137890

> <PUBCHEM_CONFORMER_RMSD>
0.6

> <PUBCHEM_CONFORMER_DIVERSEORDER>
1
10
14
13
6
8
2
11
3
7
4
12
5
9

> <PUBCHEM_MMFF94_PARTIAL_CHARGES>
17
1 -0.57
10 -0.15
11 -0.15
12 -0.15
2 -0.81
21 0.15
22 0.15
23 0.15
24 0.15
25 0.15
3 0.33
4 0.42
5 0.09
6 0.27
7 0.27
8 -0.15
9 -0.15

> <PUBCHEM_EFFECTIVE_ROTOR_COUNT>
3

> <PUBCHEM_PHARMACOPHORE_FEATURES>
3
1 1 acceptor
1 2 cation
6 5 8 9 10 11 12 rings

> <PUBCHEM_HEAVY_ATOM_COUNT>
12

> <PUBCHEM_ATOM_DEF_STEREO_COUNT>
0

> <PUBCHEM_ATOM_UDEF_STEREO_COUNT>
0

> <PUBCHEM_BOND_DEF_STEREO_COUNT>
0

> <PUBCHEM_BOND_UDEF_STEREO_COUNT>
0

> <PUBCHEM_ISOTOPIC_ATOM_COUNT>
0

> <PUBCHEM_COMPONENT_COUNT>
1

> <PUBCHEM_CACTVS_TAUTO_COUNT>
2

> <PUBCHEM_CONFORMER_ID>
00021AA200000001

> <PUBCHEM_MMFF94_ENERGY>
35.4009

> <PUBCHEM_FEATURE_SELFOVERLAP>
15.223

> <PUBCHEM_SHAPE_FINGERPRINT>
10465860 250 18200866297582060650
10465860 71 18342192067465704916
12032990 46 18337953510565686291
12897270 3 18261393381392549902
12932764 1 18272088352613344267
13296908 3 17988921184647389466
14115302 16 18408326574931499166
14325111 11 18334575741465960812
14911166 2 18339913836576124229
14993402 34 17458058266364564327
15219456 202 18200303454538870897
16945 1 18340756088199933451
18186145 218 16298387976413212478
20201158 50 18273496749567414214
20279233 1 17632856421392851430
20281407 28 18271810158838725474
20281475 54 18342463680970799667
20361792 2 16845575322338101880
20645476 183 17675918794448004171
20653085 51 17458352930769219813
20671657 53 17917994979468892336
20711985 344 17272033985673546064
20871999 31 18114456864335150927
21119208 17 17967251970811505438
22485316 2 18060696191380889190
23402539 116 18338226072841510916
23403322 49 18129666288191295246
23552423 10 18186794820536404843
23559900 14 18342168918140521026
2748010 2 18122331639411240731
369184 2 12031791357538471279
7364860 26 18197776824068533216
81228 2 17273152193257123288
93112 12 18259705601184981606

> <PUBCHEM_SHAPE_MULTIPOLES>
236.1
6.35
1.46
0.88
2.68
0.05
0.04
1.23
1.63
-0.3
-0.04
0.31
-0.21
-0.01

> <PUBCHEM_SHAPE_SELFOVERLAP>
482.31

> <PUBCHEM_SHAPE_VOLUME>
138.2

> <PUBCHEM_COORDINATE_TYPE>
2
5
10

$$$$
