78458
  -OEChem-11012401203D

 29 30  0     0  0  0  0  0  0999 V2000
    0.1426    0.3349   -1.8537 O   0  0  0  0  0  0  0  0  0  0  0  0
   -2.4775   -2.6760    0.8118 O   0  0  0  0  0  0  0  0  0  0  0  0
   -0.9707   -2.2297   -0.8304 O   0  0  0  0  0  0  0  0  0  0  0  0
    0.8099    0.3901    0.3950 N   0  0  0  0  0  0  0  0  0  0  0  0
   -1.5137    0.6164   -0.2448 C   0  0  0  0  0  0  0  0  0  0  0  0
   -2.3412   -0.4708    0.0368 C   0  0  0  0  0  0  0  0  0  0  0  0
   -0.1259    0.4274   -0.6464 C   0  0  0  0  0  0  0  0  0  0  0  0
    2.2163    0.2445    0.3094 C   0  0  0  0  0  0  0  0  0  0  0  0
   -2.0109    1.9158   -0.1435 C   0  0  0  0  0  0  0  0  0  0  0  0
   -3.6656   -0.2584    0.4197 C   0  0  0  0  0  0  0  0  0  0  0  0
   -3.3354    2.1279    0.2393 C   0  0  0  0  0  0  0  0  0  0  0  0
   -4.1626    1.0410    0.5208 C   0  0  0  0  0  0  0  0  0  0  0  0
    2.8083    0.1176   -0.9356 C   0  0  0  0  0  0  0  0  0  0  0  0
    2.9673    0.2332    1.4724 C   0  0  0  0  0  0  0  0  0  0  0  0
    4.1932   -0.0254   -1.0203 C   0  0  0  0  0  0  0  0  0  0  0  0
    4.3523    0.0903    1.3876 C   0  0  0  0  0  0  0  0  0  0  0  0
   -1.8515   -1.8398   -0.0594 C   0  0  0  0  0  0  0  0  0  0  0  0
    4.9652   -0.0390    0.1412 C   0  0  0  0  0  0  0  0  0  0  0  0
   -1.3764    2.7715   -0.3604 H   0  0  0  0  0  0  0  0  0  0  0  0
    0.4451    0.4819    1.3412 H   0  0  0  0  0  0  0  0  0  0  0  0
   -4.3399   -1.0837    0.6330 H   0  0  0  0  0  0  0  0  0  0  0  0
   -3.7228    3.1396    0.3173 H   0  0  0  0  0  0  0  0  0  0  0  0
   -5.1947    1.2067    0.8158 H   0  0  0  0  0  0  0  0  0  0  0  0
    2.2820    0.1184   -1.8782 H   0  0  0  0  0  0  0  0  0  0  0  0
    2.4999    0.3331    2.4480 H   0  0  0  0  0  0  0  0  0  0  0  0
    4.6718   -0.1262   -1.9901 H   0  0  0  0  0  0  0  0  0  0  0  0
    4.9535    0.0797    2.2920 H   0  0  0  0  0  0  0  0  0  0  0  0
    6.0435   -0.1503    0.0753 H   0  0  0  0  0  0  0  0  0  0  0  0
   -2.1419   -3.5950    0.7409 H   0  0  0  0  0  0  0  0  0  0  0  0
  1  7  2  0  0  0  0
  2 17  1  0  0  0  0
  2 29  1  0  0  0  0
  3 17  2  0  0  0  0
  4  7  1  0  0  0  0
  4  8  1  0  0  0  0
  4 20  1  0  0  0  0
  5  6  1  0  0  0  0
  5  7  1  0  0  0  0
  5  9  2  0  0  0  0
  6 10  2  0  0  0  0
  6 17  1  0  0  0  0
  8 13  2  0  0  0  0
  8 14  1  0  0  0  0
  9 11  1  0  0  0  0
  9 19  1  0  0  0  0
 10 12  1  0  0  0  0
 10 21  1  0  0  0  0
 11 12  2  0  0  0  0
 11 22  1  0  0  0  0
 12 23  1  0  0  0  0
 13 15  1  0  0  0  0
 13 24  1  0  0  0  0
 14 16  2  0  0  0  0
 14 25  1  0  0  0  0
 15 18  2  0  0  0  0
 15 26  1  0  0  0  0
 16 18  1  0  0  0  0
 16 27  1  0  0  0  0
 18 28  1  0  0  0  0
M  END
> <PUBCHEM_COMPOUND_CID>
78458

> <PUBCHEM_CONFORMER_RMSD>
0.6

> <PUBCHEM_CONFORMER_DIVERSEORDER>
1
5
4
6
9
8
3
2
7
10

> <PUBCHEM_MMFF94_PARTIAL_CHARGES>
29
1 -0.57
10 -0.15
11 -0.15
12 -0.15
13 -0.15
14 -0.15
15 -0.15
16 -0.15
17 0.63
18 -0.15
19 0.15
2 -0.65
20 0.37
21 0.15
22 0.15
23 0.15
24 0.15
25 0.15
26 0.15
27 0.15
28 0.15
29 0.5
3 -0.57
4 -0.55
5 0.09
6 0.09
7 0.54
8 0.12
9 -0.15

> <PUBCHEM_EFFECTIVE_ROTOR_COUNT>
4

> <PUBCHEM_PHARMACOPHORE_FEATURES>
7
1 1 acceptor
1 2 acceptor
1 3 acceptor
1 4 donor
3 2 3 17 anion
6 5 6 9 10 11 12 rings
6 8 13 14 15 16 18 rings

> <PUBCHEM_HEAVY_ATOM_COUNT>
18

> <PUBCHEM_ATOM_DEF_STEREO_COUNT>
0

> <PUBCHEM_ATOM_UDEF_STEREO_COUNT>
0

> <PUBCHEM_BOND_DEF_STEREO_COUNT>
0

> <PUBCHEM_BOND_UDEF_STEREO_COUNT>
0

> <PUBCHEM_ISOTOPIC_ATOM_COUNT>
0

> <PUBCHEM_COMPONENT_COUNT>
1

> <PUBCHEM_CACTVS_TAUTO_COUNT>
2

> <PUBCHEM_CONFORMER_ID>
0001327A00000001

> <PUBCHEM_MMFF94_ENERGY>
63.8739

> <PUBCHEM_FEATURE_SELFOVERLAP>
35.579

> <PUBCHEM_SHAPE_FINGERPRINT>
10366900 7 18130780174799784408
10616163 171 18335142020267599666
12119455 92 16774075154846414540
12236239 1 17675929793600532813
12251169 10 18334574637675449844
12346177 29 18341602750528620879
12403814 3 17458340814882827301
12500047 106 18342454820500416006
12553582 1 17095516301775330164
12633257 1 18343590659019968081
13004483 165 17269167842074984255
13675066 3 17918272069568752088
14420673 8 18120373160332394002
15042514 8 18337397153519095619
15375358 24 17704068486915487776
15375462 189 17458341936069809808
15653759 3 18131350821466572888
17804303 29 18411703218169388313
18186145 218 17346315964474413728
19049666 15 17845384249535667670
19107657 47 16272210782178222498
19422 9 17968099763138389670
19862831 5 12751231497868873000
200 152 15574708093344830076
20279233 1 17704354377118520406
20281475 54 18040427807125031818
20645477 56 18342175553058118504
20645477 70 14345783925889945968
21033648 29 17203034214939711760
212916 134 18269546161571231353
22224240 67 18341903953218764641
23175994 123 17060346214352411040
23402539 116 18343012307867425309
23419403 2 13899338374724122887
23559900 14 18199762370838745910
23598291 2 17822583822791672244
23728640 28 18335423499692161211
2838139 119 15265954139013258681
474 4 14189581836053494244
5706482 22 18410571756733357075
58807428 26 18263090916341455011
602551 16 18410574015749245226
77492 1 17676493864513908380
9862522 239 17969492711316843733

> <PUBCHEM_SHAPE_MULTIPOLES>
347.84
9.21
1.92
1.23
6.96
0.98
0.07
-1.51
-2.01
-2.91
-0.12
1.07
0.01
0.18

> <PUBCHEM_SHAPE_SELFOVERLAP>
755.595

> <PUBCHEM_SHAPE_VOLUME>
188.7

> <PUBCHEM_COORDINATE_TYPE>
2
5
10

$$$$
