142238
  -OEChem-11012400433D

 35 34  0     0  0  0  0  0  0999 V2000
   -3.7225   -0.9242   -0.9394 F   0  0  0  0  0  0  0  0  0  0  0  0
    4.2052   -1.3713    0.0846 O   0  5  0  0  0  0  0  0  0  0  0  0
    4.2987    1.9785    0.6083 O   0  5  0  0  0  0  0  0  0  0  0  0
    3.1756   -0.8234    1.9439 O   0  0  0  0  0  0  0  0  0  0  0  0
    2.2149    2.4428    1.1179 O   0  0  0  0  0  0  0  0  0  0  0  0
    0.4725   -2.9396   -1.3370 O   0  5  0  0  0  0  0  0  0  0  0  0
    1.1722   -2.4044    0.6808 O   0  0  0  0  0  0  0  0  0  0  0  0
   -2.9334    2.2483    0.0478 O   0  5  0  0  0  0  0  0  0  0  0  0
   -3.5313    0.0606    2.2824 O   0  5  0  0  0  0  0  0  0  0  0  0
   -3.8890    1.3678   -1.7244 O   0  0  0  0  0  0  0  0  0  0  0  0
   -5.2400   -0.4687    1.0053 O   0  0  0  0  0  0  0  0  0  0  0  0
    0.5231   -0.7745   -0.7251 N   0  0  0  0  0  0  0  0  0  0  0  0
    3.3948   -0.6919    0.7324 N   0  3  0  0  0  0  0  0  0  0  0  0
    3.0878    1.7190    0.6160 N   0  3  0  0  0  0  0  0  0  0  0  0
    0.7502   -2.1257   -0.4479 N   0  3  0  0  0  0  0  0  0  0  0  0
   -3.3407    1.2862   -0.6173 N   0  3  0  0  0  0  0  0  0  0  0  0
   -4.0510   -0.1702    1.1827 N   0  3  0  0  0  0  0  0  0  0  0  0
    2.6253    0.4021   -0.0287 C   0  0  0  0  0  0  0  0  0  0  0  0
    1.1154    0.1796    0.2127 C   0  0  0  0  0  0  0  0  0  0  0  0
    3.0448    0.4269   -1.5180 C   0  0  0  0  0  0  0  0  0  0  0  0
   -0.8637   -0.4128   -1.0357 C   0  0  0  0  0  0  0  0  0  0  0  0
   -1.7165   -0.4381    0.2369 C   0  0  0  0  0  0  0  0  0  0  0  0
   -3.1704   -0.0869   -0.0292 C   0  0  0  0  0  0  0  0  0  0  0  0
    2.3780    1.5198   -2.3492 C   0  0  0  0  0  0  0  0  0  0  0  0
    0.8852   -0.0451    1.2634 H   0  0  0  0  0  0  0  0  0  0  0  0
    0.6276    1.1466    0.0249 H   0  0  0  0  0  0  0  0  0  0  0  0
    4.1308    0.5692   -1.6072 H   0  0  0  0  0  0  0  0  0  0  0  0
    2.8402   -0.5400   -1.9952 H   0  0  0  0  0  0  0  0  0  0  0  0
   -1.2822   -1.0950   -1.7865 H   0  0  0  0  0  0  0  0  0  0  0  0
   -0.8849    0.5794   -1.5019 H   0  0  0  0  0  0  0  0  0  0  0  0
   -1.6813   -1.4441    0.6754 H   0  0  0  0  0  0  0  0  0  0  0  0
   -1.3164    0.2504    0.9902 H   0  0  0  0  0  0  0  0  0  0  0  0
    2.6145    2.5175   -1.9674 H   0  0  0  0  0  0  0  0  0  0  0  0
    1.2913    1.4104   -2.3756 H   0  0  0  0  0  0  0  0  0  0  0  0
    2.7380    1.4694   -3.3823 H   0  0  0  0  0  0  0  0  0  0  0  0
  1 23  1  0  0  0  0
  2 13  1  0  0  0  0
  3 14  1  0  0  0  0
  4 13  2  0  0  0  0
  5 14  2  0  0  0  0
  6 15  1  0  0  0  0
  7 15  2  0  0  0  0
  8 16  1  0  0  0  0
  9 17  1  0  0  0  0
 10 16  2  0  0  0  0
 11 17  2  0  0  0  0
 12 15  1  0  0  0  0
 12 19  1  0  0  0  0
 12 21  1  0  0  0  0
 13 18  1  0  0  0  0
 14 18  1  0  0  0  0
 16 23  1  0  0  0  0
 17 23  1  0  0  0  0
 18 19  1  0  0  0  0
 18 20  1  0  0  0  0
 19 25  1  0  0  0  0
 19 26  1  0  0  0  0
 20 24  1  0  0  0  0
 20 27  1  0  0  0  0
 20 28  1  0  0  0  0
 21 22  1  0  0  0  0
 21 29  1  0  0  0  0
 21 30  1  0  0  0  0
 22 23  1  0  0  0  0
 22 31  1  0  0  0  0
 22 32  1  0  0  0  0
 24 33  1  0  0  0  0
 24 34  1  0  0  0  0
 24 35  1  0  0  0  0
M  CHG  8   2  -1   3  -1   6  -1   8  -1   9  -1  13   1  14   1  15   1
M  CHG  2  16   1  17   1
M  END
> <PUBCHEM_COMPOUND_CID>
142238

> <PUBCHEM_CONFORMER_RMSD>
1

> <PUBCHEM_CONFORMER_DIVERSEORDER>
3
61
31
64
12
13
57
47
14
51
6
30
32
35
40
50
68
54
67
48
36
27
58
19
65
23
45
49
39
4
22
66
34
62
46
17
10
60
56
5
37
9
28
55
24
41
38
33
44
29
18
20
42
26
21
52
1
25
43
69
15
11
53
59
63
2
16
8
7
70

> <PUBCHEM_MMFF94_PARTIAL_CHARGES>
21
1 -0.34
10 -0.52
11 -0.52
12 -0.53
13 0.8
14 0.8
15 1.03
16 0.8
17 0.8
18 0.48
19 0.27
2 -0.52
21 0.27
23 0.82
3 -0.52
4 -0.52
5 -0.52
6 -0.52
7 -0.52
8 -0.52
9 -0.52

> <PUBCHEM_EFFECTIVE_ROTOR_COUNT>
11

> <PUBCHEM_PHARMACOPHORE_FEATURES>
15
1 10 acceptor
1 11 acceptor
1 2 acceptor
1 2 anion
1 24 hydrophobe
1 3 acceptor
1 3 anion
1 4 acceptor
1 5 acceptor
1 6 acceptor
1 7 acceptor
1 8 acceptor
1 8 anion
1 9 acceptor
1 9 anion

> <PUBCHEM_HEAVY_ATOM_COUNT>
24

> <PUBCHEM_ATOM_DEF_STEREO_COUNT>
0

> <PUBCHEM_ATOM_UDEF_STEREO_COUNT>
0

> <PUBCHEM_BOND_DEF_STEREO_COUNT>
0

> <PUBCHEM_BOND_UDEF_STEREO_COUNT>
0

> <PUBCHEM_ISOTOPIC_ATOM_COUNT>
0

> <PUBCHEM_COMPONENT_COUNT>
1

> <PUBCHEM_CACTVS_TAUTO_COUNT>
1

> <PUBCHEM_CONFORMER_ID>
00022B9E00000003

> <PUBCHEM_MMFF94_ENERGY>
66.1878

> <PUBCHEM_FEATURE_SELFOVERLAP>
76.543

> <PUBCHEM_SHAPE_FINGERPRINT>
10366900 7 18262816137044665899
11552529 35 17386582369796636731
12403259 415 18408041810010099653
12596599 1 17561088029220652869
13224815 77 18341896303079968125
13533116 47 17385995110665982259
13583140 156 17895740855490345835
14289901 80 17603872246959959771
14341114 176 17894920619831881801
1601671 61 18263640659296873094
18186145 218 17988929989240733980
20233049 118 18411139113297155788
20775530 9 11388851860299102392
21503847 285 17703527518235617408
21524375 3 18270399515606535190
21864079 5 17989216923284889209
23557571 272 17458349589912177501
23559900 14 17823141129443201607
2838139 119 14475805664120726538
3797600 57 17315941006506240108
474 4 17988929984887926387
49207404 50 17822013137528342626
633830 44 17632591456191227365
81228 2 17548139282200887287

> <PUBCHEM_SHAPE_MULTIPOLES>
398.06
9.15
2.39
1.78
6.21
0.29
-0.08
-2.15
2.32
-1.36
-0.34
-0.16
-0.29
0.32

> <PUBCHEM_SHAPE_SELFOVERLAP>
794.48

> <PUBCHEM_SHAPE_VOLUME>
237

> <PUBCHEM_COORDINATE_TYPE>
2
5
10

$$$$
