138932
  -OEChem-11012401183D

 23 24  0     1  0  0  0  0  0999 V2000
    0.3341   -1.3807    0.0100 C   0  0  2  0  0  0  0  0  0  0  0  0
    0.3292    1.3817    0.0079 C   0  0  1  0  0  0  0  0  0  0  0  0
    0.6829   -0.7714   -1.3618 C   0  0  0  0  0  0  0  0  0  0  0  0
    0.6779    0.7714   -1.3634 C   0  0  0  0  0  0  0  0  0  0  0  0
   -1.1768   -1.3069    0.3134 C   0  0  0  0  0  0  0  0  0  0  0  0
   -1.1809    1.3029    0.3133 C   0  0  0  0  0  0  0  0  0  0  0  0
   -1.8758   -0.0030   -0.0969 C   0  0  0  0  0  0  0  0  0  0  0  0
    1.1055   -0.6664    1.0895 C   0  0  0  0  0  0  0  0  0  0  0  0
    1.1038    0.6722    1.0879 C   0  0  0  0  0  0  0  0  0  0  0  0
    0.6368   -2.4352    0.0136 H   0  0  0  0  0  0  0  0  0  0  0  0
    0.6280    2.4372    0.0094 H   0  0  0  0  0  0  0  0  0  0  0  0
    0.0020   -1.1506   -2.1335 H   0  0  0  0  0  0  0  0  0  0  0  0
    1.6851   -1.1107   -1.6572 H   0  0  0  0  0  0  0  0  0  0  0  0
    1.6771    1.1163   -1.6624 H   0  0  0  0  0  0  0  0  0  0  0  0
   -0.0073    1.1448   -2.1343 H   0  0  0  0  0  0  0  0  0  0  0  0
   -1.3522   -1.4875    1.3822 H   0  0  0  0  0  0  0  0  0  0  0  0
   -1.6767   -2.1291   -0.2151 H   0  0  0  0  0  0  0  0  0  0  0  0
   -1.6841    2.1237   -0.2144 H   0  0  0  0  0  0  0  0  0  0  0  0
   -1.3558    1.4827    1.3824 H   0  0  0  0  0  0  0  0  0  0  0  0
   -2.0092   -0.0033   -1.1864 H   0  0  0  0  0  0  0  0  0  0  0  0
   -2.8925   -0.0046    0.3158 H   0  0  0  0  0  0  0  0  0  0  0  0
    1.6160   -1.2295    1.8621 H   0  0  0  0  0  0  0  0  0  0  0  0
    1.6124    1.2385    1.8593 H   0  0  0  0  0  0  0  0  0  0  0  0
  1  3  1  0  0  0  0
  1  5  1  0  0  0  0
  1  8  1  0  0  0  0
  1 10  1  0  0  0  0
  2  4  1  0  0  0  0
  2  6  1  0  0  0  0
  2  9  1  0  0  0  0
  2 11  1  0  0  0  0
  3  4  1  0  0  0  0
  3 12  1  0  0  0  0
  3 13  1  0  0  0  0
  4 14  1  0  0  0  0
  4 15  1  0  0  0  0
  5  7  1  0  0  0  0
  5 16  1  0  0  0  0
  5 17  1  0  0  0  0
  6  7  1  0  0  0  0
  6 18  1  0  0  0  0
  6 19  1  0  0  0  0
  7 20  1  0  0  0  0
  7 21  1  0  0  0  0
  8  9  2  0  0  0  0
  8 22  1  0  0  0  0
  9 23  1  0  0  0  0
M  END
> <PUBCHEM_COMPOUND_CID>
138932

> <PUBCHEM_CONFORMER_RMSD>
0.4

> <PUBCHEM_CONFORMER_DIVERSEORDER>
1

> <PUBCHEM_MMFF94_PARTIAL_CHARGES>
6
1 0.14
2 0.14
22 0.15
23 0.15
8 -0.29
9 -0.29

> <PUBCHEM_EFFECTIVE_ROTOR_COUNT>
1

> <PUBCHEM_PHARMACOPHORE_FEATURES>
1
9 1 2 3 4 5 6 7 8 9 rings

> <PUBCHEM_HEAVY_ATOM_COUNT>
9

> <PUBCHEM_ATOM_DEF_STEREO_COUNT>
0

> <PUBCHEM_ATOM_UDEF_STEREO_COUNT>
2

> <PUBCHEM_BOND_DEF_STEREO_COUNT>
0

> <PUBCHEM_BOND_UDEF_STEREO_COUNT>
0

> <PUBCHEM_ISOTOPIC_ATOM_COUNT>
0

> <PUBCHEM_COMPONENT_COUNT>
1

> <PUBCHEM_CACTVS_TAUTO_COUNT>
1

> <PUBCHEM_CONFORMER_ID>
00021EB400000001

> <PUBCHEM_MMFF94_ENERGY>
19.6514

> <PUBCHEM_FEATURE_SELFOVERLAP>
5.074

> <PUBCHEM_SHAPE_FINGERPRINT>
12423570 1 7987460017480254832
13024252 1 13410417143009160352
137420 1 12624491007299069238
16945 1 18338495504745585330
18185500 45 17470188967473520407
21040471 1 18410295856281363729
29004967 10 15621704308033536886
5084963 1 16127793301107929352

> <PUBCHEM_SHAPE_MULTIPOLES>
185.22
1.71
1.65
1.32
0.72
0
-0.27
0
0.21
0.11
0.05
-0.54
0
0

> <PUBCHEM_SHAPE_SELFOVERLAP>
382.173

> <PUBCHEM_SHAPE_VOLUME>
100.5

> <PUBCHEM_COORDINATE_TYPE>
2
5
10

$$$$
