10387
  -OEChem-11012401253D

 18 18  0     0  0  0  0  0  0999 V2000
    3.8589   -0.0032   -1.4891 Cl  0  0  0  0  0  0  0  0  0  0  0  0
    1.5472   -0.0004   -0.2857 O   0  0  0  0  0  0  0  0  0  0  0  0
    3.3646    0.0023    1.1033 O   0  0  0  0  0  0  0  0  0  0  0  0
   -0.7307    0.0008    0.3979 C   0  0  0  0  0  0  0  0  0  0  0  0
    0.6908    0.0017    0.8498 C   0  0  0  0  0  0  0  0  0  0  0  0
   -1.3956    1.2083    0.1847 C   0  0  0  0  0  0  0  0  0  0  0  0
   -1.3952   -1.2076    0.1889 C   0  0  0  0  0  0  0  0  0  0  0  0
   -2.7251    1.2075   -0.2374 C   0  0  0  0  0  0  0  0  0  0  0  0
   -2.7247   -1.2085   -0.2333 C   0  0  0  0  0  0  0  0  0  0  0  0
   -3.3896   -0.0009   -0.4465 C   0  0  0  0  0  0  0  0  0  0  0  0
    2.8993    0.0001   -0.0327 C   0  0  0  0  0  0  0  0  0  0  0  0
    0.8912    0.8884    1.4645 H   0  0  0  0  0  0  0  0  0  0  0  0
    0.8912   -0.8826    1.4679 H   0  0  0  0  0  0  0  0  0  0  0  0
   -0.8882    2.1565    0.3421 H   0  0  0  0  0  0  0  0  0  0  0  0
   -0.8877   -2.1550    0.3495 H   0  0  0  0  0  0  0  0  0  0  0  0
   -3.2427    2.1476   -0.4039 H   0  0  0  0  0  0  0  0  0  0  0  0
   -3.2421   -2.1494   -0.3967 H   0  0  0  0  0  0  0  0  0  0  0  0
   -4.4246   -0.0016   -0.7755 H   0  0  0  0  0  0  0  0  0  0  0  0
  1 11  1  0  0  0  0
  2  5  1  0  0  0  0
  2 11  1  0  0  0  0
  3 11  2  0  0  0  0
  4  5  1  0  0  0  0
  4  6  2  0  0  0  0
  4  7  1  0  0  0  0
  5 12  1  0  0  0  0
  5 13  1  0  0  0  0
  6  8  1  0  0  0  0
  6 14  1  0  0  0  0
  7  9  2  0  0  0  0
  7 15  1  0  0  0  0
  8 10  2  0  0  0  0
  8 16  1  0  0  0  0
  9 10  1  0  0  0  0
  9 17  1  0  0  0  0
 10 18  1  0  0  0  0
M  END
> <PUBCHEM_COMPOUND_CID>
10387

> <PUBCHEM_CONFORMER_RMSD>
0.6

> <PUBCHEM_CONFORMER_DIVERSEORDER>
1
5
6
2
4
3

> <PUBCHEM_MMFF94_PARTIAL_CHARGES>
16
1 -0.21
10 -0.15
11 0.93
14 0.15
15 0.15
16 0.15
17 0.15
18 0.15
2 -0.43
3 -0.57
4 -0.14
5 0.42
6 -0.15
7 -0.15
8 -0.15
9 -0.15

> <PUBCHEM_EFFECTIVE_ROTOR_COUNT>
3

> <PUBCHEM_PHARMACOPHORE_FEATURES>
2
1 3 acceptor
6 4 6 7 8 9 10 rings

> <PUBCHEM_HEAVY_ATOM_COUNT>
11

> <PUBCHEM_ATOM_DEF_STEREO_COUNT>
0

> <PUBCHEM_ATOM_UDEF_STEREO_COUNT>
0

> <PUBCHEM_BOND_DEF_STEREO_COUNT>
0

> <PUBCHEM_BOND_UDEF_STEREO_COUNT>
0

> <PUBCHEM_ISOTOPIC_ATOM_COUNT>
0

> <PUBCHEM_COMPONENT_COUNT>
1

> <PUBCHEM_CACTVS_TAUTO_COUNT>
1

> <PUBCHEM_CONFORMER_ID>
0000289300000001

> <PUBCHEM_MMFF94_ENERGY>
22.4954

> <PUBCHEM_FEATURE_SELFOVERLAP>
10.148

> <PUBCHEM_SHAPE_FINGERPRINT>
10465860 71 18339654403197717844
12897270 3 18413951689172266547
12932764 1 18411140233903506722
13024252 1 17530965791733814131
13296908 3 17489870436137928758
14144814 61 18113053835483552400
14325111 11 18409162182172466090
15775835 57 17458067053493112076
18186145 218 17988926639145209168
20201158 50 17847061077518862326
20279233 1 17775563143863901270
20281407 28 17917996104518234430
20645476 183 17967539003260067351
20645477 70 15984823688474438292
21061003 4 17060346253001523499
22485316 2 15697995240870964140
23402539 116 18341314631253340429
23559900 14 18201434749673431018
3248919 1 17530683208302217410
369184 2 14045741525953011083
528716 315 18335145314438385119

> <PUBCHEM_SHAPE_MULTIPOLES>
216.51
6.84
1.16
1.04
4.98
0
0.11
0
1.97
-1.11
0.03
1.02
0
0

> <PUBCHEM_SHAPE_SELFOVERLAP>
433.617

> <PUBCHEM_SHAPE_VOLUME>
127

> <PUBCHEM_COORDINATE_TYPE>
2
5
10

$$$$
