142803
  -OEChem-11012401263D

 43 44  0     1  0  0  0  0  0999 V2000
   -0.2579   -0.1122    0.6210 C   0  0  2  0  0  0  0  0  0  0  0  0
   -1.3238    0.4605   -0.3440 C   0  0  1  0  0  0  0  0  0  0  0  0
    1.1296   -0.1293   -0.0336 C   0  0  0  0  0  0  0  0  0  0  0  0
   -0.6393   -1.5109    1.1348 C   0  0  0  0  0  0  0  0  0  0  0  0
   -1.6980   -0.5426   -1.4484 C   0  0  0  0  0  0  0  0  0  0  0  0
    1.5374    1.2824   -0.4765 C   0  0  0  0  0  0  0  0  0  0  0  0
    2.1723   -0.7247    0.9219 C   0  0  0  0  0  0  0  0  0  0  0  0
   -2.5711    0.9234    0.4202 C   0  0  0  0  0  0  0  0  0  0  0  0
   -0.9998   -2.4839    0.0145 C   0  0  0  0  0  0  0  0  0  0  0  0
   -2.0761   -1.9191   -0.9060 C   0  0  0  0  0  0  0  0  0  0  0  0
    2.9385    1.3000   -1.0836 C   0  0  0  0  0  0  0  0  0  0  0  0
    3.5724   -0.7036    0.3127 C   0  0  0  0  0  0  0  0  0  0  0  0
    3.9707    0.6996   -0.1343 C   0  0  0  0  0  0  0  0  0  0  0  0
   -2.1843    1.8903    1.5349 C   0  0  0  0  0  0  0  0  0  0  0  0
   -3.5707    1.5701   -0.5337 C   0  0  0  0  0  0  0  0  0  0  0  0
   -0.1452    0.5280    1.5005 H   0  0  0  0  0  0  0  0  0  0  0  0
   -0.9578    1.3580   -0.8457 H   0  0  0  0  0  0  0  0  0  0  0  0
    1.1103   -0.7623   -0.9298 H   0  0  0  0  0  0  0  0  0  0  0  0
   -1.5261   -1.4029    1.7744 H   0  0  0  0  0  0  0  0  0  0  0  0
    0.1041   -1.9532    1.8011 H   0  0  0  0  0  0  0  0  0  0  0  0
   -0.8311   -0.6667   -2.1109 H   0  0  0  0  0  0  0  0  0  0  0  0
   -2.4893   -0.1728   -2.1056 H   0  0  0  0  0  0  0  0  0  0  0  0
    1.4997    1.9736    0.3747 H   0  0  0  0  0  0  0  0  0  0  0  0
    0.8808    1.6820   -1.2521 H   0  0  0  0  0  0  0  0  0  0  0  0
    1.9642   -1.7738    1.1484 H   0  0  0  0  0  0  0  0  0  0  0  0
    2.1791   -0.1750    1.8713 H   0  0  0  0  0  0  0  0  0  0  0  0
   -3.0794    0.0746    0.8921 H   0  0  0  0  0  0  0  0  0  0  0  0
   -1.3549   -3.4250    0.4503 H   0  0  0  0  0  0  0  0  0  0  0  0
   -0.1054   -2.7295   -0.5695 H   0  0  0  0  0  0  0  0  0  0  0  0
   -2.2343   -2.6088   -1.7432 H   0  0  0  0  0  0  0  0  0  0  0  0
   -3.0290   -1.8612   -0.3678 H   0  0  0  0  0  0  0  0  0  0  0  0
    3.2212    2.3298   -1.3297 H   0  0  0  0  0  0  0  0  0  0  0  0
    2.9368    0.7357   -2.0245 H   0  0  0  0  0  0  0  0  0  0  0  0
    3.6074   -1.3836   -0.5476 H   0  0  0  0  0  0  0  0  0  0  0  0
    4.2988   -1.0767    1.0437 H   0  0  0  0  0  0  0  0  0  0  0  0
    4.9493    0.6663   -0.6262 H   0  0  0  0  0  0  0  0  0  0  0  0
    4.0766    1.3462    0.7455 H   0  0  0  0  0  0  0  0  0  0  0  0
   -1.4726    2.6484    1.1907 H   0  0  0  0  0  0  0  0  0  0  0  0
   -3.0677    2.4202    1.9102 H   0  0  0  0  0  0  0  0  0  0  0  0
   -1.7637    1.3733    2.4026 H   0  0  0  0  0  0  0  0  0  0  0  0
   -3.0990    2.3329   -1.1623 H   0  0  0  0  0  0  0  0  0  0  0  0
   -4.3764    2.0596    0.0257 H   0  0  0  0  0  0  0  0  0  0  0  0
   -4.0598    0.8359   -1.1800 H   0  0  0  0  0  0  0  0  0  0  0  0
  1  2  1  0  0  0  0
  1  3  1  0  0  0  0
  1  4  1  0  0  0  0
  1 16  1  0  0  0  0
  2  5  1  0  0  0  0
  2  8  1  0  0  0  0
  2 17  1  0  0  0  0
  3  6  1  0  0  0  0
  3  7  1  0  0  0  0
  3 18  1  0  0  0  0
  4  9  1  0  0  0  0
  4 19  1  0  0  0  0
  4 20  1  0  0  0  0
  5 10  1  0  0  0  0
  5 21  1  0  0  0  0
  5 22  1  0  0  0  0
  6 11  1  0  0  0  0
  6 23  1  0  0  0  0
  6 24  1  0  0  0  0
  7 12  1  0  0  0  0
  7 25  1  0  0  0  0
  7 26  1  0  0  0  0
  8 14  1  0  0  0  0
  8 15  1  0  0  0  0
  8 27  1  0  0  0  0
  9 10  1  0  0  0  0
  9 28  1  0  0  0  0
  9 29  1  0  0  0  0
 10 30  1  0  0  0  0
 10 31  1  0  0  0  0
 11 13  1  0  0  0  0
 11 32  1  0  0  0  0
 11 33  1  0  0  0  0
 12 13  1  0  0  0  0
 12 34  1  0  0  0  0
 12 35  1  0  0  0  0
 13 36  1  0  0  0  0
 13 37  1  0  0  0  0
 14 38  1  0  0  0  0
 14 39  1  0  0  0  0
 14 40  1  0  0  0  0
 15 41  1  0  0  0  0
 15 42  1  0  0  0  0
 15 43  1  0  0  0  0
M  END
> <PUBCHEM_COMPOUND_CID>
142803

> <PUBCHEM_CONFORMER_RMSD>
0.6

> <PUBCHEM_CONFORMER_DIVERSEORDER>
1
10
2
16
15
18
6
5
7
19
3
4
17
20
9
8
13
14
11
12
21

> <PUBCHEM_MMFF94_PARTIAL_CHARGES>
0

> <PUBCHEM_EFFECTIVE_ROTOR_COUNT>
4.4

> <PUBCHEM_PHARMACOPHORE_FEATURES>
3
3 8 14 15 hydrophobe
6 1 2 4 5 9 10 rings
6 3 6 7 11 12 13 rings

> <PUBCHEM_HEAVY_ATOM_COUNT>
15

> <PUBCHEM_ATOM_DEF_STEREO_COUNT>
0

> <PUBCHEM_ATOM_UDEF_STEREO_COUNT>
2

> <PUBCHEM_BOND_DEF_STEREO_COUNT>
0

> <PUBCHEM_BOND_UDEF_STEREO_COUNT>
0

> <PUBCHEM_ISOTOPIC_ATOM_COUNT>
0

> <PUBCHEM_COMPONENT_COUNT>
1

> <PUBCHEM_CACTVS_TAUTO_COUNT>
1

> <PUBCHEM_CONFORMER_ID>
00022DD300000001

> <PUBCHEM_MMFF94_ENERGY>
29.9527

> <PUBCHEM_FEATURE_SELFOVERLAP>
15.223

> <PUBCHEM_SHAPE_FINGERPRINT>
10922049 32 18339935809560232123
12138202 97 18131351899376789919
12173636 292 18410852183178924007
12423570 1 14142860670822412423
12491281 212 18411422808386628696
12592029 89 18116148870764093379
12932764 1 18059022812150814776
13024252 1 12757418497338414419
13538477 17 18412542123855450864
14144814 61 18259701211912969296
14713566 1 18271516538037211249
14817 1 15302461605520562019
15279307 12 18408602556782616962
15309172 13 18188497869379149425
15775835 57 18260265226665034173
15852999 172 17560805385738401358
15906896 17 18343031003443547451
16752209 62 18270101518217807959
16945 1 17704069577721201513
17844478 74 16153431618897690980
18175812 5 16443641107537170833
18186145 218 18267594511114785996
19837323 101 18202006533836704771
19868273 293 18342739611049506340
20279233 1 15841547479515612220
20510252 161 18270119144436289811
20525323 117 18264210382044402874
20645476 183 18410006616046031975
21501502 16 18261110833096112398
21524375 3 18338519625588108473
23402539 116 17917418801153550613
23419403 2 16395131908302004041
23526113 38 14476660989144779879
23557571 272 17773583013437086312
23559900 14 18060413608988113338
23598291 2 18334287648425052278
305870 269 17911244918714357409
430814 3 18268991982098952473
5706482 22 18341613677094129307
69090 78 18409164398491661221
6992083 37 18334297548045010388
74978 22 18410293648726410220
7832392 63 18334576854326980548
8030462 33 18265051512818936950
81228 2 18194962078880672219
81539 233 18192712233546183661
8272917 22 17974851666766431081
90525 40 18412268345592289390

> <PUBCHEM_SHAPE_MULTIPOLES>
308.69
5.95
2.24
1.28
3.9
0.71
-0.06
-2.38
0.61
-1.5
-0.09
-0.46
-0.1
-1.04

> <PUBCHEM_SHAPE_SELFOVERLAP>
614.131

> <PUBCHEM_SHAPE_VOLUME>
181.3

> <PUBCHEM_COORDINATE_TYPE>
2
5
10

$$$$
