3471040
  -OEChem-11012401053D

 29 28  0     0  0  0  0  0  0999 V2000
   -0.9428   -1.6168   -0.9270 O   0  0  0  0  0  0  0  0  0  0  0  0
    4.7296    0.2145   -0.1020 O   0  5  0  0  0  0  0  0  0  0  0  0
    1.9298    1.9914   -0.8912 O   0  5  0  0  0  0  0  0  0  0  0  0
    3.9289   -1.7866    0.3132 O   0  0  0  0  0  0  0  0  0  0  0  0
    1.9358    0.0574   -1.9304 O   0  0  0  0  0  0  0  0  0  0  0  0
   -1.4379    1.7685   -0.5431 O   0  5  0  0  0  0  0  0  0  0  0  0
   -4.0825   -1.6320   -0.3053 O   0  5  0  0  0  0  0  0  0  0  0  0
   -2.8632    2.0423    1.1040 O   0  0  0  0  0  0  0  0  0  0  0  0
   -3.6035    0.1167   -1.5415 O   0  0  0  0  0  0  0  0  0  0  0  0
    0.0397   -0.5327    0.8606 N   0  0  0  0  0  0  0  0  0  0  0  0
    3.8040   -0.5623    0.1766 N   0  3  0  0  0  0  0  0  0  0  0  0
    2.0699    0.7615   -0.9187 N   0  3  0  0  0  0  0  0  0  0  0  0
   -2.2133    1.3351    0.3212 N   0  3  0  0  0  0  0  0  0  0  0  0
   -3.4236   -0.6123   -0.5559 N   0  3  0  0  0  0  0  0  0  0  0  0
    2.4150    0.0484    0.3894 C   0  0  0  0  0  0  0  0  0  0  0  0
    1.3699   -1.0504    0.6403 C   0  0  0  0  0  0  0  0  0  0  0  0
   -2.3473   -0.1831    0.4471 C   0  0  0  0  0  0  0  0  0  0  0  0
    2.5300    1.0369    1.5534 C   0  0  0  0  0  0  0  0  0  0  0  0
   -1.0329   -0.8637    0.0428 C   0  0  0  0  0  0  0  0  0  0  0  0
   -2.8057   -0.5328    1.8666 C   0  0  0  0  0  0  0  0  0  0  0  0
    1.3505   -1.7851   -0.1736 H   0  0  0  0  0  0  0  0  0  0  0  0
    1.6225   -1.6051    1.5529 H   0  0  0  0  0  0  0  0  0  0  0  0
   -0.1135    0.0597    1.6705 H   0  0  0  0  0  0  0  0  0  0  0  0
    3.2950    1.8034    1.3794 H   0  0  0  0  0  0  0  0  0  0  0  0
    1.5879    1.5663    1.7351 H   0  0  0  0  0  0  0  0  0  0  0  0
    2.8010    0.5173    2.4802 H   0  0  0  0  0  0  0  0  0  0  0  0
   -2.1454   -0.0998    2.6271 H   0  0  0  0  0  0  0  0  0  0  0  0
   -3.8234   -0.1803    2.0740 H   0  0  0  0  0  0  0  0  0  0  0  0
   -2.7966   -1.6181    2.0252 H   0  0  0  0  0  0  0  0  0  0  0  0
  1 19  2  0  0  0  0
  2 11  1  0  0  0  0
  3 12  1  0  0  0  0
  4 11  2  0  0  0  0
  5 12  2  0  0  0  0
  6 13  1  0  0  0  0
  7 14  1  0  0  0  0
  8 13  2  0  0  0  0
  9 14  2  0  0  0  0
 10 16  1  0  0  0  0
 10 19  1  0  0  0  0
 10 23  1  0  0  0  0
 11 15  1  0  0  0  0
 12 15  1  0  0  0  0
 13 17  1  0  0  0  0
 14 17  1  0  0  0  0
 15 16  1  0  0  0  0
 15 18  1  0  0  0  0
 16 21  1  0  0  0  0
 16 22  1  0  0  0  0
 17 19  1  0  0  0  0
 17 20  1  0  0  0  0
 18 24  1  0  0  0  0
 18 25  1  0  0  0  0
 18 26  1  0  0  0  0
 20 27  1  0  0  0  0
 20 28  1  0  0  0  0
 20 29  1  0  0  0  0
M  CHG  8   2  -1   3  -1   6  -1   7  -1  11   1  12   1  13   1  14   1
M  END
> <PUBCHEM_COMPOUND_CID>
3471040

> <PUBCHEM_CONFORMER_RMSD>
0.8

> <PUBCHEM_CONFORMER_DIVERSEORDER>
1
17
63
60
25
38
2
50
52
33
54
36
30
18
39
32
24
7
40
59
29
43
4
42
48
57
45
21
55
14
23
27
58
16
62
20
44
26
37
6
61
41
49
51
47
46
13
56
15
22
34
19
11
5
8
53
31
12
10
9
28
3
35

> <PUBCHEM_MMFF94_PARTIAL_CHARGES>
19
1 -0.57
10 -0.73
11 0.8
12 0.8
13 0.8
14 0.8
15 0.48
16 0.3
17 0.54
19 0.57
2 -0.52
23 0.37
3 -0.52
4 -0.52
5 -0.52
6 -0.52
7 -0.52
8 -0.52
9 -0.52

> <PUBCHEM_EFFECTIVE_ROTOR_COUNT>
8

> <PUBCHEM_PHARMACOPHORE_FEATURES>
14
1 1 acceptor
1 10 donor
1 2 acceptor
1 2 anion
1 3 acceptor
1 3 anion
1 4 acceptor
1 5 acceptor
1 6 acceptor
1 6 anion
1 7 acceptor
1 7 anion
1 8 acceptor
1 9 acceptor

> <PUBCHEM_HEAVY_ATOM_COUNT>
20

> <PUBCHEM_ATOM_DEF_STEREO_COUNT>
0

> <PUBCHEM_ATOM_UDEF_STEREO_COUNT>
0

> <PUBCHEM_BOND_DEF_STEREO_COUNT>
0

> <PUBCHEM_BOND_UDEF_STEREO_COUNT>
0

> <PUBCHEM_ISOTOPIC_ATOM_COUNT>
0

> <PUBCHEM_COMPONENT_COUNT>
1

> <PUBCHEM_CACTVS_TAUTO_COUNT>
2

> <PUBCHEM_CONFORMER_ID>
0034F6C000000001

> <PUBCHEM_MMFF94_ENERGY>
51.5414

> <PUBCHEM_FEATURE_SELFOVERLAP>
71.387

> <PUBCHEM_SHAPE_FINGERPRINT>
12507557 5 17168428258970775828
12596599 1 17023195924205176082
12670545 47 15140678111420654959
13581323 91 18131630097372613638
14250199 8 18261113023191992140
15375358 24 11097849683672519626
15775835 57 18341054008126600104
16945 1 18338247053988808259
17802600 8 18343294881654098112
18186145 218 16558204712750045062
200 152 18335415794610262175
22646028 28 18408885156892741167
23402539 116 17775559832048425188
23557571 272 17704076178943530337
3286 77 17988636419599350480
74978 22 17822575001002809218

> <PUBCHEM_SHAPE_MULTIPOLES>
333.86
7.75
1.77
1.46
2.01
0.47
0.01
-1.15
-0.16
-0.35
0
-0.37
0.19
-0.42

> <PUBCHEM_SHAPE_SELFOVERLAP>
666.079

> <PUBCHEM_SHAPE_VOLUME>
195.1

> <PUBCHEM_COORDINATE_TYPE>
2
5
10

$$$$
