9576958
  -OEChem-11012401013D

 29 30  0     0  0  0  0  0  0999 V2000
    1.4493   -0.4219    0.0003 N   0  0  0  0  0  0  0  0  0  0  0  0
   -2.1219   -1.5292   -0.0013 N   0  0  0  0  0  0  0  0  0  0  0  0
    1.2250   -1.7506    0.0000 N   0  0  0  0  0  0  0  0  0  0  0  0
   -0.9618   -1.0606    0.0001 N   0  0  0  0  0  0  0  0  0  0  0  0
    2.7582    0.0853    0.0005 C   0  0  0  0  0  0  0  0  0  0  0  0
    2.9785    1.4662    0.0010 C   0  0  0  0  0  0  0  0  0  0  0  0
    3.8512   -0.7869   -0.0002 C   0  0  0  0  0  0  0  0  0  0  0  0
    4.2793    1.9700    0.0005 C   0  0  0  0  0  0  0  0  0  0  0  0
    5.1519   -0.2829   -0.0006 C   0  0  0  0  0  0  0  0  0  0  0  0
    5.3658    1.0956   -0.0002 C   0  0  0  0  0  0  0  0  0  0  0  0
   -3.0580   -0.4902   -0.0004 C   0  0  0  0  0  0  0  0  0  0  0  0
   -3.5239    0.0295   -1.2082 C   0  0  0  0  0  0  0  0  0  0  0  0
   -3.5253    0.0269    1.2079 C   0  0  0  0  0  0  0  0  0  0  0  0
   -4.4569    1.0663   -1.2077 C   0  0  0  0  0  0  0  0  0  0  0  0
   -4.4585    1.0637    1.2082 C   0  0  0  0  0  0  0  0  0  0  0  0
   -4.9242    1.5833    0.0004 C   0  0  0  0  0  0  0  0  0  0  0  0
   -0.0287   -2.0644   -0.0002 C   0  0  0  0  0  0  0  0  0  0  0  0
    2.1408    2.1592    0.0015 H   0  0  0  0  0  0  0  0  0  0  0  0
    3.7226   -1.8661   -0.0007 H   0  0  0  0  0  0  0  0  0  0  0  0
    4.4460    3.0432    0.0008 H   0  0  0  0  0  0  0  0  0  0  0  0
    5.9985   -0.9633   -0.0012 H   0  0  0  0  0  0  0  0  0  0  0  0
    6.3786    1.4878   -0.0005 H   0  0  0  0  0  0  0  0  0  0  0  0
   -3.1663   -0.3671   -2.1550 H   0  0  0  0  0  0  0  0  0  0  0  0
   -3.1690   -0.3715    2.1543 H   0  0  0  0  0  0  0  0  0  0  0  0
    0.6772    0.2354    0.0019 H   0  0  0  0  0  0  0  0  0  0  0  0
   -4.8197    1.4709   -2.1481 H   0  0  0  0  0  0  0  0  0  0  0  0
   -4.8226    1.4664    2.1489 H   0  0  0  0  0  0  0  0  0  0  0  0
   -5.6508    2.3906    0.0008 H   0  0  0  0  0  0  0  0  0  0  0  0
   -0.3303   -3.1256   -0.0005 H   0  0  0  0  0  0  0  0  0  0  0  0
  1  3  1  0  0  0  0
  1  5  1  0  0  0  0
  1 25  1  0  0  0  0
  2  4  2  0  0  0  0
  2 11  1  0  0  0  0
  3 17  2  0  0  0  0
  4 17  1  0  0  0  0
  5  6  2  0  0  0  0
  5  7  1  0  0  0  0
  6  8  1  0  0  0  0
  6 18  1  0  0  0  0
  7  9  2  0  0  0  0
  7 19  1  0  0  0  0
  8 10  2  0  0  0  0
  8 20  1  0  0  0  0
  9 10  1  0  0  0  0
  9 21  1  0  0  0  0
 10 22  1  0  0  0  0
 11 12  2  0  0  0  0
 11 13  1  0  0  0  0
 12 14  1  0  0  0  0
 12 23  1  0  0  0  0
 13 15  2  0  0  0  0
 13 24  1  0  0  0  0
 14 16  2  0  0  0  0
 14 26  1  0  0  0  0
 15 16  1  0  0  0  0
 15 27  1  0  0  0  0
 16 28  1  0  0  0  0
 17 29  1  0  0  0  0
M  END
> <PUBCHEM_COMPOUND_CID>
9576958

> <PUBCHEM_CONFORMER_RMSD>
0.6

> <PUBCHEM_CONFORMER_DIVERSEORDER>
1
7
8
3
4
5
6
2

> <PUBCHEM_MMFF94_PARTIAL_CHARGES>
29
1 -0.46
10 -0.15
11 0.18
12 -0.15
13 -0.15
14 -0.15
15 -0.15
16 -0.15
17 0.6
18 0.15
19 0.15
2 -0.18
20 0.15
21 0.15
22 0.15
23 0.15
24 0.15
25 0.4
26 0.15
27 0.15
28 0.15
29 0.06
3 -0.49
4 -0.21
5 0.1
6 -0.15
7 -0.15
8 -0.15
9 -0.15

> <PUBCHEM_EFFECTIVE_ROTOR_COUNT>
4

> <PUBCHEM_PHARMACOPHORE_FEATURES>
4
1 1 donor
3 3 4 17 cation
6 11 12 13 14 15 16 rings
6 5 6 7 8 9 10 rings

> <PUBCHEM_HEAVY_ATOM_COUNT>
17

> <PUBCHEM_ATOM_DEF_STEREO_COUNT>
0

> <PUBCHEM_ATOM_UDEF_STEREO_COUNT>
0

> <PUBCHEM_BOND_DEF_STEREO_COUNT>
1

> <PUBCHEM_BOND_UDEF_STEREO_COUNT>
0

> <PUBCHEM_ISOTOPIC_ATOM_COUNT>
0

> <PUBCHEM_COMPONENT_COUNT>
1

> <PUBCHEM_CACTVS_TAUTO_COUNT>
1

> <PUBCHEM_CONFORMER_ID>
009221FE00000001

> <PUBCHEM_MMFF94_ENERGY>
51.5556

> <PUBCHEM_FEATURE_SELFOVERLAP>
20.297

> <PUBCHEM_SHAPE_FINGERPRINT>
10014705 185 18409163329240126351
11089746 13 17703503372710071200
12596602 18 14201404884587132260
13103583 49 13334737890913473317
13675066 3 17676490548899531810
14123255 352 18408603669009964749
1420 369 8574713511418446336
14252887 29 12540689298116796954
14848178 96 18342170128794193672
15188451 53 14851896906340784489
15196674 1 18410574010979335648
17780758 139 12685081584228313533
17834072 32 18410292527354616182
17870717 6 13542463159841098245
20281389 69 18333448768329230976
20325693 3 15410894051135906341
20432913 95 8358258154805618781
20645477 56 18187366506606533887
231179 274 18333449815879264546
23402539 116 17560801026546880064
23402655 69 18272932756574866686
23403322 49 10231754483580276365
23559900 14 18202006512984698382
27216 239 18187088364877509067
2838139 119 18343015575557101237
4259306 186 10231755578322209313
4325135 7 18343300388799392079
474 4 18341050731304131227
5104073 3 18261387910295409538
6328613 192 18336553819737588252
633830 44 18411697699384703366

> <PUBCHEM_SHAPE_MULTIPOLES>
329.93
13.69
1.98
0.96
3.29
0.14
0
-7.22
0
0.49
0
-1.45
-0.19
0

> <PUBCHEM_SHAPE_SELFOVERLAP>
701.109

> <PUBCHEM_SHAPE_VOLUME>
183.1

> <PUBCHEM_COORDINATE_TYPE>
2
5
10

$$$$
