78466
  -OEChem-11012401213D

 31 31  0     0  0  0  0  0  0999 V2000
    1.0892   -1.3270   -0.6047 O   0  0  0  0  0  0  0  0  0  0  0  0
    1.5143    1.4491   -0.0831 C   0  0  0  0  0  0  0  0  0  0  0  0
    0.1642    0.8126   -0.0463 C   0  0  0  0  0  0  0  0  0  0  0  0
    0.0108   -0.5489   -0.3085 C   0  0  0  0  0  0  0  0  0  0  0  0
    1.9277    2.0284    1.2824 C   0  0  0  0  0  0  0  0  0  0  0  0
    1.6215    2.5369   -1.1677 C   0  0  0  0  0  0  0  0  0  0  0  0
   -0.9505    1.5948    0.2555 C   0  0  0  0  0  0  0  0  0  0  0  0
   -1.2577   -1.1281   -0.2690 C   0  0  0  0  0  0  0  0  0  0  0  0
   -2.3724   -0.3457    0.0328 C   0  0  0  0  0  0  0  0  0  0  0  0
   -2.2187    1.0157    0.2951 C   0  0  0  0  0  0  0  0  0  0  0  0
   -3.7287   -0.9643    0.0750 C   0  0  0  0  0  0  0  0  0  0  0  0
    1.3559   -2.4238    0.2671 C   0  0  0  0  0  0  0  0  0  0  0  0
    2.8444   -2.6997    0.2712 C   0  0  0  0  0  0  0  0  0  0  0  0
    2.2753    0.7000   -0.3340 H   0  0  0  0  0  0  0  0  0  0  0  0
    1.2825    2.8586    1.5892 H   0  0  0  0  0  0  0  0  0  0  0  0
    2.9563    2.4035    1.2445 H   0  0  0  0  0  0  0  0  0  0  0  0
    1.8793    1.2593    2.0613 H   0  0  0  0  0  0  0  0  0  0  0  0
    1.3520    2.1341   -2.1503 H   0  0  0  0  0  0  0  0  0  0  0  0
    2.6472    2.9166   -1.2302 H   0  0  0  0  0  0  0  0  0  0  0  0
    0.9642    3.3885   -0.9620 H   0  0  0  0  0  0  0  0  0  0  0  0
   -0.8561    2.6569    0.4639 H   0  0  0  0  0  0  0  0  0  0  0  0
   -1.3818   -2.1875   -0.4795 H   0  0  0  0  0  0  0  0  0  0  0  0
   -3.0792    1.6353    0.5333 H   0  0  0  0  0  0  0  0  0  0  0  0
   -3.8141   -1.7760   -0.6554 H   0  0  0  0  0  0  0  0  0  0  0  0
   -3.9269   -1.3669    1.0733 H   0  0  0  0  0  0  0  0  0  0  0  0
   -4.5066   -0.2323   -0.1677 H   0  0  0  0  0  0  0  0  0  0  0  0
    1.0279   -2.2015    1.2903 H   0  0  0  0  0  0  0  0  0  0  0  0
    0.8153   -3.3054   -0.0940 H   0  0  0  0  0  0  0  0  0  0  0  0
    3.0838   -3.5452    0.9221 H   0  0  0  0  0  0  0  0  0  0  0  0
    3.1985   -2.9213   -0.7410 H   0  0  0  0  0  0  0  0  0  0  0  0
    3.3978   -1.8200    0.6164 H   0  0  0  0  0  0  0  0  0  0  0  0
  1  4  1  0  0  0  0
  1 12  1  0  0  0  0
  2  3  1  0  0  0  0
  2  5  1  0  0  0  0
  2  6  1  0  0  0  0
  2 14  1  0  0  0  0
  3  4  2  0  0  0  0
  3  7  1  0  0  0  0
  4  8  1  0  0  0  0
  5 15  1  0  0  0  0
  5 16  1  0  0  0  0
  5 17  1  0  0  0  0
  6 18  1  0  0  0  0
  6 19  1  0  0  0  0
  6 20  1  0  0  0  0
  7 10  2  0  0  0  0
  7 21  1  0  0  0  0
  8  9  2  0  0  0  0
  8 22  1  0  0  0  0
  9 10  1  0  0  0  0
  9 11  1  0  0  0  0
 10 23  1  0  0  0  0
 11 24  1  0  0  0  0
 11 25  1  0  0  0  0
 11 26  1  0  0  0  0
 12 13  1  0  0  0  0
 12 27  1  0  0  0  0
 12 28  1  0  0  0  0
 13 29  1  0  0  0  0
 13 30  1  0  0  0  0
 13 31  1  0  0  0  0
M  END
> <PUBCHEM_COMPOUND_CID>
78466

> <PUBCHEM_CONFORMER_RMSD>
0.6

> <PUBCHEM_CONFORMER_DIVERSEORDER>
1
6
8
5
7
2
4
3

> <PUBCHEM_MMFF94_PARTIAL_CHARGES>
13
1 -0.36
10 -0.15
11 0.14
12 0.28
2 0.14
21 0.15
22 0.15
23 0.15
3 -0.14
4 0.08
7 -0.15
8 -0.15
9 -0.14

> <PUBCHEM_EFFECTIVE_ROTOR_COUNT>
3

> <PUBCHEM_PHARMACOPHORE_FEATURES>
3
1 1 acceptor
3 2 5 6 hydrophobe
6 3 4 7 8 9 10 rings

> <PUBCHEM_HEAVY_ATOM_COUNT>
13

> <PUBCHEM_ATOM_DEF_STEREO_COUNT>
0

> <PUBCHEM_ATOM_UDEF_STEREO_COUNT>
0

> <PUBCHEM_BOND_DEF_STEREO_COUNT>
0

> <PUBCHEM_BOND_UDEF_STEREO_COUNT>
0

> <PUBCHEM_ISOTOPIC_ATOM_COUNT>
0

> <PUBCHEM_COMPONENT_COUNT>
1

> <PUBCHEM_CACTVS_TAUTO_COUNT>
1

> <PUBCHEM_CONFORMER_ID>
0001328200000001

> <PUBCHEM_MMFF94_ENERGY>
37.2803

> <PUBCHEM_FEATURE_SELFOVERLAP>
15.223

> <PUBCHEM_SHAPE_FINGERPRINT>
1 1 18267019634000124164
11680986 33 18338786811140079441
12423570 1 13798109117507665637
16945 1 18195528318916354261
17841504 4 18339081493099092371
19021347 11 18338239374323460902
193761 8 18339644434557543941
20510252 161 17044007196748848170
20511035 2 18271521988372088229
20645476 183 17466228947444637372
20645477 70 18411132568052242663
21501502 16 18341339907489344065
21650355 55 17904189335329788226
23419403 2 17193984044442182849
23552423 10 18409739473306583813
23557571 272 17696193600102053494
2748010 2 18194956353372690287
305870 269 18340761658361332488
3071541 236 17474656734104448224
3071541 37 18336550542096733935
43471831 8 18194677292310232666
528862 383 18337101362614287179
5493415 88 18337952264450170499
57177213 63 18265346164581543781
58554843 112 18340769342194799707
7364860 26 18343018895592999970
81228 2 17403749851967861330
81539 233 18189893308822965079

> <PUBCHEM_SHAPE_MULTIPOLES>
261.66
4.26
3.28
0.9
2.87
0.93
0.04
1.4
0.43
-3.42
0.03
-0.45
-0.47
-0.25

> <PUBCHEM_SHAPE_SELFOVERLAP>
527.067

> <PUBCHEM_SHAPE_VOLUME>
155.7

> <PUBCHEM_COORDINATE_TYPE>
2
5
10

$$$$
