14024554
  -OEChem-11012400483D

 37 36  0     0  0  0  0  0  0999 V2000
   -0.7883    0.1585    0.0365 Si  0  0  0  0  0  0  0  0  0  0  0  0
    0.7475   -0.0625    0.7752 N   0  0  0  0  0  0  0  0  0  0  0  0
    2.0015   -0.2932    0.0710 C   0  0  0  0  0  0  0  0  0  0  0  0
   -2.1163    0.0217    1.3487 C   0  0  0  0  0  0  0  0  0  0  0  0
   -1.0497   -1.1641   -1.2601 C   0  0  0  0  0  0  0  0  0  0  0  0
   -0.8678    1.8495   -0.7585 C   0  0  0  0  0  0  0  0  0  0  0  0
    3.1605   -0.0310    1.0385 C   0  0  0  0  0  0  0  0  0  0  0  0
    2.0332   -1.7493   -0.4051 C   0  0  0  0  0  0  0  0  0  0  0  0
    2.0927    0.6560   -1.1298 C   0  0  0  0  0  0  0  0  0  0  0  0
   -2.1687   -1.3042    2.0965 C   0  0  0  0  0  0  0  0  0  0  0  0
   -2.3825   -1.1111   -1.9952 C   0  0  0  0  0  0  0  0  0  0  0  0
   -0.6622    3.0296    0.1823 C   0  0  0  0  0  0  0  0  0  0  0  0
    0.8812    0.6577    1.4848 H   0  0  0  0  0  0  0  0  0  0  0  0
   -1.9712    0.8242    2.0810 H   0  0  0  0  0  0  0  0  0  0  0  0
   -3.0920    0.2007    0.8827 H   0  0  0  0  0  0  0  0  0  0  0  0
   -0.2818   -1.0746   -2.0326 H   0  0  0  0  0  0  0  0  0  0  0  0
   -0.9432   -2.1531   -0.8011 H   0  0  0  0  0  0  0  0  0  0  0  0
   -0.1795    1.9374   -1.6023 H   0  0  0  0  0  0  0  0  0  0  0  0
   -1.8682    1.9529   -1.1972 H   0  0  0  0  0  0  0  0  0  0  0  0
    3.1056   -0.6874    1.9150 H   0  0  0  0  0  0  0  0  0  0  0  0
    4.1276   -0.2093    0.5541 H   0  0  0  0  0  0  0  0  0  0  0  0
    3.1606    1.0056    1.3961 H   0  0  0  0  0  0  0  0  0  0  0  0
    1.4254   -1.9522   -1.2857 H   0  0  0  0  0  0  0  0  0  0  0  0
    1.7329   -2.4421    0.3903 H   0  0  0  0  0  0  0  0  0  0  0  0
    3.0564   -2.0274   -0.6892 H   0  0  0  0  0  0  0  0  0  0  0  0
    1.9897    1.7062   -0.8348 H   0  0  0  0  0  0  0  0  0  0  0  0
    3.0913    0.5731   -1.5801 H   0  0  0  0  0  0  0  0  0  0  0  0
    1.3996    0.4250   -1.9423 H   0  0  0  0  0  0  0  0  0  0  0  0
   -2.9710   -1.2831    2.8414 H   0  0  0  0  0  0  0  0  0  0  0  0
   -2.3654   -2.1411    1.4179 H   0  0  0  0  0  0  0  0  0  0  0  0
   -1.2297   -1.5080    2.6225 H   0  0  0  0  0  0  0  0  0  0  0  0
   -2.4357   -1.9166   -2.7354 H   0  0  0  0  0  0  0  0  0  0  0  0
   -3.2259   -1.2345   -1.3073 H   0  0  0  0  0  0  0  0  0  0  0  0
   -2.5142   -0.1617   -2.5256 H   0  0  0  0  0  0  0  0  0  0  0  0
   -0.7541    3.9701   -0.3712 H   0  0  0  0  0  0  0  0  0  0  0  0
   -1.4082    3.0428    0.9842 H   0  0  0  0  0  0  0  0  0  0  0  0
    0.3308    3.0100    0.6438 H   0  0  0  0  0  0  0  0  0  0  0  0
  1  2  1  0  0  0  0
  1  4  1  0  0  0  0
  1  5  1  0  0  0  0
  1  6  1  0  0  0  0
  2  3  1  0  0  0  0
  2 13  1  0  0  0  0
  3  7  1  0  0  0  0
  3  8  1  0  0  0  0
  3  9  1  0  0  0  0
  4 10  1  0  0  0  0
  4 14  1  0  0  0  0
  4 15  1  0  0  0  0
  5 11  1  0  0  0  0
  5 16  1  0  0  0  0
  5 17  1  0  0  0  0
  6 12  1  0  0  0  0
  6 18  1  0  0  0  0
  6 19  1  0  0  0  0
  7 20  1  0  0  0  0
  7 21  1  0  0  0  0
  7 22  1  0  0  0  0
  8 23  1  0  0  0  0
  8 24  1  0  0  0  0
  8 25  1  0  0  0  0
  9 26  1  0  0  0  0
  9 27  1  0  0  0  0
  9 28  1  0  0  0  0
 10 29  1  0  0  0  0
 10 30  1  0  0  0  0
 10 31  1  0  0  0  0
 11 32  1  0  0  0  0
 11 33  1  0  0  0  0
 11 34  1  0  0  0  0
 12 35  1  0  0  0  0
 12 36  1  0  0  0  0
 12 37  1  0  0  0  0
M  END
> <PUBCHEM_COMPOUND_CID>
14024554

> <PUBCHEM_CONFORMER_RMSD>
0.6

> <PUBCHEM_CONFORMER_DIVERSEORDER>
1
16
6
9
7
5
4
8
12
11
19
10
14
18
17
13
15
21
2
20
3

> <PUBCHEM_MMFF94_PARTIAL_CHARGES>
7
1 0.59
13 0.36
2 -0.98
3 0.27
4 -0.08
5 -0.08
6 -0.08

> <PUBCHEM_EFFECTIVE_ROTOR_COUNT>
5

> <PUBCHEM_PHARMACOPHORE_FEATURES>
1
4 3 7 8 9 hydrophobe

> <PUBCHEM_HEAVY_ATOM_COUNT>
12

> <PUBCHEM_ATOM_DEF_STEREO_COUNT>
0

> <PUBCHEM_ATOM_UDEF_STEREO_COUNT>
0

> <PUBCHEM_BOND_DEF_STEREO_COUNT>
0

> <PUBCHEM_BOND_UDEF_STEREO_COUNT>
0

> <PUBCHEM_ISOTOPIC_ATOM_COUNT>
0

> <PUBCHEM_COMPONENT_COUNT>
1

> <PUBCHEM_CACTVS_TAUTO_COUNT>
1

> <PUBCHEM_CONFORMER_ID>
00D5FF6A00000001

> <PUBCHEM_MMFF94_ENERGY>
7.576

> <PUBCHEM_FEATURE_SELFOVERLAP>
5.074

> <PUBCHEM_SHAPE_FINGERPRINT>
1 1 17192061960577598221
12932764 1 18130225961242522178
13024252 1 17749383715981978313
14614273 12 17845638300993342558
14817 1 11389200285161744469
15076042 46 18118138994946797001
15775835 57 17988359282513189366
15906896 17 18191587445793452845
16945 1 17971492709671181969
19010151 120 18055327361896108486
20082192 1 17488733476690519882
20511035 2 17834968472743200932
20711978 78 17829906669307058073
21028194 46 17691970366795949424
21061003 4 18116725207708563688
21524375 3 17472408859822858420
2306618 200 17631147750353319346
23419403 2 17534611913471941905
23526113 38 17605251056111109351
2748010 2 17839751369883453996
5084963 1 18122925126239251792
528862 383 17686925098972885641
68419 9 17126507321099197905
76951 1 16958103753667352889
81228 2 18263076635011245153
9999458 23 16125602953886762627

> <PUBCHEM_SHAPE_MULTIPOLES>
260.19
3.92
2.28
1.87
2.25
1.84
0.12
-1.33
0.64
-0.72
-0.26
-1.39
-0.83
-0.03

> <PUBCHEM_SHAPE_SELFOVERLAP>
463.259

> <PUBCHEM_SHAPE_VOLUME>
171.3

> <PUBCHEM_COORDINATE_TYPE>
2
5
10

$$$$
