252321
  -OEChem-11012401153D

 15 15  0     1  0  0  0  0  0999 V2000
   -0.7503    0.2656    0.4229 C   0  0  1  0  0  0  0  0  0  0  0  0
    0.7504    0.2654    0.4228 C   0  0  2  0  0  0  0  0  0  0  0  0
    0.0002    1.2183   -0.4607 C   0  0  0  0  0  0  0  0  0  0  0  0
   -1.4732   -0.8745   -0.1925 C   0  0  0  0  0  0  0  0  0  0  0  0
    1.4729   -0.8748   -0.1925 C   0  0  0  0  0  0  0  0  0  0  0  0
   -1.2503    0.6551    1.3003 H   0  0  0  0  0  0  0  0  0  0  0  0
    1.2505    0.6548    1.3002 H   0  0  0  0  0  0  0  0  0  0  0  0
    0.0001    1.0494   -1.5307 H   0  0  0  0  0  0  0  0  0  0  0  0
    0.0003    2.2660   -0.1830 H   0  0  0  0  0  0  0  0  0  0  0  0
   -2.5412   -0.6401   -0.2566 H   0  0  0  0  0  0  0  0  0  0  0  0
   -1.1360   -1.1099   -1.2067 H   0  0  0  0  0  0  0  0  0  0  0  0
   -1.3691   -1.7723    0.4253 H   0  0  0  0  0  0  0  0  0  0  0  0
    1.1355   -1.1102   -1.2067 H   0  0  0  0  0  0  0  0  0  0  0  0
    2.5409   -0.6409   -0.2567 H   0  0  0  0  0  0  0  0  0  0  0  0
    1.3685   -1.7725    0.4253 H   0  0  0  0  0  0  0  0  0  0  0  0
  1  2  1  0  0  0  0
  1  3  1  0  0  0  0
  1  4  1  0  0  0  0
  1  6  1  0  0  0  0
  2  3  1  0  0  0  0
  2  5  1  0  0  0  0
  2  7  1  0  0  0  0
  3  8  1  0  0  0  0
  3  9  1  0  0  0  0
  4 10  1  0  0  0  0
  4 11  1  0  0  0  0
  4 12  1  0  0  0  0
  5 13  1  0  0  0  0
  5 14  1  0  0  0  0
  5 15  1  0  0  0  0
M  END
> <PUBCHEM_COMPOUND_CID>
252321

> <PUBCHEM_CONFORMER_RMSD>
0.4

> <PUBCHEM_CONFORMER_DIVERSEORDER>
1

> <PUBCHEM_MMFF94_PARTIAL_CHARGES>
9
1 -0.19
2 -0.19
3 -0.2
4 0.09
5 0.09
6 0.1
7 0.1
8 0.1
9 0.1

> <PUBCHEM_EFFECTIVE_ROTOR_COUNT>
0.6

> <PUBCHEM_PHARMACOPHORE_FEATURES>
0

> <PUBCHEM_HEAVY_ATOM_COUNT>
5

> <PUBCHEM_ATOM_DEF_STEREO_COUNT>
2

> <PUBCHEM_ATOM_UDEF_STEREO_COUNT>
0

> <PUBCHEM_BOND_DEF_STEREO_COUNT>
0

> <PUBCHEM_BOND_UDEF_STEREO_COUNT>
0

> <PUBCHEM_ISOTOPIC_ATOM_COUNT>
0

> <PUBCHEM_COMPONENT_COUNT>
1

> <PUBCHEM_CACTVS_TAUTO_COUNT>
1

> <PUBCHEM_CONFORMER_ID>
0003D9A100000001

> <PUBCHEM_MMFF94_ENERGY>
11.1086

> <PUBCHEM_FEATURE_SELFOVERLAP>
0

> <PUBCHEM_SHAPE_FINGERPRINT>
139733 1 9007059067008580523
16714656 1 18048328746893995086
21015797 1 9366532264753993857
21040471 1 17543905711562285432
29004967 10 18261678180726779859
5943 1 14242471226982490009

> <PUBCHEM_SHAPE_MULTIPOLES>
102.9
1.71
1.25
0.75
0
0.1
-0.01
-0.7
0.07
0
0.18
0
0.06
0

> <PUBCHEM_SHAPE_SELFOVERLAP>
189.561

> <PUBCHEM_SHAPE_VOLUME>
67.8

> <PUBCHEM_COORDINATE_TYPE>
2
5
10

$$$$
