66261
  -OEChem-11012400493D

 29 28  0     0  0  0  0  0  0999 V2000
   -0.0080   -1.7789   -0.2645 O   0  0  0  0  0  0  0  0  0  0  0  0
    2.4463    0.5694    0.2298 O   0  0  0  0  0  0  0  0  0  0  0  0
   -2.4586    0.5728    0.2419 O   0  0  0  0  0  0  0  0  0  0  0  0
    0.0096   -3.3383    1.3061 O   0  5  0  0  0  0  0  0  0  0  0  0
    3.3812    1.2453   -1.6598 O   0  5  0  0  0  0  0  0  0  0  0  0
   -3.3824    1.2558   -1.6506 O   0  5  0  0  0  0  0  0  0  0  0  0
   -0.0167   -3.9813   -0.8287 O   0  0  0  0  0  0  0  0  0  0  0  0
    4.7085    0.5785    0.0031 O   0  0  0  0  0  0  0  0  0  0  0  0
   -4.7198    0.5940    0.0061 O   0  0  0  0  0  0  0  0  0  0  0  0
   -0.0051   -3.1567    0.0880 N   0  3  0  0  0  0  0  0  0  0  0  0
    3.6227    0.8151   -0.5313 N   0  3  0  0  0  0  0  0  0  0  0  0
   -3.6306    0.8251   -0.5237 N   0  3  0  0  0  0  0  0  0  0  0  0
    0.0026    0.5828    0.4115 C   0  0  0  0  0  0  0  0  0  0  0  0
    0.0221    1.4357    1.7155 C   0  0  0  0  0  0  0  0  0  0  0  0
    0.0066   -0.9056    0.8579 C   0  0  0  0  0  0  0  0  0  0  0  0
    1.2450    0.8706   -0.4683 C   0  0  0  0  0  0  0  0  0  0  0  0
   -1.2530    0.8690   -0.4508 C   0  0  0  0  0  0  0  0  0  0  0  0
    0.0296    2.9467    1.5177 C   0  0  0  0  0  0  0  0  0  0  0  0
    0.9010    1.1691    2.3168 H   0  0  0  0  0  0  0  0  0  0  0  0
   -0.8512    1.1809    2.3299 H   0  0  0  0  0  0  0  0  0  0  0  0
   -0.8783   -1.0933    1.4812 H   0  0  0  0  0  0  0  0  0  0  0  0
    0.9034   -1.0971    1.4624 H   0  0  0  0  0  0  0  0  0  0  0  0
    1.1892    0.2522   -1.3746 H   0  0  0  0  0  0  0  0  0  0  0  0
    1.2394    1.9240   -0.7758 H   0  0  0  0  0  0  0  0  0  0  0  0
   -1.2017    0.2543   -1.3602 H   0  0  0  0  0  0  0  0  0  0  0  0
   -1.2464    1.9229   -0.7568 H   0  0  0  0  0  0  0  0  0  0  0  0
   -0.8589    3.2911    0.9818 H   0  0  0  0  0  0  0  0  0  0  0  0
    0.0345    3.4447    2.4933 H   0  0  0  0  0  0  0  0  0  0  0  0
    0.9193    3.2821    0.9782 H   0  0  0  0  0  0  0  0  0  0  0  0
  1 10  1  0  0  0  0
  1 15  1  0  0  0  0
  2 11  1  0  0  0  0
  2 16  1  0  0  0  0
  3 12  1  0  0  0  0
  3 17  1  0  0  0  0
  4 10  1  0  0  0  0
  5 11  1  0  0  0  0
  6 12  1  0  0  0  0
  7 10  2  0  0  0  0
  8 11  2  0  0  0  0
  9 12  2  0  0  0  0
 13 14  1  0  0  0  0
 13 15  1  0  0  0  0
 13 16  1  0  0  0  0
 13 17  1  0  0  0  0
 14 18  1  0  0  0  0
 14 19  1  0  0  0  0
 14 20  1  0  0  0  0
 15 21  1  0  0  0  0
 15 22  1  0  0  0  0
 16 23  1  0  0  0  0
 16 24  1  0  0  0  0
 17 25  1  0  0  0  0
 17 26  1  0  0  0  0
 18 27  1  0  0  0  0
 18 28  1  0  0  0  0
 18 29  1  0  0  0  0
M  CHG  6   4  -1   5  -1   6  -1  10   1  11   1  12   1
M  END
> <PUBCHEM_COMPOUND_CID>
66261

> <PUBCHEM_CONFORMER_RMSD>
0.8

> <PUBCHEM_CONFORMER_DIVERSEORDER>
1
60
44
5
50
59
2
54
23
62
46
58
38
48
56
27
49
45
31
53
29
30
20
24
8
34
26
43
41
17
22
35
42
55
13
28
18
6
40
61
7
25
52
14
21
16
39
11
51
57
32
10
33
12
36
3
47
9
15
19
37
4

> <PUBCHEM_MMFF94_PARTIAL_CHARGES>
15
1 -0.27
10 1.03
11 1.03
12 1.03
15 0.28
16 0.28
17 0.28
2 -0.27
3 -0.27
4 -0.52
5 -0.52
6 -0.52
7 -0.52
8 -0.52
9 -0.52

> <PUBCHEM_EFFECTIVE_ROTOR_COUNT>
10

> <PUBCHEM_PHARMACOPHORE_FEATURES>
7
1 18 hydrophobe
1 4 acceptor
1 5 acceptor
1 6 acceptor
1 7 acceptor
1 8 acceptor
1 9 acceptor

> <PUBCHEM_HEAVY_ATOM_COUNT>
18

> <PUBCHEM_ATOM_DEF_STEREO_COUNT>
0

> <PUBCHEM_ATOM_UDEF_STEREO_COUNT>
0

> <PUBCHEM_BOND_DEF_STEREO_COUNT>
0

> <PUBCHEM_BOND_UDEF_STEREO_COUNT>
0

> <PUBCHEM_ISOTOPIC_ATOM_COUNT>
0

> <PUBCHEM_COMPONENT_COUNT>
1

> <PUBCHEM_CACTVS_TAUTO_COUNT>
1

> <PUBCHEM_CONFORMER_ID>
000102D500000001

> <PUBCHEM_MMFF94_ENERGY>
53.4381

> <PUBCHEM_FEATURE_SELFOVERLAP>
35.736

> <PUBCHEM_SHAPE_FINGERPRINT>
116883 192 17621028094339508911
12592029 89 17894912884637986504
12715332 25 18340209703471382883
13149001 5 18128533966928497816
14115302 16 18337397131975628852
14943834 7 17623297065226793424
15502722 9 18117275861460753839
18186145 218 18342450473846462441
187816 3 18272655649248073704
20645476 183 18260546766324561078
20645477 70 18192136102723136111
20711985 344 17831005098334459426
21524375 3 18040434399409369996
23402539 116 18059858333603848548
23419403 2 16986028187679791178
298252 57 18040151842169537680
3060560 45 18334003995551717829
3250762 1 17695058199157683912
5845 1 9654192140800776011
81228 2 17542772562130397043
81539 233 18187360978825192999

> <PUBCHEM_SHAPE_MULTIPOLES>
302.66
5.97
3.72
1.41
0.08
5.28
0.07
-3.62
-3
0.02
1.01
-0.02
-0.54
0.01

> <PUBCHEM_SHAPE_SELFOVERLAP>
583.74

> <PUBCHEM_SHAPE_VOLUME>
183.5

> <PUBCHEM_COORDINATE_TYPE>
2
5
10

$$$$
