139085
  -OEChem-11012400553D

 22 23  0     0  0  0  0  0  0999 V2000
   -0.8294    0.0000   -0.0002 C   0  0  0  0  0  0  0  0  0  0  0  0
    1.3232    0.0001    0.5779 C   0  0  0  0  0  0  0  0  0  0  0  0
   -0.0231   -0.0001    1.3026 C   0  0  0  0  0  0  0  0  0  0  0  0
   -0.2757   -1.2537   -0.7110 C   0  0  0  0  0  0  0  0  0  0  0  0
   -0.2760    1.2539   -0.7107 C   0  0  0  0  0  0  0  0  0  0  0  0
    1.2073   -1.2497   -0.3102 C   0  0  0  0  0  0  0  0  0  0  0  0
    1.2072    1.2497   -0.3103 C   0  0  0  0  0  0  0  0  0  0  0  0
   -2.3335   -0.0002    0.1619 C   0  0  0  0  0  0  0  0  0  0  0  0
    2.2056    0.0001    1.2207 H   0  0  0  0  0  0  0  0  0  0  0  0
   -0.1836   -0.8950    1.9138 H   0  0  0  0  0  0  0  0  0  0  0  0
   -0.1837    0.8946    1.9140 H   0  0  0  0  0  0  0  0  0  0  0  0
   -0.4042   -1.2102   -1.7977 H   0  0  0  0  0  0  0  0  0  0  0  0
   -0.7585   -2.1692   -0.3496 H   0  0  0  0  0  0  0  0  0  0  0  0
   -0.7586    2.1693   -0.3487 H   0  0  0  0  0  0  0  0  0  0  0  0
   -0.4047    1.2108   -1.7973 H   0  0  0  0  0  0  0  0  0  0  0  0
    1.4446   -2.1551    0.2599 H   0  0  0  0  0  0  0  0  0  0  0  0
    1.8692   -1.2112   -1.1811 H   0  0  0  0  0  0  0  0  0  0  0  0
    1.8689    1.2110   -1.1814 H   0  0  0  0  0  0  0  0  0  0  0  0
    1.4448    2.1551    0.2596 H   0  0  0  0  0  0  0  0  0  0  0  0
   -2.8318   -0.0002   -0.8132 H   0  0  0  0  0  0  0  0  0  0  0  0
   -2.6711   -0.8841    0.7134 H   0  0  0  0  0  0  0  0  0  0  0  0
   -2.6713    0.8837    0.7135 H   0  0  0  0  0  0  0  0  0  0  0  0
  1  3  1  0  0  0  0
  1  4  1  0  0  0  0
  1  5  1  0  0  0  0
  1  8  1  0  0  0  0
  2  3  1  0  0  0  0
  2  6  1  0  0  0  0
  2  7  1  0  0  0  0
  2  9  1  0  0  0  0
  3 10  1  0  0  0  0
  3 11  1  0  0  0  0
  4  6  1  0  0  0  0
  4 12  1  0  0  0  0
  4 13  1  0  0  0  0
  5  7  1  0  0  0  0
  5 14  1  0  0  0  0
  5 15  1  0  0  0  0
  6 16  1  0  0  0  0
  6 17  1  0  0  0  0
  7 18  1  0  0  0  0
  7 19  1  0  0  0  0
  8 20  1  0  0  0  0
  8 21  1  0  0  0  0
  8 22  1  0  0  0  0
M  END
> <PUBCHEM_COMPOUND_CID>
139085

> <PUBCHEM_CONFORMER_RMSD>
0.4

> <PUBCHEM_CONFORMER_DIVERSEORDER>
1

> <PUBCHEM_MMFF94_PARTIAL_CHARGES>
0

> <PUBCHEM_EFFECTIVE_ROTOR_COUNT>
1

> <PUBCHEM_PHARMACOPHORE_FEATURES>
1
7 1 2 3 4 5 6 7 rings

> <PUBCHEM_HEAVY_ATOM_COUNT>
8

> <PUBCHEM_ATOM_DEF_STEREO_COUNT>
0

> <PUBCHEM_ATOM_UDEF_STEREO_COUNT>
0

> <PUBCHEM_BOND_DEF_STEREO_COUNT>
0

> <PUBCHEM_BOND_UDEF_STEREO_COUNT>
0

> <PUBCHEM_ISOTOPIC_ATOM_COUNT>
0

> <PUBCHEM_COMPONENT_COUNT>
1

> <PUBCHEM_CACTVS_TAUTO_COUNT>
1

> <PUBCHEM_CONFORMER_ID>
00021F4D00000001

> <PUBCHEM_MMFF94_ENERGY>
27.6439

> <PUBCHEM_FEATURE_SELFOVERLAP>
5.074

> <PUBCHEM_SHAPE_FINGERPRINT>
12423570 1 13466248311726483256
137420 1 7922568773939060194
16945 1 18410575084678903186
21040471 1 18129378366109470131
29004967 10 18335425625336553387
5084963 1 18343014489141092627
5943 1 11992542984024805274
68250623 7 17826232887183361730

> <PUBCHEM_SHAPE_MULTIPOLES>
164.64
1.99
1.4
1.02
0.94
0
-0.2
0
-0.11
-0.36
0.4
-0.04
0
0

> <PUBCHEM_SHAPE_SELFOVERLAP>
346.278

> <PUBCHEM_SHAPE_VOLUME>
93.2

> <PUBCHEM_COORDINATE_TYPE>
2
5
10

$$$$
