67579525
  -OEChem-11012401253D

 50 52  0     0  0  0  0  0  0999 V2000
    0.3100    1.0480   -0.9748 Si  0  0  0  0  0  0  0  0  0  0  0  0
   -0.9915    1.6906   -0.1396 O   0  0  0  0  0  0  0  0  0  0  0  0
    1.7061    1.4069   -0.1326 O   0  0  0  0  0  0  0  0  0  0  0  0
    0.1348   -0.6092   -1.0745 O   0  0  0  0  0  0  0  0  0  0  0  0
    0.3928    1.7902   -2.6966 C   0  0  0  0  0  0  0  0  0  0  0  0
   -2.3312    1.4424   -0.1332 C   0  0  0  0  0  0  0  0  0  0  0  0
    2.9712    0.8814   -0.1200 C   0  0  0  0  0  0  0  0  0  0  0  0
   -0.3097   -1.5676   -0.2020 C   0  0  0  0  0  0  0  0  0  0  0  0
   -3.0888    1.6452    1.0203 C   0  0  0  0  0  0  0  0  0  0  0  0
    3.7484    0.9199    1.0375 C   0  0  0  0  0  0  0  0  0  0  0  0
   -0.9282   -2.7269   -0.6701 C   0  0  0  0  0  0  0  0  0  0  0  0
   -2.9441    0.9810   -1.2979 C   0  0  0  0  0  0  0  0  0  0  0  0
    3.4800    0.3027   -1.2828 C   0  0  0  0  0  0  0  0  0  0  0  0
   -0.1372   -1.3737    1.1685 C   0  0  0  0  0  0  0  0  0  0  0  0
   -4.4594    1.3865    1.0089 C   0  0  0  0  0  0  0  0  0  0  0  0
    5.0344    0.3797    1.0325 C   0  0  0  0  0  0  0  0  0  0  0  0
   -1.3741   -3.6924    0.2324 C   0  0  0  0  0  0  0  0  0  0  0  0
   -2.4497    2.1390    2.2762 C   0  0  0  0  0  0  0  0  0  0  0  0
    3.2201    1.5350    2.2913 C   0  0  0  0  0  0  0  0  0  0  0  0
   -1.1209   -2.9514   -2.1336 C   0  0  0  0  0  0  0  0  0  0  0  0
   -4.3148    0.7223   -1.3096 C   0  0  0  0  0  0  0  0  0  0  0  0
    4.7659   -0.2376   -1.2879 C   0  0  0  0  0  0  0  0  0  0  0  0
   -0.5832   -2.3393    2.0710 C   0  0  0  0  0  0  0  0  0  0  0  0
   -5.0724    0.9250   -0.1560 C   0  0  0  0  0  0  0  0  0  0  0  0
    5.5432   -0.1991   -0.1303 C   0  0  0  0  0  0  0  0  0  0  0  0
   -1.2016   -3.4986    1.6030 C   0  0  0  0  0  0  0  0  0  0  0  0
    1.2397    1.3940   -3.2624 H   0  0  0  0  0  0  0  0  0  0  0  0
   -0.5138    1.5753   -3.2680 H   0  0  0  0  0  0  0  0  0  0  0  0
    0.5049    2.8768   -2.6356 H   0  0  0  0  0  0  0  0  0  0  0  0
   -2.3942    0.8148   -2.2174 H   0  0  0  0  0  0  0  0  0  0  0  0
    2.9124    0.2567   -2.2052 H   0  0  0  0  0  0  0  0  0  0  0  0
    0.3503   -0.4910    1.5701 H   0  0  0  0  0  0  0  0  0  0  0  0
   -5.0640    1.5390    1.8990 H   0  0  0  0  0  0  0  0  0  0  0  0
    5.6528    0.4011    1.9259 H   0  0  0  0  0  0  0  0  0  0  0  0
   -1.8580   -4.6012   -0.1156 H   0  0  0  0  0  0  0  0  0  0  0  0
   -3.1784    2.2655    3.0840 H   0  0  0  0  0  0  0  0  0  0  0  0
   -1.9760    3.1114    2.1054 H   0  0  0  0  0  0  0  0  0  0  0  0
   -1.6932    1.4271    2.6225 H   0  0  0  0  0  0  0  0  0  0  0  0
    3.9627    1.5254    3.0963 H   0  0  0  0  0  0  0  0  0  0  0  0
    2.3424    0.9836    2.6441 H   0  0  0  0  0  0  0  0  0  0  0  0
    2.9411    2.5793    2.1155 H   0  0  0  0  0  0  0  0  0  0  0  0
   -1.6006   -3.9139   -2.3406 H   0  0  0  0  0  0  0  0  0  0  0  0
   -0.1550   -2.9475   -2.6496 H   0  0  0  0  0  0  0  0  0  0  0  0
   -1.7573   -2.1673   -2.5572 H   0  0  0  0  0  0  0  0  0  0  0  0
   -4.7926    0.3636   -2.2166 H   0  0  0  0  0  0  0  0  0  0  0  0
    5.1630   -0.6874   -2.1933 H   0  0  0  0  0  0  0  0  0  0  0  0
   -0.4467   -2.1897    3.1381 H   0  0  0  0  0  0  0  0  0  0  0  0
   -6.1396    0.7235   -0.1651 H   0  0  0  0  0  0  0  0  0  0  0  0
    6.5445   -0.6198   -0.1344 H   0  0  0  0  0  0  0  0  0  0  0  0
   -1.5484   -4.2505    2.3058 H   0  0  0  0  0  0  0  0  0  0  0  0
  1  2  1  0  0  0  0
  1  3  1  0  0  0  0
  1  4  1  0  0  0  0
  1  5  1  0  0  0  0
  2  6  1  0  0  0  0
  3  7  1  0  0  0  0
  4  8  1  0  0  0  0
  5 27  1  0  0  0  0
  5 28  1  0  0  0  0
  5 29  1  0  0  0  0
  6  9  1  0  0  0  0
  6 12  2  0  0  0  0
  7 10  1  0  0  0  0
  7 13  2  0  0  0  0
  8 11  1  0  0  0  0
  8 14  2  0  0  0  0
  9 15  2  0  0  0  0
  9 18  1  0  0  0  0
 10 16  2  0  0  0  0
 10 19  1  0  0  0  0
 11 17  2  0  0  0  0
 11 20  1  0  0  0  0
 12 21  1  0  0  0  0
 12 30  1  0  0  0  0
 13 22  1  0  0  0  0
 13 31  1  0  0  0  0
 14 23  1  0  0  0  0
 14 32  1  0  0  0  0
 15 24  1  0  0  0  0
 15 33  1  0  0  0  0
 16 25  1  0  0  0  0
 16 34  1  0  0  0  0
 17 26  1  0  0  0  0
 17 35  1  0  0  0  0
 18 36  1  0  0  0  0
 18 37  1  0  0  0  0
 18 38  1  0  0  0  0
 19 39  1  0  0  0  0
 19 40  1  0  0  0  0
 19 41  1  0  0  0  0
 20 42  1  0  0  0  0
 20 43  1  0  0  0  0
 20 44  1  0  0  0  0
 21 24  2  0  0  0  0
 21 45  1  0  0  0  0
 22 25  2  0  0  0  0
 22 46  1  0  0  0  0
 23 26  2  0  0  0  0
 23 47  1  0  0  0  0
 24 48  1  0  0  0  0
 25 49  1  0  0  0  0
 26 50  1  0  0  0  0
M  END
> <PUBCHEM_COMPOUND_CID>
67579525

> <PUBCHEM_CONFORMER_RMSD>
1

> <PUBCHEM_CONFORMER_DIVERSEORDER>
1
4
86
64
94
10
97
103
55
108
15
5
92
16
8
21
63
2
111
7
35
42
39
69
53
83
50
118
12
40
48
6
9
11
54
58
66
27
19
33
26
79
114
107
57
72
91
37
41
117
116
93
85
65
32
74
24
43
31
59
70
14
89
38
100
113
76
3
29
20
109
25
96
68
51
105
75
17
22
71
80
84
34
101
62
82
60
23
13
44
106
98
78
102
87
67
47
45
112
110
88
18
115
30
73
28
36
95
52
99
77
81
49
104
61
46
90
56

> <PUBCHEM_MMFF94_PARTIAL_CHARGES>
38
1 0.97
10 -0.14
11 -0.14
12 -0.15
13 -0.15
14 -0.15
15 -0.15
16 -0.15
17 -0.15
18 0.14
19 0.14
2 -0.38
20 0.14
21 -0.15
22 -0.15
23 -0.15
24 -0.15
25 -0.15
26 -0.15
3 -0.38
30 0.15
31 0.15
32 0.15
33 0.15
34 0.15
35 0.15
4 -0.38
45 0.15
46 0.15
47 0.15
48 0.15
49 0.15
5 -0.08
50 0.15
6 0.08
7 0.08
8 0.08
9 -0.14

> <PUBCHEM_EFFECTIVE_ROTOR_COUNT>
6

> <PUBCHEM_PHARMACOPHORE_FEATURES>
3
6 6 9 12 15 21 24 rings
6 7 10 13 16 22 25 rings
6 8 11 14 17 23 26 rings

> <PUBCHEM_HEAVY_ATOM_COUNT>
26

> <PUBCHEM_ATOM_DEF_STEREO_COUNT>
0

> <PUBCHEM_ATOM_UDEF_STEREO_COUNT>
0

> <PUBCHEM_BOND_DEF_STEREO_COUNT>
0

> <PUBCHEM_BOND_UDEF_STEREO_COUNT>
0

> <PUBCHEM_ISOTOPIC_ATOM_COUNT>
0

> <PUBCHEM_COMPONENT_COUNT>
1

> <PUBCHEM_CACTVS_TAUTO_COUNT>
1

> <PUBCHEM_CONFORMER_ID>
04072E8500000001

> <PUBCHEM_MMFF94_ENERGY>
71.399

> <PUBCHEM_FEATURE_SELFOVERLAP>
15.224

> <PUBCHEM_SHAPE_FINGERPRINT>
10119406 146 18126305055934601766
10764073 3 14781211326267233779
11578080 2 17558266789551954712
11582403 64 15477101044459483283
12293681 4 17846499231910373240
12633257 1 18265873874898176408
12788726 201 17902799896039615763
13583140 156 16154288211343903493
13692114 37 18271529784260314199
14251757 17 14188992458881594410
14468879 13 17057775667978096272
14866123 147 18187640327772597602
15295992 7 17846497058640901880
17980427 23 15502668070376787415
20197701 30 18411131407809075141
20567600 347 18340495452425778287
20600515 1 17032146120448372260
21033648 29 18336248073099360596
22956985 138 17463407218398379891
23419403 2 17619679775077284818
23559900 14 18342740767150544460
24893989 43 14000246006844807265
3380486 145 17483675972205527355
392239 28 18059863891517779321
404807 14 15548011740537722102
4340502 62 18339093605708720609
469060 322 17531792650026484807
59755656 520 18412261714035813372
7495541 125 13254210836174798565
81228 2 18191292986971974204
9981440 41 16623731435379333056

> <PUBCHEM_SHAPE_MULTIPOLES>
535.67
9.35
3.66
2.34
6.71
4.62
-0.13
-5.04
-0.94
-3.08
-0.65
-0.02
-0.24
0

> <PUBCHEM_SHAPE_SELFOVERLAP>
1131.655

> <PUBCHEM_SHAPE_VOLUME>
302.4

> <PUBCHEM_COORDINATE_TYPE>
2
5
10

$$$$
