135417349
  -OEChem-11012401133D

 16 15  0     0  0  0  0  0  0999 V2000
   -1.0450   -1.2161    1.1772 O   0  0  0  0  0  0  0  0  0  0  0  0
    1.0461    1.2163    1.1763 O   0  0  0  0  0  0  0  0  0  0  0  0
   -1.5587   -0.1313    0.4634 N   0  0  0  0  0  0  0  0  0  0  0  0
    1.5592    0.1315    0.4620 N   0  0  0  0  0  0  0  0  0  0  0  0
   -0.6668    0.3419   -0.3459 C   0  0  0  0  0  0  0  0  0  0  0  0
    0.6667   -0.3417   -0.3465 C   0  0  0  0  0  0  0  0  0  0  0  0
   -0.8371    1.4926   -1.2932 C   0  0  0  0  0  0  0  0  0  0  0  0
    0.8356   -1.4932   -1.2933 C   0  0  0  0  0  0  0  0  0  0  0  0
   -0.7873    1.1255   -2.3217 H   0  0  0  0  0  0  0  0  0  0  0  0
   -0.0479    2.2317   -1.1355 H   0  0  0  0  0  0  0  0  0  0  0  0
   -1.8086    1.9665   -1.1299 H   0  0  0  0  0  0  0  0  0  0  0  0
    0.7821   -1.1272   -2.3220 H   0  0  0  0  0  0  0  0  0  0  0  0
    1.8082   -1.9655   -1.1324 H   0  0  0  0  0  0  0  0  0  0  0  0
    0.0478   -2.2332   -1.1323 H   0  0  0  0  0  0  0  0  0  0  0  0
   -1.8052   -1.4642    1.7298 H   0  0  0  0  0  0  0  0  0  0  0  0
    1.8069    1.4643    1.7282 H   0  0  0  0  0  0  0  0  0  0  0  0
  1  3  1  0  0  0  0
  1 15  1  0  0  0  0
  2  4  1  0  0  0  0
  2 16  1  0  0  0  0
  3  5  2  0  0  0  0
  4  6  2  0  0  0  0
  5  6  1  0  0  0  0
  5  7  1  0  0  0  0
  6  8  1  0  0  0  0
  7  9  1  0  0  0  0
  7 10  1  0  0  0  0
  7 11  1  0  0  0  0
  8 12  1  0  0  0  0
  8 13  1  0  0  0  0
  8 14  1  0  0  0  0
M  END
> <PUBCHEM_COMPOUND_CID>
135417349

> <PUBCHEM_CONFORMER_RMSD>
0.4

> <PUBCHEM_CONFORMER_DIVERSEORDER>
1
2

> <PUBCHEM_MMFF94_PARTIAL_CHARGES>
10
1 -0.34
15 0.4
16 0.4
2 -0.34
3 -0.51
4 -0.51
5 0.39
6 0.39
7 0.06
8 0.06

> <PUBCHEM_EFFECTIVE_ROTOR_COUNT>
1

> <PUBCHEM_PHARMACOPHORE_FEATURES>
4
1 1 anion
1 2 anion
1 3 acceptor
1 4 acceptor

> <PUBCHEM_HEAVY_ATOM_COUNT>
8

> <PUBCHEM_ATOM_DEF_STEREO_COUNT>
0

> <PUBCHEM_ATOM_UDEF_STEREO_COUNT>
0

> <PUBCHEM_BOND_DEF_STEREO_COUNT>
2

> <PUBCHEM_BOND_UDEF_STEREO_COUNT>
0

> <PUBCHEM_ISOTOPIC_ATOM_COUNT>
0

> <PUBCHEM_COMPONENT_COUNT>
1

> <PUBCHEM_CACTVS_TAUTO_COUNT>
-1

> <PUBCHEM_CONFORMER_ID>
08124E0500000001

> <PUBCHEM_MMFF94_ENERGY>
22.298

> <PUBCHEM_FEATURE_SELFOVERLAP>
20.298

> <PUBCHEM_SHAPE_FINGERPRINT>
137420 1 16832046643422435753
21040471 1 17100306680305455989
29004967 10 17629766669048828166
5943 1 15430033214789386439

> <PUBCHEM_SHAPE_MULTIPOLES>
142.94
1.73
1.47
1.4
0
0
0.09
0
0.65
0
-0.55
0
0
0.64

> <PUBCHEM_SHAPE_SELFOVERLAP>
268.1

> <PUBCHEM_SHAPE_VOLUME>
90.2

> <PUBCHEM_COORDINATE_TYPE>
2
5
10

$$$$
