7899
  -OEChem-11012401213D

 11 10  0     0  0  0  0  0  0999 V2000
    2.9703    0.2510   -0.0008 Cl  0  0  0  0  0  0  0  0  0  0  0  0
   -2.0999    0.9182   -0.0208 O   0  0  0  0  0  0  0  0  0  0  0  0
   -1.3533   -1.2282    0.0077 O   0  0  0  0  0  0  0  0  0  0  0  0
    0.2597    0.5713    0.0307 C   0  0  0  0  0  0  0  0  0  0  0  0
    1.3493   -0.4868   -0.0233 C   0  0  0  0  0  0  0  0  0  0  0  0
   -1.1261   -0.0255    0.0066 C   0  0  0  0  0  0  0  0  0  0  0  0
    0.3547    1.1613    0.9493 H   0  0  0  0  0  0  0  0  0  0  0  0
    0.3515    1.2420   -0.8313 H   0  0  0  0  0  0  0  0  0  0  0  0
    1.2830   -1.1652    0.8332 H   0  0  0  0  0  0  0  0  0  0  0  0
    1.2712   -1.0869   -0.9355 H   0  0  0  0  0  0  0  0  0  0  0  0
   -2.9960    0.5193   -0.0382 H   0  0  0  0  0  0  0  0  0  0  0  0
  1  5  1  0  0  0  0
  2  6  1  0  0  0  0
  2 11  1  0  0  0  0
  3  6  2  0  0  0  0
  4  5  1  0  0  0  0
  4  6  1  0  0  0  0
  4  7  1  0  0  0  0
  4  8  1  0  0  0  0
  5  9  1  0  0  0  0
  5 10  1  0  0  0  0
M  END
> <PUBCHEM_COMPOUND_CID>
7899

> <PUBCHEM_CONFORMER_RMSD>
0.4

> <PUBCHEM_CONFORMER_DIVERSEORDER>
1
6
3
8
5
7
2
4

> <PUBCHEM_MMFF94_PARTIAL_CHARGES>
7
1 -0.29
11 0.5
2 -0.65
3 -0.57
4 0.06
5 0.29
6 0.66

> <PUBCHEM_EFFECTIVE_ROTOR_COUNT>
2

> <PUBCHEM_PHARMACOPHORE_FEATURES>
3
1 2 acceptor
1 3 acceptor
3 2 3 6 anion

> <PUBCHEM_HEAVY_ATOM_COUNT>
6

> <PUBCHEM_ATOM_DEF_STEREO_COUNT>
0

> <PUBCHEM_ATOM_UDEF_STEREO_COUNT>
0

> <PUBCHEM_BOND_DEF_STEREO_COUNT>
0

> <PUBCHEM_BOND_UDEF_STEREO_COUNT>
0

> <PUBCHEM_ISOTOPIC_ATOM_COUNT>
0

> <PUBCHEM_COMPONENT_COUNT>
1

> <PUBCHEM_CACTVS_TAUTO_COUNT>
1

> <PUBCHEM_CONFORMER_ID>
00001EDB00000001

> <PUBCHEM_MMFF94_ENERGY>
2.6993

> <PUBCHEM_FEATURE_SELFOVERLAP>
15.281

> <PUBCHEM_SHAPE_FINGERPRINT>
139733 1 9151185246000620906
14390081 3 18272365378193983344
16714656 1 18335985285297592028
20096714 4 18335984177264523417
21040471 1 18338516318141309665
29004967 10 17275111643310373370
5460574 1 9223230745547793348

> <PUBCHEM_SHAPE_MULTIPOLES>
113.61
3.66
1.01
0.59
2
0.12
0
-0.42
0.02
-0.4
0
0.08
-0.01
0.01

> <PUBCHEM_SHAPE_SELFOVERLAP>
195.487

> <PUBCHEM_SHAPE_VOLUME>
76.5

> <PUBCHEM_COORDINATE_TYPE>
2
5
10

$$$$
