21117065
  -OEChem-11012401003D

 20 21  0     0  0  0  0  0  0999 V2000
    0.6680    0.1755   -0.0008 N   0  0  0  0  0  0  0  0  0  0  0  0
    1.4836   -0.8882   -0.0004 N   0  0  0  0  0  0  0  0  0  0  0  0
    1.2643    1.3758    0.0001 N   0  0  0  0  0  0  0  0  0  0  0  0
    2.5633    1.1023    0.0004 N   0  0  0  0  0  0  0  0  0  0  0  0
   -0.7086    0.0434   -0.0010 C   0  0  0  0  0  0  0  0  0  0  0  0
   -1.5184    1.1791   -0.0005 C   0  0  0  0  0  0  0  0  0  0  0  0
   -1.2873   -1.2258   -0.0005 C   0  0  0  0  0  0  0  0  0  0  0  0
    2.6607   -0.2575    0.0002 C   0  0  0  0  0  0  0  0  0  0  0  0
   -2.9068    1.0456    0.0006 C   0  0  0  0  0  0  0  0  0  0  0  0
   -2.6757   -1.3593    0.0003 C   0  0  0  0  0  0  0  0  0  0  0  0
   -3.4856   -0.2236    0.0008 C   0  0  0  0  0  0  0  0  0  0  0  0
    3.9424   -0.9673    0.0007 C   0  0  0  0  0  0  0  0  0  0  0  0
   -1.1070    2.1851   -0.0006 H   0  0  0  0  0  0  0  0  0  0  0  0
   -0.6917   -2.1350   -0.0006 H   0  0  0  0  0  0  0  0  0  0  0  0
   -3.5379    1.9296    0.0010 H   0  0  0  0  0  0  0  0  0  0  0  0
   -3.1269   -2.3473    0.0006 H   0  0  0  0  0  0  0  0  0  0  0  0
   -4.5667   -0.3274    0.0016 H   0  0  0  0  0  0  0  0  0  0  0  0
    4.0342   -1.6009    0.8885 H   0  0  0  0  0  0  0  0  0  0  0  0
    4.0345   -1.6014   -0.8865 H   0  0  0  0  0  0  0  0  0  0  0  0
    4.7812   -0.2642    0.0006 H   0  0  0  0  0  0  0  0  0  0  0  0
  1  2  1  0  0  0  0
  1  3  1  0  0  0  0
  1  5  1  0  0  0  0
  2  8  2  0  0  0  0
  3  4  2  0  0  0  0
  4  8  1  0  0  0  0
  5  6  2  0  0  0  0
  5  7  1  0  0  0  0
  6  9  1  0  0  0  0
  6 13  1  0  0  0  0
  7 10  2  0  0  0  0
  7 14  1  0  0  0  0
  8 12  1  0  0  0  0
  9 11  2  0  0  0  0
  9 15  1  0  0  0  0
 10 11  1  0  0  0  0
 10 16  1  0  0  0  0
 11 17  1  0  0  0  0
 12 18  1  0  0  0  0
 12 19  1  0  0  0  0
 12 20  1  0  0  0  0
M  END
> <PUBCHEM_COMPOUND_CID>
21117065

> <PUBCHEM_CONFORMER_RMSD>
0.4

> <PUBCHEM_CONFORMER_DIVERSEORDER>
1

> <PUBCHEM_MMFF94_PARTIAL_CHARGES>
17
1 0.86
10 -0.15
11 -0.15
12 0.18
13 0.15
14 0.15
15 0.15
16 0.15
17 0.15
2 -0.71
3 -0.42
4 -0.23
5 -0.02
6 -0.15
7 -0.15
8 0.34
9 -0.15

> <PUBCHEM_EFFECTIVE_ROTOR_COUNT>
1

> <PUBCHEM_PHARMACOPHORE_FEATURES>
3
3 2 4 8 cation
5 1 2 3 4 8 rings
6 5 6 7 9 10 11 rings

> <PUBCHEM_HEAVY_ATOM_COUNT>
12

> <PUBCHEM_ATOM_DEF_STEREO_COUNT>
0

> <PUBCHEM_ATOM_UDEF_STEREO_COUNT>
0

> <PUBCHEM_BOND_DEF_STEREO_COUNT>
0

> <PUBCHEM_BOND_UDEF_STEREO_COUNT>
0

> <PUBCHEM_ISOTOPIC_ATOM_COUNT>
0

> <PUBCHEM_COMPONENT_COUNT>
1

> <PUBCHEM_CACTVS_TAUTO_COUNT>
1

> <PUBCHEM_CONFORMER_ID>
0142388900000001

> <PUBCHEM_MMFF94_ENERGY>
24.4134

> <PUBCHEM_FEATURE_SELFOVERLAP>
15.223

> <PUBCHEM_SHAPE_FINGERPRINT>
10130415 120 18342174445014312304
10608611 8 18411695504213251089
11062470 55 12967123904448781355
11769659 78 18411414046431967543
12032990 46 18410299111555493595
12932764 1 17385713690769257280
13024252 1 15502377816428731865
13380535 76 18341049627576728943
14144814 61 18409729543067895386
14325111 11 18410856576888386433
15775835 57 18114182973795664699
16945 1 18410575046251076805
18186145 218 17676481765564609599
19973954 147 18410576231546278785
200 152 17917418835702777431
20201158 50 18342739589569622503
20871998 184 18129386058839457535
21501502 16 18339364166181605541
21501925 9 18410844482724574858
23402539 116 18131341987225344893
23463225 33 18336827502873133078
23552423 10 18188490288846202791
23559900 14 18270957952271729098
2748010 2 18338795727328519293
3248919 1 17458909352440766984
369184 2 18412545435734061465
57812782 119 18272366468767230959
69090 78 18343858922930340575
7364860 26 18269837678413776680
8809292 202 18333736844175031043

> <PUBCHEM_SHAPE_MULTIPOLES>
227.03
6.29
1.48
0.59
2.62
0.05
0
-1.03
0
-0.28
0
-0.05
-0.01
0

> <PUBCHEM_SHAPE_SELFOVERLAP>
486.345

> <PUBCHEM_SHAPE_VOLUME>
126.7

> <PUBCHEM_COORDINATE_TYPE>
2
5
10

$$$$
