350453
  -OEChem-11012401233D

 18 17  0     0  0  0  0  0  0999 V2000
    4.8639   -0.0880   -0.1542 O   0  0  0  0  0  0  0  0  0  0  0  0
   -4.8594    0.0483    0.2309 O   0  0  0  0  0  0  0  0  0  0  0  0
    2.5699   -0.2738    0.3230 N   0  0  0  0  0  0  0  0  0  0  0  0
   -2.5855    0.2788   -0.3177 N   0  0  0  0  0  0  0  0  0  0  0  0
    0.3060    0.6527    0.2657 C   0  0  0  0  0  0  0  0  0  0  0  0
   -0.3066   -0.6117   -0.3489 C   0  0  0  0  0  0  0  0  0  0  0  0
    1.7611    0.8527   -0.1451 C   0  0  0  0  0  0  0  0  0  0  0  0
   -1.7441   -0.8416    0.1056 C   0  0  0  0  0  0  0  0  0  0  0  0
    3.7155   -0.1795    0.0838 C   0  0  0  0  0  0  0  0  0  0  0  0
   -3.7210    0.1621   -0.0430 C   0  0  0  0  0  0  0  0  0  0  0  0
    0.2430    0.5904    1.3592 H   0  0  0  0  0  0  0  0  0  0  0  0
   -0.2667    1.5354   -0.0411 H   0  0  0  0  0  0  0  0  0  0  0  0
   -0.2758   -0.5326   -1.4428 H   0  0  0  0  0  0  0  0  0  0  0  0
    0.2854   -1.4918   -0.0727 H   0  0  0  0  0  0  0  0  0  0  0  0
    1.8221    0.9461   -1.2378 H   0  0  0  0  0  0  0  0  0  0  0  0
    2.1218    1.7937    0.2919 H   0  0  0  0  0  0  0  0  0  0  0  0
   -1.7684   -0.9538    1.1979 H   0  0  0  0  0  0  0  0  0  0  0  0
   -2.1041   -1.7811   -0.3350 H   0  0  0  0  0  0  0  0  0  0  0  0
  1  9  2  0  0  0  0
  2 10  2  0  0  0  0
  3  7  1  0  0  0  0
  3  9  2  0  0  0  0
  4  8  1  0  0  0  0
  4 10  2  0  0  0  0
  5  6  1  0  0  0  0
  5  7  1  0  0  0  0
  5 11  1  0  0  0  0
  5 12  1  0  0  0  0
  6  8  1  0  0  0  0
  6 13  1  0  0  0  0
  6 14  1  0  0  0  0
  7 15  1  0  0  0  0
  7 16  1  0  0  0  0
  8 17  1  0  0  0  0
  8 18  1  0  0  0  0
M  END
> <PUBCHEM_COMPOUND_CID>
350453

> <PUBCHEM_CONFORMER_RMSD>
0.6

> <PUBCHEM_CONFORMER_DIVERSEORDER>
1
94
38
16
105
2
100
17
84
107
78
75
19
11
70
41
56
30
106
112
25
54
20
77
58
53
111
55
71
79
52
74
67
24
10
101
91
34
82
97
8
61
42
90
21
3
86
85
63
108
5
73
110
51
62
72
43
6
96
35
95
13
36
68
102
104
80
60
37
87
48
57
9
92
109
99
88
66
40
47
59
89
50
23
113
83
28
31
26
93
12
44
69
18
15
27
45
103
32
49
22
64
46
65
76
98
4
29
33
7
81
14
39

> <PUBCHEM_MMFF94_PARTIAL_CHARGES>
8
1 -0.49
10 0.79
2 -0.49
3 -0.55
4 -0.55
7 0.25
8 0.25
9 0.79

> <PUBCHEM_EFFECTIVE_ROTOR_COUNT>
5

> <PUBCHEM_PHARMACOPHORE_FEATURES>
2
1 3 acceptor
1 4 acceptor

> <PUBCHEM_HEAVY_ATOM_COUNT>
10

> <PUBCHEM_ATOM_DEF_STEREO_COUNT>
0

> <PUBCHEM_ATOM_UDEF_STEREO_COUNT>
0

> <PUBCHEM_BOND_DEF_STEREO_COUNT>
0

> <PUBCHEM_BOND_UDEF_STEREO_COUNT>
0

> <PUBCHEM_ISOTOPIC_ATOM_COUNT>
0

> <PUBCHEM_COMPONENT_COUNT>
1

> <PUBCHEM_CACTVS_TAUTO_COUNT>
1

> <PUBCHEM_CONFORMER_ID>
000558F500000001

> <PUBCHEM_MMFF94_ENERGY>
4.511

> <PUBCHEM_FEATURE_SELFOVERLAP>
10.149

> <PUBCHEM_SHAPE_FINGERPRINT>
11062470 55 14980238452721608361
12932764 1 16371551713223571716
14123238 8 17748827423122331846
17834072 33 15719686449487942399
17834076 25 17275386512542928224
18342897 14 18413108346901129281
18511873 20 18341611542163041206
190213 19 14851604371111181391
20645477 70 18200596891559034006
20719005 15 18408322185591012466
20724930 37 13398630545963313492
21293036 1 12107787406374341172
22485316 2 18343015610454760342
23402539 116 17132109131137723749
366044 4 18272650151610787695
42788 4 18410856559639815552

> <PUBCHEM_SHAPE_MULTIPOLES>
184.09
9.28
0.85
0.63
0.02
0.01
0
-0.09
-0.22
-0.01
0.01
0.01
0
-0.01

> <PUBCHEM_SHAPE_SELFOVERLAP>
347.464

> <PUBCHEM_SHAPE_VOLUME>
111.7

> <PUBCHEM_COORDINATE_TYPE>
2
5
10

$$$$
