80010
  -OEChem-11012400433D

 21 21  0     0  0  0  0  0  0999 V2000
    3.5141   -0.4287   -0.0381 O   0  5  0  0  0  0  0  0  0  0  0  0
   -3.5137   -0.4301   -0.0385 O   0  5  0  0  0  0  0  0  0  0  0  0
    2.4591    1.4844   -0.2522 O   0  0  0  0  0  0  0  0  0  0  0  0
   -2.4595    1.4836   -0.2519 O   0  0  0  0  0  0  0  0  0  0  0  0
   -0.0002    1.6599   -0.2718 N   0  0  0  0  0  0  0  0  0  0  0  0
    2.4564    0.2391   -0.1128 N   0  3  0  0  0  0  0  0  0  0  0  0
   -2.4563    0.2381   -0.1131 N   0  3  0  0  0  0  0  0  0  0  0  0
    0.0001    0.2520   -0.1144 C   0  0  0  0  0  0  0  0  0  0  0  0
    1.2082   -0.4409   -0.0370 C   0  0  0  0  0  0  0  0  0  0  0  0
   -1.2078   -0.4413   -0.0372 C   0  0  0  0  0  0  0  0  0  0  0  0
    1.2085   -1.8272    0.1178 C   0  0  0  0  0  0  0  0  0  0  0  0
   -1.2075   -1.8275    0.1179 C   0  0  0  0  0  0  0  0  0  0  0  0
    0.0006   -2.5204    0.1953 C   0  0  0  0  0  0  0  0  0  0  0  0
   -0.0021    2.5590    0.8360 C   0  0  0  0  0  0  0  0  0  0  0  0
    2.1273   -2.4045    0.1824 H   0  0  0  0  0  0  0  0  0  0  0  0
   -2.1260   -2.4052    0.1825 H   0  0  0  0  0  0  0  0  0  0  0  0
    0.5284    1.9745   -1.0815 H   0  0  0  0  0  0  0  0  0  0  0  0
    0.0008   -3.5999    0.3159 H   0  0  0  0  0  0  0  0  0  0  0  0
   -0.8738    2.4142    1.4822 H   0  0  0  0  0  0  0  0  0  0  0  0
   -0.0251    3.5923    0.4761 H   0  0  0  0  0  0  0  0  0  0  0  0
    0.8871    2.4437    1.4637 H   0  0  0  0  0  0  0  0  0  0  0  0
  1  6  1  0  0  0  0
  2  7  1  0  0  0  0
  3  6  2  0  0  0  0
  4  7  2  0  0  0  0
  5  8  1  0  0  0  0
  5 14  1  0  0  0  0
  5 17  1  0  0  0  0
  6  9  1  0  0  0  0
  7 10  1  0  0  0  0
  8  9  2  0  0  0  0
  8 10  1  0  0  0  0
  9 11  1  0  0  0  0
 10 12  2  0  0  0  0
 11 13  2  0  0  0  0
 11 15  1  0  0  0  0
 12 13  1  0  0  0  0
 12 16  1  0  0  0  0
 13 18  1  0  0  0  0
 14 19  1  0  0  0  0
 14 20  1  0  0  0  0
 14 21  1  0  0  0  0
M  CHG  4   1  -1   2  -1   6   1   7   1
M  END
> <PUBCHEM_COMPOUND_CID>
80010

> <PUBCHEM_CONFORMER_RMSD>
0.6

> <PUBCHEM_CONFORMER_DIVERSEORDER>
1

> <PUBCHEM_MMFF94_PARTIAL_CHARGES>
18
1 -0.52
10 0.13
11 -0.15
12 -0.15
13 -0.15
14 0.37
15 0.15
16 0.15
17 0.4
18 0.15
2 -0.52
3 -0.52
4 -0.52
5 -0.87
6 0.91
7 0.91
8 0.1
9 0.13

> <PUBCHEM_EFFECTIVE_ROTOR_COUNT>
3

> <PUBCHEM_PHARMACOPHORE_FEATURES>
9
1 1 acceptor
1 1 anion
1 2 acceptor
1 2 anion
1 3 acceptor
1 4 acceptor
1 5 cation
1 5 donor
6 8 9 10 11 12 13 rings

> <PUBCHEM_HEAVY_ATOM_COUNT>
14

> <PUBCHEM_ATOM_DEF_STEREO_COUNT>
0

> <PUBCHEM_ATOM_UDEF_STEREO_COUNT>
0

> <PUBCHEM_BOND_DEF_STEREO_COUNT>
0

> <PUBCHEM_BOND_UDEF_STEREO_COUNT>
0

> <PUBCHEM_ISOTOPIC_ATOM_COUNT>
0

> <PUBCHEM_COMPONENT_COUNT>
1

> <PUBCHEM_CACTVS_TAUTO_COUNT>
1

> <PUBCHEM_CONFORMER_ID>
0001388A00000001

> <PUBCHEM_MMFF94_ENERGY>
74.6645

> <PUBCHEM_FEATURE_SELFOVERLAP>
45.834

> <PUBCHEM_SHAPE_FINGERPRINT>
108231 29 18342176691097708672
10967382 1 18410575131934157910
12423570 1 11368528401149424659
13380535 76 18408882940579353326
14617773 55 17627223464483896137
16945 1 18334575745734671335
193761 8 17762338007187571658
20510252 161 18343300327984171288
20588541 1 18408889550660265151
20645476 183 17677914472608750550
21501502 16 17906452478003837172
2334 1 18194403522636661190
23402539 116 18272358768044051718
23463225 33 18334009467487706610
23552423 10 18047754802003825903
23559900 14 18342463677757137284
241688 4 16895953536294365090
2748010 2 16969423500310329542
2897 32 18265617567654022020
353137 74 18267584611204560808
528886 8 18410288116481459442
53812653 166 18341047535647619851
7364860 26 17981322296463540934

> <PUBCHEM_SHAPE_MULTIPOLES>
249.69
3.97
2.67
0.65
0
0.21
0.06
0.34
-0.38
0
0.47
0
0.11
0

> <PUBCHEM_SHAPE_SELFOVERLAP>
527.662

> <PUBCHEM_SHAPE_VOLUME>
139.8

> <PUBCHEM_COORDINATE_TYPE>
2
5
10

$$$$
