21584
  -OEChem-11012400323D

 25 25  0     1  0  0  0  0  0999 V2000
   -1.1973    1.5344   -0.9768 O   0  0  0  0  0  0  0  0  0  0  0  0
    1.3009   -0.0693   -0.3102 C   0  0  1  0  0  0  0  0  0  0  0  0
   -0.8708   -1.2141    0.4285 C   0  0  1  0  0  0  0  0  0  0  0  0
    0.6633   -1.2753    0.3947 C   0  0  0  0  0  0  0  0  0  0  0  0
    0.8227    1.2438    0.3265 C   0  0  0  0  0  0  0  0  0  0  0  0
   -1.3620    0.1348    0.9827 C   0  0  0  0  0  0  0  0  0  0  0  0
   -0.7017    1.3596    0.3467 C   0  0  0  0  0  0  0  0  0  0  0  0
    2.8261   -0.1644   -0.2571 C   0  0  0  0  0  0  0  0  0  0  0  0
   -1.4811   -1.5495   -0.9350 C   0  0  0  0  0  0  0  0  0  0  0  0
    1.0082   -0.0768   -1.3672 H   0  0  0  0  0  0  0  0  0  0  0  0
   -1.2179   -1.9949    1.1190 H   0  0  0  0  0  0  0  0  0  0  0  0
    0.9884   -2.2055   -0.0879 H   0  0  0  0  0  0  0  0  0  0  0  0
    1.0306   -1.3210    1.4289 H   0  0  0  0  0  0  0  0  0  0  0  0
    1.2013    1.3141    1.3542 H   0  0  0  0  0  0  0  0  0  0  0  0
    1.2440    2.0864   -0.2358 H   0  0  0  0  0  0  0  0  0  0  0  0
   -2.4521    0.1964    0.8781 H   0  0  0  0  0  0  0  0  0  0  0  0
   -1.1463    0.1547    2.0592 H   0  0  0  0  0  0  0  0  0  0  0  0
   -0.9814    2.2573    0.9100 H   0  0  0  0  0  0  0  0  0  0  0  0
    3.1908   -0.1602    0.7757 H   0  0  0  0  0  0  0  0  0  0  0  0
    3.1740   -1.0860   -0.7355 H   0  0  0  0  0  0  0  0  0  0  0  0
    3.2858    0.6797   -0.7819 H   0  0  0  0  0  0  0  0  0  0  0  0
   -2.5744   -1.5030   -0.8915 H   0  0  0  0  0  0  0  0  0  0  0  0
   -1.1457   -0.8750   -1.7265 H   0  0  0  0  0  0  0  0  0  0  0  0
   -1.2062   -2.5669   -1.2343 H   0  0  0  0  0  0  0  0  0  0  0  0
   -2.1632    1.6311   -0.9196 H   0  0  0  0  0  0  0  0  0  0  0  0
  1  7  1  0  0  0  0
  1 25  1  0  0  0  0
  2  4  1  0  0  0  0
  2  5  1  0  0  0  0
  2  8  1  0  0  0  0
  2 10  1  0  0  0  0
  3  4  1  0  0  0  0
  3  6  1  0  0  0  0
  3  9  1  0  0  0  0
  3 11  1  0  0  0  0
  4 12  1  0  0  0  0
  4 13  1  0  0  0  0
  5  7  1  0  0  0  0
  5 14  1  0  0  0  0
  5 15  1  0  0  0  0
  6  7  1  0  0  0  0
  6 16  1  0  0  0  0
  6 17  1  0  0  0  0
  7 18  1  0  0  0  0
  8 19  1  0  0  0  0
  8 20  1  0  0  0  0
  8 21  1  0  0  0  0
  9 22  1  0  0  0  0
  9 23  1  0  0  0  0
  9 24  1  0  0  0  0
M  END
> <PUBCHEM_COMPOUND_CID>
21584

> <PUBCHEM_CONFORMER_RMSD>
0.4

> <PUBCHEM_CONFORMER_DIVERSEORDER>
2
4
1
3
5

> <PUBCHEM_MMFF94_PARTIAL_CHARGES>
3
1 -0.68
25 0.4
7 0.28

> <PUBCHEM_EFFECTIVE_ROTOR_COUNT>
1.2

> <PUBCHEM_PHARMACOPHORE_FEATURES>
3
1 1 acceptor
1 1 donor
6 2 3 4 5 6 7 rings

> <PUBCHEM_HEAVY_ATOM_COUNT>
9

> <PUBCHEM_ATOM_DEF_STEREO_COUNT>
0

> <PUBCHEM_ATOM_UDEF_STEREO_COUNT>
2

> <PUBCHEM_BOND_DEF_STEREO_COUNT>
0

> <PUBCHEM_BOND_UDEF_STEREO_COUNT>
0

> <PUBCHEM_ISOTOPIC_ATOM_COUNT>
0

> <PUBCHEM_COMPONENT_COUNT>
1

> <PUBCHEM_CACTVS_TAUTO_COUNT>
1

> <PUBCHEM_CONFORMER_ID>
0000545000000002

> <PUBCHEM_MMFF94_ENERGY>
13.3019

> <PUBCHEM_FEATURE_SELFOVERLAP>
15.223

> <PUBCHEM_SHAPE_FINGERPRINT>
12423570 1 10006009730870463003
13024252 1 17385735698387423362
137420 1 17119663822893295258
16945 1 18196680486405147715
18185500 45 17910964856502377011
20653085 51 15285627803178828886
21040471 1 18193840332091192448
23552423 10 18262528095089320062
241688 4 18267022936750788665
29004967 10 17831579051898803251
369184 2 18411984646143947938
5084963 1 17682147403053878050

> <PUBCHEM_SHAPE_MULTIPOLES>
179.35
2.58
1.82
0.97
1.76
0.19
-0.07
-0.53
-0.31
-0.62
-0.2
-0.37
0.01
-0.07

> <PUBCHEM_SHAPE_SELFOVERLAP>
345.052

> <PUBCHEM_SHAPE_VOLUME>
109.6

> <PUBCHEM_COORDINATE_TYPE>
2
5
10

$$$$
