94573
  -OEChem-11012400313D

 36 39  0     0  0  0  0  0  0999 V2000
    0.0000   -0.0576   -0.0001 C   0  0  0  0  0  0  0  0  0  0  0  0
    0.0000   -1.4813   -0.0001 C   0  0  0  0  0  0  0  0  0  0  0  0
    1.3181    0.5842   -0.0787 C   0  0  0  0  0  0  0  0  0  0  0  0
   -1.3180    0.5842    0.0786 C   0  0  0  0  0  0  0  0  0  0  0  0
    2.4995   -0.1961    0.0718 C   0  0  0  0  0  0  0  0  0  0  0  0
   -2.4995   -0.1961   -0.0718 C   0  0  0  0  0  0  0  0  0  0  0  0
    2.4132   -1.5780    0.1889 C   0  0  0  0  0  0  0  0  0  0  0  0
   -2.4133   -1.5779   -0.1889 C   0  0  0  0  0  0  0  0  0  0  0  0
    1.1847   -2.2118    0.1079 C   0  0  0  0  0  0  0  0  0  0  0  0
   -1.1849   -2.2117   -0.1081 C   0  0  0  0  0  0  0  0  0  0  0  0
    1.5516    1.9555   -0.3636 C   0  0  0  0  0  0  0  0  0  0  0  0
   -1.5514    1.9556    0.3633 C   0  0  0  0  0  0  0  0  0  0  0  0
    3.7776    0.3902    0.0701 C   0  0  0  0  0  0  0  0  0  0  0  0
   -3.7776    0.3902   -0.0698 C   0  0  0  0  0  0  0  0  0  0  0  0
    3.6142   -2.4606    0.3483 C   0  0  0  0  0  0  0  0  0  0  0  0
   -3.6143   -2.4605   -0.3482 C   0  0  0  0  0  0  0  0  0  0  0  0
    2.8268    2.5334   -0.3790 C   0  0  0  0  0  0  0  0  0  0  0  0
   -2.8268    2.5334    0.3789 C   0  0  0  0  0  0  0  0  0  0  0  0
    3.9416    1.7525   -0.1387 C   0  0  0  0  0  0  0  0  0  0  0  0
   -3.9415    1.7525    0.1391 C   0  0  0  0  0  0  0  0  0  0  0  0
    1.1441   -3.3005    0.1410 H   0  0  0  0  0  0  0  0  0  0  0  0
   -1.1443   -3.3004   -0.1411 H   0  0  0  0  0  0  0  0  0  0  0  0
    0.7409    2.6174   -0.6471 H   0  0  0  0  0  0  0  0  0  0  0  0
   -0.7406    2.6176    0.6466 H   0  0  0  0  0  0  0  0  0  0  0  0
    4.6862   -0.1904    0.2089 H   0  0  0  0  0  0  0  0  0  0  0  0
   -4.6862   -0.1903   -0.2084 H   0  0  0  0  0  0  0  0  0  0  0  0
    4.1838   -2.1836    1.2420 H   0  0  0  0  0  0  0  0  0  0  0  0
    3.3387   -3.5142    0.4729 H   0  0  0  0  0  0  0  0  0  0  0  0
    4.2572   -2.4020   -0.5363 H   0  0  0  0  0  0  0  0  0  0  0  0
   -4.2571   -2.4021    0.5366 H   0  0  0  0  0  0  0  0  0  0  0  0
   -4.1840   -2.1834   -1.2417 H   0  0  0  0  0  0  0  0  0  0  0  0
   -3.3388   -3.5141   -0.4729 H   0  0  0  0  0  0  0  0  0  0  0  0
    2.9384    3.5917   -0.5960 H   0  0  0  0  0  0  0  0  0  0  0  0
   -2.9384    3.5918    0.5958 H   0  0  0  0  0  0  0  0  0  0  0  0
    4.9340    2.1917   -0.1489 H   0  0  0  0  0  0  0  0  0  0  0  0
   -4.9339    2.1917    0.1494 H   0  0  0  0  0  0  0  0  0  0  0  0
  1  2  2  0  0  0  0
  1  3  1  0  0  0  0
  1  4  1  0  0  0  0
  2  9  1  0  0  0  0
  2 10  1  0  0  0  0
  3  5  1  0  0  0  0
  3 11  2  0  0  0  0
  4  6  1  0  0  0  0
  4 12  2  0  0  0  0
  5  7  1  0  0  0  0
  5 13  2  0  0  0  0
  6  8  1  0  0  0  0
  6 14  2  0  0  0  0
  7  9  2  0  0  0  0
  7 15  1  0  0  0  0
  8 10  2  0  0  0  0
  8 16  1  0  0  0  0
  9 21  1  0  0  0  0
 10 22  1  0  0  0  0
 11 17  1  0  0  0  0
 11 23  1  0  0  0  0
 12 18  1  0  0  0  0
 12 24  1  0  0  0  0
 13 19  1  0  0  0  0
 13 25  1  0  0  0  0
 14 20  1  0  0  0  0
 14 26  1  0  0  0  0
 15 27  1  0  0  0  0
 15 28  1  0  0  0  0
 15 29  1  0  0  0  0
 16 30  1  0  0  0  0
 16 31  1  0  0  0  0
 16 32  1  0  0  0  0
 17 19  2  0  0  0  0
 17 33  1  0  0  0  0
 18 20  2  0  0  0  0
 18 34  1  0  0  0  0
 19 35  1  0  0  0  0
 20 36  1  0  0  0  0
M  END
> <PUBCHEM_COMPOUND_CID>
94573

> <PUBCHEM_CONFORMER_RMSD>
0.6

> <PUBCHEM_CONFORMER_DIVERSEORDER>
1

> <PUBCHEM_MMFF94_PARTIAL_CHARGES>
24
10 -0.15
11 -0.15
12 -0.15
13 -0.15
14 -0.15
15 0.14
16 0.14
17 -0.15
18 -0.15
19 -0.15
20 -0.15
21 0.15
22 0.15
23 0.15
24 0.15
25 0.15
26 0.15
33 0.15
34 0.15
35 0.15
36 0.15
7 -0.14
8 -0.14
9 -0.15

> <PUBCHEM_EFFECTIVE_ROTOR_COUNT>
0

> <PUBCHEM_PHARMACOPHORE_FEATURES>
4
6 1 2 3 5 7 9 rings
6 1 2 4 6 8 10 rings
6 3 5 11 13 17 19 rings
6 4 6 12 14 18 20 rings

> <PUBCHEM_HEAVY_ATOM_COUNT>
20

> <PUBCHEM_ATOM_DEF_STEREO_COUNT>
0

> <PUBCHEM_ATOM_UDEF_STEREO_COUNT>
0

> <PUBCHEM_BOND_DEF_STEREO_COUNT>
0

> <PUBCHEM_BOND_UDEF_STEREO_COUNT>
0

> <PUBCHEM_ISOTOPIC_ATOM_COUNT>
0

> <PUBCHEM_COMPONENT_COUNT>
1

> <PUBCHEM_CACTVS_TAUTO_COUNT>
1

> <PUBCHEM_CONFORMER_ID>
0001716D00000001

> <PUBCHEM_MMFF94_ENERGY>
89.0141

> <PUBCHEM_FEATURE_SELFOVERLAP>
20.369

> <PUBCHEM_SHAPE_FINGERPRINT>
10498660 4 18338797926336158549
10608611 8 18410573989446450912
10616163 171 18340208582532404463
10863032 1 18411981364329978222
10967382 1 18410575050377459908
1100329 8 18265895757012575402
12173636 292 18413103974624428701
12553582 1 17909538794733525415
13140716 1 18337674117977948043
13583140 156 17386567934585465561
138480 1 17762057631691307975
14178342 30 18338219527738483368
14223421 5 18410295843079924702
14787075 74 17682677677107809763
14790565 3 17472435708412395049
15196674 1 18410855464423323974
15442244 35 18338233761117858978
15475509 8 17339305328280780374
15536298 74 18341894061164951366
16945 1 18410578383198209094
17492 89 18410573998084826275
1813 80 17168989981212384150
20510252 161 18198628919931114089
20691752 17 17603584119126646490
20715895 44 18121490264093200293
20739085 24 17117505176846943529
20905425 154 18270967945864074494
21267235 1 18410582789834908134
21501502 16 18410854364917009926
22094290 62 18338235946987037896
221490 88 18408612460966710530
23227448 37 18411698755946099445
2334 1 18410856594020626945
23366157 5 18113618984861370130
23402539 116 18126561447278377972
23558518 356 18333737935291786019
23559900 14 18272084951437160674
2748010 2 16969419617749343926
335352 9 18194682566371634974
350125 39 18410578383224342553
352729 6 18271527486072554287
4280585 95 17911535194686343406
474 4 17894917372942412844
5104073 3 18409729551652640451
7097593 13 18044082454500057402
7164475 11 18340761632771019839
7364860 26 18412265008787445310
74978 22 18338801113090836439
7832392 63 18339079281174948098
9709674 26 18410298037893167646
9981440 41 18047186638303168256

> <PUBCHEM_SHAPE_MULTIPOLES>
411.59
7.46
3.45
0.66
0
0.19
0
-1.31
0
0
0
0
-0.03
-0.89

> <PUBCHEM_SHAPE_SELFOVERLAP>
937.868

> <PUBCHEM_SHAPE_VOLUME>
198.9

> <PUBCHEM_COORDINATE_TYPE>
2
5
10

$$$$
