5357261
  -OEChem-11012400353D

 24 23  0     0  0  0  0  0  0999 V2000
    1.3691   -0.0584   -0.0137 C   0  0  0  0  0  0  0  0  0  0  0  0
    2.2137    0.8446   -0.9303 C   0  0  0  0  0  0  0  0  0  0  0  0
    1.6390    0.3419    1.4486 C   0  0  0  0  0  0  0  0  0  0  0  0
    1.8062   -1.5212   -0.2079 C   0  0  0  0  0  0  0  0  0  0  0  0
   -0.0877    0.0633   -0.4373 C   0  0  0  0  0  0  0  0  0  0  0  0
   -1.1225    0.4892    0.3045 C   0  0  0  0  0  0  0  0  0  0  0  0
   -2.5321    0.5690   -0.2060 C   0  0  0  0  0  0  0  0  0  0  0  0
   -3.2856   -0.7284    0.0422 C   0  0  0  0  0  0  0  0  0  0  0  0
    3.2805    0.7639   -0.6917 H   0  0  0  0  0  0  0  0  0  0  0  0
    1.9280    1.8977   -0.8232 H   0  0  0  0  0  0  0  0  0  0  0  0
    2.0918    0.5738   -1.9859 H   0  0  0  0  0  0  0  0  0  0  0  0
    1.3689    1.3875    1.6361 H   0  0  0  0  0  0  0  0  0  0  0  0
    1.0748   -0.2859    2.1479 H   0  0  0  0  0  0  0  0  0  0  0  0
    2.7012    0.2312    1.6967 H   0  0  0  0  0  0  0  0  0  0  0  0
    2.8636   -1.6558    0.0478 H   0  0  0  0  0  0  0  0  0  0  0  0
    1.2221   -2.1979    0.4269 H   0  0  0  0  0  0  0  0  0  0  0  0
    1.6759   -1.8463   -1.2471 H   0  0  0  0  0  0  0  0  0  0  0  0
   -0.2970   -0.2288   -1.4666 H   0  0  0  0  0  0  0  0  0  0  0  0
   -0.9757    0.7830    1.3392 H   0  0  0  0  0  0  0  0  0  0  0  0
   -2.5375    0.7930   -1.2795 H   0  0  0  0  0  0  0  0  0  0  0  0
   -3.0450    1.4014    0.2890 H   0  0  0  0  0  0  0  0  0  0  0  0
   -4.3149   -0.6420   -0.3206 H   0  0  0  0  0  0  0  0  0  0  0  0
   -2.8142   -1.5689   -0.4784 H   0  0  0  0  0  0  0  0  0  0  0  0
   -3.3228   -0.9664    1.1107 H   0  0  0  0  0  0  0  0  0  0  0  0
  1  2  1  0  0  0  0
  1  3  1  0  0  0  0
  1  4  1  0  0  0  0
  1  5  1  0  0  0  0
  2  9  1  0  0  0  0
  2 10  1  0  0  0  0
  2 11  1  0  0  0  0
  3 12  1  0  0  0  0
  3 13  1  0  0  0  0
  3 14  1  0  0  0  0
  4 15  1  0  0  0  0
  4 16  1  0  0  0  0
  4 17  1  0  0  0  0
  5  6  2  0  0  0  0
  5 18  1  0  0  0  0
  6  7  1  0  0  0  0
  6 19  1  0  0  0  0
  7  8  1  0  0  0  0
  7 20  1  0  0  0  0
  7 21  1  0  0  0  0
  8 22  1  0  0  0  0
  8 23  1  0  0  0  0
  8 24  1  0  0  0  0
M  END
> <PUBCHEM_COMPOUND_CID>
5357261

> <PUBCHEM_CONFORMER_RMSD>
0.4

> <PUBCHEM_CONFORMER_DIVERSEORDER>
2
4
3
1

> <PUBCHEM_MMFF94_PARTIAL_CHARGES>
6
1 0.14
18 0.15
19 0.15
5 -0.29
6 -0.29
7 0.14

> <PUBCHEM_EFFECTIVE_ROTOR_COUNT>
2

> <PUBCHEM_PHARMACOPHORE_FEATURES>
2
1 8 hydrophobe
4 1 2 3 4 hydrophobe

> <PUBCHEM_HEAVY_ATOM_COUNT>
8

> <PUBCHEM_ATOM_DEF_STEREO_COUNT>
0

> <PUBCHEM_ATOM_UDEF_STEREO_COUNT>
0

> <PUBCHEM_BOND_DEF_STEREO_COUNT>
1

> <PUBCHEM_BOND_UDEF_STEREO_COUNT>
0

> <PUBCHEM_ISOTOPIC_ATOM_COUNT>
0

> <PUBCHEM_COMPONENT_COUNT>
1

> <PUBCHEM_CACTVS_TAUTO_COUNT>
1

> <PUBCHEM_CONFORMER_ID>
0051BECD00000002

> <PUBCHEM_MMFF94_ENERGY>
9.271

> <PUBCHEM_FEATURE_SELFOVERLAP>
10.149

> <PUBCHEM_SHAPE_FINGERPRINT>
10857977 72 18272079548236238761
12897270 3 18335147517703899581
12932741 1 17632573851357761669
12932764 1 17775282768456756301
14128692 85 18125454020453403070
14390081 3 16153428354870226173
170605 34 17676777581690498356
20653091 64 18271248201365550122
21040471 1 18343297106547462014
23235687 12 17895186684481817101
23552423 10 18261676956872233227
23552449 11 17240755173064423480
29004967 10 18343578538521719817
3248919 1 18334006181995740357
5084963 1 18339361859810391883

> <PUBCHEM_SHAPE_MULTIPOLES>
164.64
4.52
1.15
1.03
3.68
0.37
0.27
0.45
-0.23
-0.39
-0.12
-0.65
-0.18
-0.02

> <PUBCHEM_SHAPE_SELFOVERLAP>
297.024

> <PUBCHEM_SHAPE_VOLUME>
109.1

> <PUBCHEM_COORDINATE_TYPE>
2
5
10

$$$$
