129814795
  -OEChem-10312420372D

 28 27  0     0  0  0  0  0  0999 V2000
    0.0000    1.5000    0.0000 O   0  5  0  0  0  0  0  0  0  0  0  0
    3.4641    4.5000    0.0000 O   0  5  0  0  0  0  0  0  0  0  0  0
    0.8660    0.0000    0.0000 O   0  0  0  0  0  0  0  0  0  0  0  0
    1.7320    4.5000    0.0000 O   0  0  0  0  0  0  0  0  0  0  0  0
    4.3301    0.0000    0.0000 O   0  5  0  0  0  0  0  0  0  0  0  0
    5.1962    1.5000    0.0000 O   0  0  0  0  0  0  0  0  0  0  0  0
    0.8660    1.0000    0.0000 N   0  3  0  0  0  0  0  0  0  0  0  0
    2.5981    4.0000    0.0000 N   0  3  0  0  0  0  0  0  0  0  0  0
    3.4641    8.3100    0.0000 N   0  3  0  0  0  0  0  0  0  0  0  0
    1.7320    8.3100    0.0000 N   0  0  0  0  0  0  0  0  0  0  0  0
    2.5981    6.8100    0.0000 N   0  0  0  0  0  0  0  0  0  0  0  0
    1.7320    1.5000    0.0000 C   0  0  0  0  0  0  0  0  0  0  0  0
    2.5981    3.0000    0.0000 C   0  0  0  0  0  0  0  0  0  0  0  0
    3.4641    1.5000    0.0000 C   0  0  0  0  0  0  0  0  0  0  0  0
    1.7320    2.5000    0.0000 C   0  0  0  0  0  0  0  0  0  0  0  0
    2.5981    1.0000    0.0000 C   0  0  0  0  0  0  0  0  0  0  0  0
    3.4641    2.5000    0.0000 C   0  0  0  0  0  0  0  0  0  0  0  0
    4.3301    1.0000    0.0000 C   0  0  0  0  0  0  0  0  0  0  0  0
    2.5981    7.8100    0.0000 C   0  0  0  0  0  0  0  0  0  0  0  0
    1.1951    2.8100    0.0000 H   0  0  0  0  0  0  0  0  0  0  0  0
    2.5981    0.3800    0.0000 H   0  0  0  0  0  0  0  0  0  0  0  0
    4.0010    2.8100    0.0000 H   0  0  0  0  0  0  0  0  0  0  0  0
    4.0010    8.0000    0.0000 H   0  0  0  0  0  0  0  0  0  0  0  0
    3.4641    8.9300    0.0000 H   0  0  0  0  0  0  0  0  0  0  0  0
    1.1951    8.0000    0.0000 H   0  0  0  0  0  0  0  0  0  0  0  0
    1.7320    8.9300    0.0000 H   0  0  0  0  0  0  0  0  0  0  0  0
    2.0611    6.5000    0.0000 H   0  0  0  0  0  0  0  0  0  0  0  0
    3.1350    6.5000    0.0000 H   0  0  0  0  0  0  0  0  0  0  0  0
  1  7  1  0  0  0  0
  2  8  1  0  0  0  0
  3  7  2  0  0  0  0
  4  8  2  0  0  0  0
  5 18  1  0  0  0  0
  6 18  2  0  0  0  0
  7 12  1  0  0  0  0
  8 13  1  0  0  0  0
  9 19  2  0  0  0  0
  9 23  1  0  0  0  0
  9 24  1  0  0  0  0
 10 19  1  0  0  0  0
 10 25  1  0  0  0  0
 10 26  1  0  0  0  0
 11 19  1  0  0  0  0
 11 27  1  0  0  0  0
 11 28  1  0  0  0  0
 12 15  2  0  0  0  0
 12 16  1  0  0  0  0
 13 15  1  0  0  0  0
 13 17  2  0  0  0  0
 14 16  2  0  0  0  0
 14 17  1  0  0  0  0
 14 18  1  0  0  0  0
 15 20  1  0  0  0  0
 16 21  1  0  0  0  0
 17 22  1  0  0  0  0
M  CHG  6   1  -1   2  -1   5  -1   7   1   8   1   9   1
M  END
> <PUBCHEM_COMPOUND_CID>
129814795

> <PUBCHEM_COMPOUND_CANONICALIZED>
1

> <PUBCHEM_CACTVS_COMPLEXITY>
284

> <PUBCHEM_CACTVS_HBOND_ACCEPTOR>
6

> <PUBCHEM_CACTVS_HBOND_DONOR>
3

> <PUBCHEM_CACTVS_ROTATABLE_BOND>
0

> <PUBCHEM_CACTVS_SUBSKEYS>
AAADccBzuAAAAAAAAAAAAAAAAAAAAAAAAAAwAAAAAAAAAAABAAAAHgAUAAAADAiBmAAxyIBQQACpAiTSawCCAACkAgAgiAEAbMoIJjKA1dGAMQBkwAEIyYe8yCCOAAAAQAQAAAAAAACACAAAAAAAAAAAAA==

> <PUBCHEM_IUPAC_OPENEYE_NAME>
diaminomethyleneammonium;3,5-dinitrobenzoate

> <PUBCHEM_IUPAC_CAS_NAME>
diaminomethylideneammonium;3,5-dinitrobenzoate

> <PUBCHEM_IUPAC_NAME_MARKUP>
diaminomethylideneazanium;3,5-dinitrobenzoate

> <PUBCHEM_IUPAC_NAME>
diaminomethylideneazanium;3,5-dinitrobenzoate

> <PUBCHEM_IUPAC_SYSTEMATIC_NAME>
bis(azanyl)methylideneazanium;3,5-dinitrobenzoate

> <PUBCHEM_IUPAC_TRADITIONAL_NAME>
diaminomethyleneammonium;3,5-dinitrobenzoate

> <PUBCHEM_IUPAC_INCHI>
InChI=1S/C7H4N2O6.CH5N3/c10-7(11)4-1-5(8(12)13)3-6(2-4)9(14)15;2-1(3)4/h1-3H,(H,10,11);(H5,2,3,4)

> <PUBCHEM_IUPAC_INCHIKEY>
VQTHDNUSQDERQZ-UHFFFAOYSA-N

> <PUBCHEM_EXACT_MASS>
271.05528302

> <PUBCHEM_MOLECULAR_FORMULA>
C8H9N5O6

> <PUBCHEM_MOLECULAR_WEIGHT>
271.19

> <PUBCHEM_OPENEYE_CAN_SMILES>
C1=C(C=C(C=C1[N+](=O)[O-])[N+](=O)[O-])C(=O)[O-].C(=[NH2+])(N)N

> <PUBCHEM_OPENEYE_ISO_SMILES>
C1=C(C=C(C=C1[N+](=O)[O-])[N+](=O)[O-])C(=O)[O-].C(=[NH2+])(N)N

> <PUBCHEM_CACTVS_TPSA>
209

> <PUBCHEM_MONOISOTOPIC_WEIGHT>
271.05528302

> <PUBCHEM_TOTAL_CHARGE>
0

> <PUBCHEM_HEAVY_ATOM_COUNT>
19

> <PUBCHEM_ATOM_DEF_STEREO_COUNT>
0

> <PUBCHEM_ATOM_UDEF_STEREO_COUNT>
0

> <PUBCHEM_BOND_DEF_STEREO_COUNT>
0

> <PUBCHEM_BOND_UDEF_STEREO_COUNT>
0

> <PUBCHEM_ISOTOPIC_ATOM_COUNT>
0

> <PUBCHEM_COMPONENT_COUNT>
2

> <PUBCHEM_CACTVS_TAUTO_COUNT>
-1

> <PUBCHEM_COORDINATE_TYPE>
1
5
255

> <PUBCHEM_BONDANNOTATIONS>
12  15  8
12  16  8
13  15  8
13  17  8
14  16  8
14  17  8

$$$$
