522574
  -OEChem-11012401093D

 39 41  0     0  0  0  0  0  0999 V2000
    4.3738    1.1542    0.8805 O   0  0  0  0  0  0  0  0  0  0  0  0
    0.3921    1.8500   -1.5196 O   0  0  0  0  0  0  0  0  0  0  0  0
    1.9062    0.5617   -0.3418 N   0  0  0  0  0  0  0  0  0  0  0  0
   -0.4495    0.1197   -0.2268 N   0  0  0  0  0  0  0  0  0  0  0  0
    2.2618   -0.0512    0.9447 C   0  0  0  0  0  0  0  0  0  0  0  0
    3.0590    0.9785   -1.1397 C   0  0  0  0  0  0  0  0  0  0  0  0
    3.2384    0.8505    1.6950 C   0  0  0  0  0  0  0  0  0  0  0  0
    3.9846    1.8520   -0.3064 C   0  0  0  0  0  0  0  0  0  0  0  0
    0.6054    0.9042   -0.7502 C   0  0  0  0  0  0  0  0  0  0  0  0
   -1.7411    0.7354   -0.0383 C   0  0  0  0  0  0  0  0  0  0  0  0
   -0.3440   -1.3133   -0.1197 C   0  0  0  0  0  0  0  0  0  0  0  0
   -2.8971    0.0363   -0.3759 C   0  0  0  0  0  0  0  0  0  0  0  0
   -1.2074   -2.0120    0.7218 C   0  0  0  0  0  0  0  0  0  0  0  0
   -1.8249    2.0247    0.4807 C   0  0  0  0  0  0  0  0  0  0  0  0
    0.6206   -1.9959   -0.8581 C   0  0  0  0  0  0  0  0  0  0  0  0
   -4.1457    0.6309   -0.1935 C   0  0  0  0  0  0  0  0  0  0  0  0
   -1.1058   -3.3992    0.8253 C   0  0  0  0  0  0  0  0  0  0  0  0
   -3.0735    2.6192    0.6632 C   0  0  0  0  0  0  0  0  0  0  0  0
    0.7221   -3.3833   -0.7545 C   0  0  0  0  0  0  0  0  0  0  0  0
   -4.2338    1.9223    0.3260 C   0  0  0  0  0  0  0  0  0  0  0  0
   -0.1412   -4.0849    0.0872 C   0  0  0  0  0  0  0  0  0  0  0  0
    2.7429   -1.0107    0.7267 H   0  0  0  0  0  0  0  0  0  0  0  0
    1.3811   -0.2152    1.5697 H   0  0  0  0  0  0  0  0  0  0  0  0
    2.7426    1.5009   -2.0474 H   0  0  0  0  0  0  0  0  0  0  0  0
    3.5775    0.0602   -1.4392 H   0  0  0  0  0  0  0  0  0  0  0  0
    2.7573    1.7865    2.0033 H   0  0  0  0  0  0  0  0  0  0  0  0
    3.5966    0.3460    2.5976 H   0  0  0  0  0  0  0  0  0  0  0  0
    4.8920    2.0862   -0.8713 H   0  0  0  0  0  0  0  0  0  0  0  0
    3.5049    2.7985   -0.0301 H   0  0  0  0  0  0  0  0  0  0  0  0
   -2.8819   -0.9379   -0.8557 H   0  0  0  0  0  0  0  0  0  0  0  0
   -1.9219   -1.5213    1.3763 H   0  0  0  0  0  0  0  0  0  0  0  0
   -0.9360    2.5805    0.7670 H   0  0  0  0  0  0  0  0  0  0  0  0
    1.2733   -1.5051   -1.5725 H   0  0  0  0  0  0  0  0  0  0  0  0
   -5.0487    0.0957   -0.4723 H   0  0  0  0  0  0  0  0  0  0  0  0
   -1.7660   -3.9443    1.4935 H   0  0  0  0  0  0  0  0  0  0  0  0
   -3.1427    3.6236    1.0707 H   0  0  0  0  0  0  0  0  0  0  0  0
    1.4644   -3.9191   -1.3388 H   0  0  0  0  0  0  0  0  0  0  0  0
   -5.2058    2.3865    0.4650 H   0  0  0  0  0  0  0  0  0  0  0  0
   -0.0614   -5.1649    0.1686 H   0  0  0  0  0  0  0  0  0  0  0  0
  1  7  1  0  0  0  0
  1  8  1  0  0  0  0
  2  9  2  0  0  0  0
  3  5  1  0  0  0  0
  3  6  1  0  0  0  0
  3  9  1  0  0  0  0
  4  9  1  0  0  0  0
  4 10  1  0  0  0  0
  4 11  1  0  0  0  0
  5  7  1  0  0  0  0
  5 22  1  0  0  0  0
  5 23  1  0  0  0  0
  6  8  1  0  0  0  0
  6 24  1  0  0  0  0
  6 25  1  0  0  0  0
  7 26  1  0  0  0  0
  7 27  1  0  0  0  0
  8 28  1  0  0  0  0
  8 29  1  0  0  0  0
 10 12  2  0  0  0  0
 10 14  1  0  0  0  0
 11 13  2  0  0  0  0
 11 15  1  0  0  0  0
 12 16  1  0  0  0  0
 12 30  1  0  0  0  0
 13 17  1  0  0  0  0
 13 31  1  0  0  0  0
 14 18  2  0  0  0  0
 14 32  1  0  0  0  0
 15 19  2  0  0  0  0
 15 33  1  0  0  0  0
 16 20  2  0  0  0  0
 16 34  1  0  0  0  0
 17 21  2  0  0  0  0
 17 35  1  0  0  0  0
 18 20  1  0  0  0  0
 18 36  1  0  0  0  0
 19 21  1  0  0  0  0
 19 37  1  0  0  0  0
 20 38  1  0  0  0  0
 21 39  1  0  0  0  0
M  END
> <PUBCHEM_COMPOUND_CID>
522574

> <PUBCHEM_CONFORMER_RMSD>
0.8

> <PUBCHEM_CONFORMER_DIVERSEORDER>
1
8
5
3
2
6
4
7

> <PUBCHEM_MMFF94_PARTIAL_CHARGES>
31
1 -0.56
10 0.12
11 0.12
12 -0.15
13 -0.15
14 -0.15
15 -0.15
16 -0.15
17 -0.15
18 -0.15
19 -0.15
2 -0.57
20 -0.15
21 -0.15
3 -0.66
30 0.15
31 0.15
32 0.15
33 0.15
34 0.15
35 0.15
36 0.15
37 0.15
38 0.15
39 0.15
4 -0.29
5 0.3
6 0.3
7 0.28
8 0.28
9 0.69

> <PUBCHEM_EFFECTIVE_ROTOR_COUNT>
5.2

> <PUBCHEM_PHARMACOPHORE_FEATURES>
5
1 1 acceptor
1 2 acceptor
6 1 3 5 6 7 8 rings
6 10 12 14 16 18 20 rings
6 11 13 15 17 19 21 rings

> <PUBCHEM_HEAVY_ATOM_COUNT>
21

> <PUBCHEM_ATOM_DEF_STEREO_COUNT>
0

> <PUBCHEM_ATOM_UDEF_STEREO_COUNT>
0

> <PUBCHEM_BOND_DEF_STEREO_COUNT>
0

> <PUBCHEM_BOND_UDEF_STEREO_COUNT>
0

> <PUBCHEM_ISOTOPIC_ATOM_COUNT>
0

> <PUBCHEM_COMPONENT_COUNT>
1

> <PUBCHEM_CACTVS_TAUTO_COUNT>
1

> <PUBCHEM_CONFORMER_ID>
0007F94E00000001

> <PUBCHEM_MMFF94_ENERGY>
94.5345

> <PUBCHEM_FEATURE_SELFOVERLAP>
25.373

> <PUBCHEM_SHAPE_FINGERPRINT>
10090160 65 18408877430869022645
10319926 262 18126831923999670888
10411042 1 17330559155695881502
10764073 3 14784849550002959973
11370993 70 18412260618861597896
11725454 13 16987412348459956952
12173636 292 18341043116300683236
12553582 1 17401776714270582622
12788726 201 17829054556243411754
12839892 36 18336256890945884963
13052359 8 18263640835095347239
13140716 1 18336265618034905507
13538477 17 18116709806351647756
136203 1 18122907787319270755
138480 1 17689720753204754039
13878862 14 17617653264254143061
14081887 123 17908411808136374424
14178342 30 18337395942121786773
14787075 74 17988070214467166961
15042514 8 18120660389952961555
15309172 13 18334010579668068973
15490181 8 18335994116098492855
16110190 28 18190719983429191290
16752209 62 18193557997947287166
16945 1 18337677541061529942
17980427 23 16692430678877627161
20028762 73 17841720900716774063
20510252 161 18270690890630263969
20739085 24 18043538217824373252
212916 134 18342725326146860568
21524375 3 18272083855640017580
21731228 192 18410003313010407696
22149856 69 18120685491065952569
2255824 54 18050857611075134191
23366157 5 18046632196373835627
23419403 2 17035631280435464378
23557571 272 17983019148364711960
23559900 14 17836359355374324209
23598288 3 17900274292292698214
23728640 28 18265610064441368066
266924 1 17392209816246954556
2748010 2 18191329142070540591
3091708 16 8977641620707355963
352729 6 18192444167288514199
43471831 8 18338516344243403339
458136 41 18267881492308077081
474 4 18337392617590155465
474229 33 18337673117920545811
5104073 3 18052549773056999025
58807428 26 18336262345206080835
6138700 20 17981051817336688750
633830 44 18130787811125608157
7364860 26 17982730771085185427
7808743 9 18267022950306486880
81228 2 18050835908330924878
84936 182 18128820729030860753
90316 7 17763472011756231010
9981440 41 18410853252831587483

> <PUBCHEM_SHAPE_MULTIPOLES>
410.47
6.66
4.33
1.18
0.05
5.41
0.1
-7.13
1.14
0.47
0.23
-0.83
-0.2
0.07

> <PUBCHEM_SHAPE_SELFOVERLAP>
881.852

> <PUBCHEM_SHAPE_VOLUME>
224

> <PUBCHEM_COORDINATE_TYPE>
2
5
10

$$$$
