6327386
  -OEChem-10312420272D

  7  6  0     0  0  0  0  0  0999 V2000
    3.7320    0.7500    0.0000 Cl  0  0  0  0  0  0  0  0  0  0  0  0
    2.0000    0.7500    0.0000 Cl  0  0  0  0  0  0  0  0  0  0  0  0
    2.8660    0.2500    0.0000 Si  0  4  0  0  0  0  0  0  0  0  0  0
    2.8660   -0.7500    0.0000 C   0  0  0  0  0  0  0  0  0  0  0  0
    2.2460   -0.7500    0.0000 H   0  0  0  0  0  0  0  0  0  0  0  0
    2.8660   -1.3700    0.0000 H   0  0  0  0  0  0  0  0  0  0  0  0
    3.4860   -0.7500    0.0000 H   0  0  0  0  0  0  0  0  0  0  0  0
  1  3  1  0  0  0  0
  2  3  1  0  0  0  0
  3  4  1  0  0  0  0
  4  5  1  0  0  0  0
  4  6  1  0  0  0  0
  4  7  1  0  0  0  0
M  RAD  1   3   2
M  END
> <PUBCHEM_COMPOUND_CID>
6327386

> <PUBCHEM_COMPOUND_CANONICALIZED>
1

> <PUBCHEM_CACTVS_COMPLEXITY>
13.5

> <PUBCHEM_CACTVS_HBOND_ACCEPTOR>
0

> <PUBCHEM_CACTVS_HBOND_DONOR>
0

> <PUBCHEM_CACTVS_ROTATABLE_BOND>
0

> <PUBCHEM_CACTVS_SUBSKEYS>
AAADcQAAAAgGAAAAAAAAAAAAAAAAAAAAAAAAAAAAAAAAAAAAAAAAEBAAAAAgAAAAAABCAAAAAAAAAAAAAAAAAAAAAAAAAAAAAAAAAAAAAAAAAAAAAAAAAAAAAAAAAAAAAAAAAAAAAAAAAAAAAAAAAAAAAA==

> <PUBCHEM_IUPAC_INCHI>
InChI=1S/CH3Cl2Si/c1-4(2)3/h1H3

> <PUBCHEM_IUPAC_INCHIKEY>
KTQYJQFGNYHXMB-UHFFFAOYSA-N

> <PUBCHEM_EXACT_MASS>
112.9381070

> <PUBCHEM_MOLECULAR_FORMULA>
CH3Cl2Si

> <PUBCHEM_MOLECULAR_WEIGHT>
114.02

> <PUBCHEM_OPENEYE_CAN_SMILES>
C[Si](Cl)Cl

> <PUBCHEM_OPENEYE_ISO_SMILES>
C[Si](Cl)Cl

> <PUBCHEM_CACTVS_TPSA>
0

> <PUBCHEM_MONOISOTOPIC_WEIGHT>
112.9381070

> <PUBCHEM_TOTAL_CHARGE>
0

> <PUBCHEM_HEAVY_ATOM_COUNT>
4

> <PUBCHEM_ATOM_DEF_STEREO_COUNT>
0

> <PUBCHEM_ATOM_UDEF_STEREO_COUNT>
0

> <PUBCHEM_BOND_DEF_STEREO_COUNT>
0

> <PUBCHEM_BOND_UDEF_STEREO_COUNT>
0

> <PUBCHEM_ISOTOPIC_ATOM_COUNT>
0

> <PUBCHEM_COMPONENT_COUNT>
1

> <PUBCHEM_CACTVS_TAUTO_COUNT>
-1

> <PUBCHEM_COORDINATE_TYPE>
1
5
255

$$$$
