20607154
  -OEChem-10312420072D

 17 15  0     1  0  0  0  0  0999 V2000
    2.0000    0.2500    0.0000 K   0  3  0  0  0  0  0  0  0  0  0  0
    5.4641    1.2500    0.0000 O   0  0  0  0  0  0  0  0  0  0  0  0
    4.5981   -1.2500    0.0000 O   0  0  0  0  0  0  0  0  0  0  0  0
    7.1962    0.2500    0.0000 O   0  0  0  0  0  0  0  0  0  0  0  0
    2.8660   -0.2500    0.0000 O   0  5  0  0  0  0  0  0  0  0  0  0
    3.7320    1.2500    0.0000 O   0  0  0  0  0  0  0  0  0  0  0  0
    5.4641    0.2500    0.0000 C   0  0  2  0  0  0  0  0  0  0  0  0
    4.5981   -0.2500    0.0000 C   0  0  2  0  0  0  0  0  0  0  0  0
    6.3301   -0.2500    0.0000 C   0  0  0  0  0  0  0  0  0  0  0  0
    3.7320    0.2500    0.0000 C   0  0  0  0  0  0  0  0  0  0  0  0
    6.0010    0.5600    0.0000 H   0  0  0  0  0  0  0  0  0  0  0  0
    5.1350   -0.5600    0.0000 H   0  0  0  0  0  0  0  0  0  0  0  0
    5.9316   -0.7249    0.0000 H   0  0  0  0  0  0  0  0  0  0  0  0
    6.7287   -0.7249    0.0000 H   0  0  0  0  0  0  0  0  0  0  0  0
    6.0010    1.5600    0.0000 H   0  0  0  0  0  0  0  0  0  0  0  0
    4.0611   -1.5600    0.0000 H   0  0  0  0  0  0  0  0  0  0  0  0
    7.7331   -0.0600    0.0000 H   0  0  0  0  0  0  0  0  0  0  0  0
  7  2  1  1  0  0  0
  2 15  1  0  0  0  0
  8  3  1  1  0  0  0
  3 16  1  0  0  0  0
  4  9  1  0  0  0  0
  4 17  1  0  0  0  0
  5 10  1  0  0  0  0
  6 10  2  0  0  0  0
  7  8  1  0  0  0  0
  7  9  1  0  0  0  0
  7 11  1  0  0  0  0
  8 10  1  0  0  0  0
  8 12  1  0  0  0  0
  9 13  1  0  0  0  0
  9 14  1  0  0  0  0
M  CHG  2   1   1   5  -1
M  END
> <PUBCHEM_COMPOUND_CID>
20607154

> <PUBCHEM_COMPOUND_CANONICALIZED>
1

> <PUBCHEM_CACTVS_COMPLEXITY>
95.6

> <PUBCHEM_CACTVS_HBOND_ACCEPTOR>
5

> <PUBCHEM_CACTVS_HBOND_DONOR>
3

> <PUBCHEM_CACTVS_ROTATABLE_BOND>
2

> <PUBCHEM_CACTVS_SUBSKEYS>
AAADcYBgOAAAQAAAAAAAAAAAAAAAAAAAAAAAAAAAAAAAAAAAAAAAGgAACAAACBSggAIACAAAAgAIAACQCAIAAAAAAAAAAAFAAAABEBQAAAAAQAAFIAABAABCAAAAAAAAAAAAAAAAAAAAAAAAAAAAAAAAAA==

> <PUBCHEM_IUPAC_OPENEYE_NAME>
potassium;(2R,3S)-2,3,4-trihydroxybutanoate

> <PUBCHEM_IUPAC_CAS_NAME>
potassium;(2R,3S)-2,3,4-trihydroxybutanoate

> <PUBCHEM_IUPAC_NAME_MARKUP>
potassium;(2<I>R</I>,3<I>S</I>)-2,3,4-trihydroxybutanoate

> <PUBCHEM_IUPAC_NAME>
potassium;(2R,3S)-2,3,4-trihydroxybutanoate

> <PUBCHEM_IUPAC_SYSTEMATIC_NAME>
potassium;(2R,3S)-2,3,4-tris(oxidanyl)butanoate

> <PUBCHEM_IUPAC_TRADITIONAL_NAME>
potassium;(2R,3S)-2,3,4-trihydroxybutyrate

> <PUBCHEM_IUPAC_INCHI>
InChI=1S/C4H8O5.K/c5-1-2(6)3(7)4(8)9;/h2-3,5-7H,1H2,(H,8,9);/q;+1/p-1/t2-,3+;/m0./s1

> <PUBCHEM_IUPAC_INCHIKEY>
NIBJBHRBFKKLFG-LJUKVTEVSA-M

> <PUBCHEM_EXACT_MASS>
173.99305480

> <PUBCHEM_MOLECULAR_FORMULA>
C4H7KO5

> <PUBCHEM_MOLECULAR_WEIGHT>
174.19

> <PUBCHEM_OPENEYE_CAN_SMILES>
C(C(C(C(=O)[O-])O)O)O.[K+]

> <PUBCHEM_OPENEYE_ISO_SMILES>
C([C@@H]([C@H](C(=O)[O-])O)O)O.[K+]

> <PUBCHEM_CACTVS_TPSA>
101

> <PUBCHEM_MONOISOTOPIC_WEIGHT>
173.99305480

> <PUBCHEM_TOTAL_CHARGE>
0

> <PUBCHEM_HEAVY_ATOM_COUNT>
10

> <PUBCHEM_ATOM_DEF_STEREO_COUNT>
2

> <PUBCHEM_ATOM_UDEF_STEREO_COUNT>
0

> <PUBCHEM_BOND_DEF_STEREO_COUNT>
0

> <PUBCHEM_BOND_UDEF_STEREO_COUNT>
0

> <PUBCHEM_ISOTOPIC_ATOM_COUNT>
0

> <PUBCHEM_COMPONENT_COUNT>
2

> <PUBCHEM_CACTVS_TAUTO_COUNT>
-1

> <PUBCHEM_COORDINATE_TYPE>
1
5
255

> <PUBCHEM_BONDANNOTATIONS>
7  2  5
8  3  5

$$$$
