145085
  -OEChem-11012400493D

 82 83  0     1  0  0  0  0  0999 V2000
   -0.4386   -0.7037   -0.1963 C   0  0  1  0  0  0  0  0  0  0  0  0
    0.4386    0.7035   -0.1961 C   0  0  1  0  0  0  0  0  0  0  0  0
   -0.0560   -1.5978    1.0612 C   0  0  0  0  0  0  0  0  0  0  0  0
    0.0561    1.5973    1.0617 C   0  0  0  0  0  0  0  0  0  0  0  0
   -1.9702   -0.3997   -0.1962 C   0  0  0  0  0  0  0  0  0  0  0  0
    1.9702    0.3997   -0.1960 C   0  0  0  0  0  0  0  0  0  0  0  0
   -0.0774   -1.5670   -1.4439 C   0  0  0  0  0  0  0  0  0  0  0  0
    0.0773    1.5672   -1.4436 C   0  0  0  0  0  0  0  0  0  0  0  0
   -0.7986   -2.9568    1.2108 C   0  0  0  0  0  0  0  0  0  0  0  0
    0.7986    2.9566    1.2107 C   0  0  0  0  0  0  0  0  0  0  0  0
   -2.5774   -0.2384    1.0112 C   0  0  0  0  0  0  0  0  0  0  0  0
    2.5775    0.2381    1.0112 C   0  0  0  0  0  0  0  0  0  0  0  0
   -2.5931   -0.3167   -1.4035 C   0  0  0  0  0  0  0  0  0  0  0  0
    2.5932    0.3169   -1.4033 C   0  0  0  0  0  0  0  0  0  0  0  0
   -2.3208   -2.7773    1.2442 C   0  0  0  0  0  0  0  0  0  0  0  0
   -0.4483   -3.8849    0.0403 C   0  0  0  0  0  0  0  0  0  0  0  0
    0.4480    3.8850    0.0409 C   0  0  0  0  0  0  0  0  0  0  0  0
    2.3207    2.7767    1.2441 C   0  0  0  0  0  0  0  0  0  0  0  0
   -4.6375    0.1301   -0.1959 C   0  0  0  0  0  0  0  0  0  0  0  0
    4.6375   -0.1300   -0.1959 C   0  0  0  0  0  0  0  0  0  0  0  0
   -3.9457    0.0333    1.0113 C   0  0  0  0  0  0  0  0  0  0  0  0
    3.9457   -0.0335    1.0113 C   0  0  0  0  0  0  0  0  0  0  0  0
   -3.9613   -0.0448   -1.4034 C   0  0  0  0  0  0  0  0  0  0  0  0
    3.9613    0.0453   -1.4033 C   0  0  0  0  0  0  0  0  0  0  0  0
   -6.1002    0.4199   -0.1959 C   0  0  0  0  0  0  0  0  0  0  0  0
    6.1003   -0.4196   -0.1960 C   0  0  0  0  0  0  0  0  0  0  0  0
   -6.4060    1.7878    0.4896 C   0  0  0  0  0  0  0  0  0  0  0  0
   -6.8953   -0.6799    0.5742 C   0  0  0  0  0  0  0  0  0  0  0  0
   -6.7684    0.5038   -1.6085 C   0  0  0  0  0  0  0  0  0  0  0  0
    6.7684   -0.5032   -1.6085 C   0  0  0  0  0  0  0  0  0  0  0  0
    6.4061   -1.7878    0.4892 C   0  0  0  0  0  0  0  0  0  0  0  0
    6.8953    0.6800    0.5743 C   0  0  0  0  0  0  0  0  0  0  0  0
    1.0098   -1.8488    1.0133 H   0  0  0  0  0  0  0  0  0  0  0  0
   -0.1750   -1.0493    2.0000 H   0  0  0  0  0  0  0  0  0  0  0  0
   -1.0098    1.8482    1.0141 H   0  0  0  0  0  0  0  0  0  0  0  0
    0.1755    1.0489    2.0005 H   0  0  0  0  0  0  0  0  0  0  0  0
    0.8851   -2.0742   -1.3322 H   0  0  0  0  0  0  0  0  0  0  0  0
   -0.8523   -2.2683   -1.7470 H   0  0  0  0  0  0  0  0  0  0  0  0
    0.0562   -0.9663   -2.3465 H   0  0  0  0  0  0  0  0  0  0  0  0
   -0.8853    2.0744   -1.3316 H   0  0  0  0  0  0  0  0  0  0  0  0
    0.8522    2.2685   -1.7465 H   0  0  0  0  0  0  0  0  0  0  0  0
   -0.0563    0.9667   -2.3464 H   0  0  0  0  0  0  0  0  0  0  0  0
   -0.4653   -3.4248    2.1454 H   0  0  0  0  0  0  0  0  0  0  0  0
    0.4655    3.4244    2.1455 H   0  0  0  0  0  0  0  0  0  0  0  0
   -2.0632   -0.2088    1.9641 H   0  0  0  0  0  0  0  0  0  0  0  0
    2.0633    0.2082    1.9641 H   0  0  0  0  0  0  0  0  0  0  0  0
   -2.1023   -0.4205   -2.3626 H   0  0  0  0  0  0  0  0  0  0  0  0
    2.1023    0.4210   -2.3624 H   0  0  0  0  0  0  0  0  0  0  0  0
   -2.7192   -3.7851    1.4542 H   0  0  0  0  0  0  0  0  0  0  0  0
   -2.6710   -2.2415    2.1278 H   0  0  0  0  0  0  0  0  0  0  0  0
   -2.8100   -2.5727    0.2929 H   0  0  0  0  0  0  0  0  0  0  0  0
    0.5964   -3.8237   -0.2721 H   0  0  0  0  0  0  0  0  0  0  0  0
   -1.1460   -3.8579   -0.7970 H   0  0  0  0  0  0  0  0  0  0  0  0
   -0.5560   -4.9153    0.4103 H   0  0  0  0  0  0  0  0  0  0  0  0
   -0.5967    3.8240   -0.2712 H   0  0  0  0  0  0  0  0  0  0  0  0
    1.1455    3.8584   -0.7965 H   0  0  0  0  0  0  0  0  0  0  0  0
    0.5557    4.9154    0.4113 H   0  0  0  0  0  0  0  0  0  0  0  0
    2.8099    2.5724    0.2927 H   0  0  0  0  0  0  0  0  0  0  0  0
    2.7193    3.7844    1.4542 H   0  0  0  0  0  0  0  0  0  0  0  0
    2.6709    2.2409    2.1277 H   0  0  0  0  0  0  0  0  0  0  0  0
   -4.4437    0.1846    1.9648 H   0  0  0  0  0  0  0  0  0  0  0  0
    4.4436   -0.1851    1.9647 H   0  0  0  0  0  0  0  0  0  0  0  0
   -4.4488    0.0253   -2.3695 H   0  0  0  0  0  0  0  0  0  0  0  0
    4.4488   -0.0245   -2.3694 H   0  0  0  0  0  0  0  0  0  0  0  0
   -5.8757    2.6035   -0.0160 H   0  0  0  0  0  0  0  0  0  0  0  0
   -6.0995    1.7964    1.5413 H   0  0  0  0  0  0  0  0  0  0  0  0
   -7.4778    2.0161    0.4636 H   0  0  0  0  0  0  0  0  0  0  0  0
   -6.7240   -1.6672    0.1293 H   0  0  0  0  0  0  0  0  0  0  0  0
   -7.9733   -0.4826    0.5513 H   0  0  0  0  0  0  0  0  0  0  0  0
   -6.5991   -0.7364    1.6274 H   0  0  0  0  0  0  0  0  0  0  0  0
   -6.6722   -0.4415   -2.1552 H   0  0  0  0  0  0  0  0  0  0  0  0
   -6.3279    1.3043   -2.2143 H   0  0  0  0  0  0  0  0  0  0  0  0
   -7.8409    0.7181   -1.5259 H   0  0  0  0  0  0  0  0  0  0  0  0
    6.6721    0.4423   -2.1551 H   0  0  0  0  0  0  0  0  0  0  0  0
    6.3279   -1.3036   -2.2145 H   0  0  0  0  0  0  0  0  0  0  0  0
    7.8410   -0.7175   -1.5260 H   0  0  0  0  0  0  0  0  0  0  0  0
    5.8760   -2.6034   -0.0166 H   0  0  0  0  0  0  0  0  0  0  0  0
    6.0997   -1.7966    1.5409 H   0  0  0  0  0  0  0  0  0  0  0  0
    7.4780   -2.0159    0.4632 H   0  0  0  0  0  0  0  0  0  0  0  0
    6.7238    1.6675    0.1297 H   0  0  0  0  0  0  0  0  0  0  0  0
    7.9733    0.4828    0.5515 H   0  0  0  0  0  0  0  0  0  0  0  0
    6.5992    0.7363    1.6276 H   0  0  0  0  0  0  0  0  0  0  0  0
  1  2  1  0  0  0  0
  1  3  1  0  0  0  0
  1  5  1  0  0  0  0
  1  7  1  0  0  0  0
  2  4  1  0  0  0  0
  2  6  1  0  0  0  0
  2  8  1  0  0  0  0
  3  9  1  0  0  0  0
  3 33  1  0  0  0  0
  3 34  1  0  0  0  0
  4 10  1  0  0  0  0
  4 35  1  0  0  0  0
  4 36  1  0  0  0  0
  5 11  2  0  0  0  0
  5 13  1  0  0  0  0
  6 12  2  0  0  0  0
  6 14  1  0  0  0  0
  7 37  1  0  0  0  0
  7 38  1  0  0  0  0
  7 39  1  0  0  0  0
  8 40  1  0  0  0  0
  8 41  1  0  0  0  0
  8 42  1  0  0  0  0
  9 15  1  0  0  0  0
  9 16  1  0  0  0  0
  9 43  1  0  0  0  0
 10 17  1  0  0  0  0
 10 18  1  0  0  0  0
 10 44  1  0  0  0  0
 11 21  1  0  0  0  0
 11 45  1  0  0  0  0
 12 22  1  0  0  0  0
 12 46  1  0  0  0  0
 13 23  2  0  0  0  0
 13 47  1  0  0  0  0
 14 24  2  0  0  0  0
 14 48  1  0  0  0  0
 15 49  1  0  0  0  0
 15 50  1  0  0  0  0
 15 51  1  0  0  0  0
 16 52  1  0  0  0  0
 16 53  1  0  0  0  0
 16 54  1  0  0  0  0
 17 55  1  0  0  0  0
 17 56  1  0  0  0  0
 17 57  1  0  0  0  0
 18 58  1  0  0  0  0
 18 59  1  0  0  0  0
 18 60  1  0  0  0  0
 19 21  2  0  0  0  0
 19 23  1  0  0  0  0
 19 25  1  0  0  0  0
 20 22  2  0  0  0  0
 20 24  1  0  0  0  0
 20 26  1  0  0  0  0
 21 61  1  0  0  0  0
 22 62  1  0  0  0  0
 23 63  1  0  0  0  0
 24 64  1  0  0  0  0
 25 27  1  0  0  0  0
 25 28  1  0  0  0  0
 25 29  1  0  0  0  0
 26 30  1  0  0  0  0
 26 31  1  0  0  0  0
 26 32  1  0  0  0  0
 27 65  1  0  0  0  0
 27 66  1  0  0  0  0
 27 67  1  0  0  0  0
 28 68  1  0  0  0  0
 28 69  1  0  0  0  0
 28 70  1  0  0  0  0
 29 71  1  0  0  0  0
 29 72  1  0  0  0  0
 29 73  1  0  0  0  0
 30 74  1  0  0  0  0
 30 75  1  0  0  0  0
 30 76  1  0  0  0  0
 31 77  1  0  0  0  0
 31 78  1  0  0  0  0
 31 79  1  0  0  0  0
 32 80  1  0  0  0  0
 32 81  1  0  0  0  0
 32 82  1  0  0  0  0
M  END
> <PUBCHEM_COMPOUND_CID>
145085

> <PUBCHEM_CONFORMER_RMSD>
1

> <PUBCHEM_CONFORMER_DIVERSEORDER>
4
7
12
8
1
9
5
2
10
6
3
11

> <PUBCHEM_MMFF94_PARTIAL_CHARGES>
24
1 0.14
11 -0.15
12 -0.15
13 -0.15
14 -0.15
19 -0.14
2 0.14
20 -0.14
21 -0.15
22 -0.15
23 -0.15
24 -0.15
25 0.14
26 0.14
45 0.15
46 0.15
47 0.15
48 0.15
5 -0.14
6 -0.14
61 0.15
62 0.15
63 0.15
64 0.15

> <PUBCHEM_EFFECTIVE_ROTOR_COUNT>
9

> <PUBCHEM_PHARMACOPHORE_FEATURES>
10
1 7 hydrophobe
1 8 hydrophobe
3 1 3 9 hydrophobe
3 10 17 18 hydrophobe
3 2 4 10 hydrophobe
3 9 15 16 hydrophobe
4 25 27 28 29 hydrophobe
4 26 30 31 32 hydrophobe
6 5 11 13 19 21 23 rings
6 6 12 14 20 22 24 rings

> <PUBCHEM_HEAVY_ATOM_COUNT>
32

> <PUBCHEM_ATOM_DEF_STEREO_COUNT>
0

> <PUBCHEM_ATOM_UDEF_STEREO_COUNT>
2

> <PUBCHEM_BOND_DEF_STEREO_COUNT>
0

> <PUBCHEM_BOND_UDEF_STEREO_COUNT>
0

> <PUBCHEM_ISOTOPIC_ATOM_COUNT>
0

> <PUBCHEM_COMPONENT_COUNT>
1

> <PUBCHEM_CACTVS_TAUTO_COUNT>
1

> <PUBCHEM_CONFORMER_ID>
000236BD00000004

> <PUBCHEM_MMFF94_ENERGY>
211.0302

> <PUBCHEM_FEATURE_SELFOVERLAP>
52.289

> <PUBCHEM_SHAPE_FINGERPRINT>
10165383 225 18040999523264810423
102385 1 17762056935890229619
10906281 52 18129961056202335700
10930396 42 18268687516721872776
11578080 2 18044942522001664052
11646440 116 18272941522360667953
12011746 2 18410573980856483955
12107698 1 17989485212970561073
12166972 35 18336549403920338029
12516196 113 18342738520491998324
12788726 201 18338796698566076440
13533116 47 18340204082272237666
1361 2 17632017464120177054
13692114 37 18265328590367334971
13782708 43 18188500206343012339
13811026 1 18341326781947792779
13914758 101 17060061410596561258
14028597 1 18338517413321015272
14068700 675 17775564234559365433
14466204 15 18339079285771076745
14856354 85 18041005051051517103
15198563 99 18337957762452292332
15238133 3 18409455790553458084
15420108 30 17197719021360438857
15439362 3 18197209467505579425
15775530 1 17834113426121555974
15849732 13 18060700597811626357
17980427 23 13038916555013636818
18608769 82 18260834851794491507
18681886 176 17274527798715506007
19319366 153 17603856789695084842
20600515 1 18337409200617394748
20642791 105 18119240676224673724
20642791 13 17916597431544833032
20832881 197 18341891883231690073
21033648 29 18115568448937115621
21223535 225 18059295353986745529
21285901 2 17917440770074709516
23559900 14 18341045340988280352
23569917 315 18335147483693535771
23569943 247 17701272321362264870
23576562 1 18116436036540868789
24893992 56 18411700990178607865
283562 15 18268996380045737216
3009799 131 18273214192322157424
3178227 256 18336837450381056675
335352 9 18410856576819659015
3383291 50 18341614845083323075
404807 14 15549705044099580822
4093350 32 17917153771464672391
437815 12 18202850954751574376
469060 322 18188784829298992645
484989 97 18264490771043780131
5265222 85 17823150067338813870
5385378 56 18262243197082184403
57527358 35 16557041575756437773
59755656 215 18341332193169132487
59755656 520 18409725171345686807
6004065 56 17988639726676643638
6009941 240 18114465647585534282
6081469 158 17489594420492153572
6086070 43 18338228362739646179
6138700 20 18342177726195356826
6328613 192 18334863861010968164
6371380 46 18409726278913927537
70251023 43 17760086619907999570
7226269 152 18411420592072967872
77296 10 16629669786100834661

> <PUBCHEM_SHAPE_MULTIPOLES>
658.54
16.12
3.21
1.59
0
0
0.34
0
2.51
0
-1.32
0
0
0.81

> <PUBCHEM_SHAPE_SELFOVERLAP>
1369.881

> <PUBCHEM_SHAPE_VOLUME>
371.6

> <PUBCHEM_COORDINATE_TYPE>
2
5
10

$$$$
