138513
  -OEChem-11012401153D

 22 22  0     0  0  0  0  0  0999 V2000
    1.0176   -0.2691   -0.5405 C   0  0  0  0  0  0  0  0  0  0  0  0
    1.7539   -1.2568    0.2902 C   0  0  0  0  0  0  0  0  0  0  0  0
    2.4791   -0.0996   -0.3316 C   0  0  0  0  0  0  0  0  0  0  0  0
    0.1058    0.6744    0.1523 C   0  0  0  0  0  0  0  0  0  0  0  0
   -0.9789    0.0627    1.0156 C   0  0  0  0  0  0  0  0  0  0  0  0
   -1.9120   -0.8940    0.2641 C   0  0  0  0  0  0  0  0  0  0  0  0
    0.1994    2.0096    0.0282 C   0  0  0  0  0  0  0  0  0  0  0  0
   -2.6648   -0.2271   -0.8783 C   0  0  0  0  0  0  0  0  0  0  0  0
    0.6860   -0.5844   -1.5233 H   0  0  0  0  0  0  0  0  0  0  0  0
    1.9251   -2.2414   -0.1292 H   0  0  0  0  0  0  0  0  0  0  0  0
    1.6565   -1.2516    1.3689 H   0  0  0  0  0  0  0  0  0  0  0  0
    2.8481    0.6704    0.3354 H   0  0  0  0  0  0  0  0  0  0  0  0
    3.1373   -0.3097   -1.1666 H   0  0  0  0  0  0  0  0  0  0  0  0
   -1.5892    0.8495    1.4781 H   0  0  0  0  0  0  0  0  0  0  0  0
   -0.5147   -0.4773    1.8495 H   0  0  0  0  0  0  0  0  0  0  0  0
   -1.3507   -1.7520   -0.1237 H   0  0  0  0  0  0  0  0  0  0  0  0
   -2.6418   -1.2970    0.9767 H   0  0  0  0  0  0  0  0  0  0  0  0
   -0.4846    2.6778    0.5405 H   0  0  0  0  0  0  0  0  0  0  0  0
    0.9628    2.4630   -0.5955 H   0  0  0  0  0  0  0  0  0  0  0  0
   -3.2312    0.6391   -0.5217 H   0  0  0  0  0  0  0  0  0  0  0  0
   -3.3728   -0.9336   -1.3234 H   0  0  0  0  0  0  0  0  0  0  0  0
   -1.9864    0.1052   -1.6698 H   0  0  0  0  0  0  0  0  0  0  0  0
  1  2  1  0  0  0  0
  1  3  1  0  0  0  0
  1  4  1  0  0  0  0
  1  9  1  0  0  0  0
  2  3  1  0  0  0  0
  2 10  1  0  0  0  0
  2 11  1  0  0  0  0
  3 12  1  0  0  0  0
  3 13  1  0  0  0  0
  4  5  1  0  0  0  0
  4  7  2  0  0  0  0
  5  6  1  0  0  0  0
  5 14  1  0  0  0  0
  5 15  1  0  0  0  0
  6  8  1  0  0  0  0
  6 16  1  0  0  0  0
  6 17  1  0  0  0  0
  7 18  1  0  0  0  0
  7 19  1  0  0  0  0
  8 20  1  0  0  0  0
  8 21  1  0  0  0  0
  8 22  1  0  0  0  0
M  END
> <PUBCHEM_COMPOUND_CID>
138513

> <PUBCHEM_CONFORMER_RMSD>
0.6

> <PUBCHEM_CONFORMER_DIVERSEORDER>
4
15
24
11
20
21
9
19
5
14
12
7
1
22
23
10
17
18
13
6
8
3
16
2

> <PUBCHEM_MMFF94_PARTIAL_CHARGES>
13
1 -0.06
10 0.1
11 0.1
12 0.1
13 0.1
18 0.15
19 0.15
2 -0.2
3 -0.2
4 -0.18
5 0.14
7 -0.3
9 0.1

> <PUBCHEM_EFFECTIVE_ROTOR_COUNT>
3.6

> <PUBCHEM_PHARMACOPHORE_FEATURES>
2
1 7 hydrophobe
1 8 hydrophobe

> <PUBCHEM_HEAVY_ATOM_COUNT>
8

> <PUBCHEM_ATOM_DEF_STEREO_COUNT>
0

> <PUBCHEM_ATOM_UDEF_STEREO_COUNT>
0

> <PUBCHEM_BOND_DEF_STEREO_COUNT>
0

> <PUBCHEM_BOND_UDEF_STEREO_COUNT>
0

> <PUBCHEM_ISOTOPIC_ATOM_COUNT>
0

> <PUBCHEM_COMPONENT_COUNT>
1

> <PUBCHEM_CACTVS_TAUTO_COUNT>
1

> <PUBCHEM_CONFORMER_ID>
00021D1100000004

> <PUBCHEM_MMFF94_ENERGY>
8.8966

> <PUBCHEM_FEATURE_SELFOVERLAP>
10.149

> <PUBCHEM_SHAPE_FINGERPRINT>
12897270 3 18408047299131141742
14128692 85 17845651593948661687
18185500 45 18412554214220238954
20653085 51 14635163269489788022
20653091 64 18199474448683554915
21028194 46 8214138551535141455
21040471 1 17401215473650471176
23552423 10 18116445730166218286
23552449 1 18197214746320286672
23552449 11 18130776910540211153
29004967 10 18409452509129553802

> <PUBCHEM_SHAPE_MULTIPOLES>
164.64
3.37
1.49
0.91
0.64
0.71
-0.03
-1.19
0.75
-0.26
-0.1
0.31
-0.04
-0.07

> <PUBCHEM_SHAPE_SELFOVERLAP>
310.546

> <PUBCHEM_SHAPE_VOLUME>
104.9

> <PUBCHEM_COORDINATE_TYPE>
2
5
10

$$$$
