79063
  -OEChem-11012400573D

 24 23  0     0  0  0  0  0  0999 V2000
   -1.7070   -0.0091    0.2934 O   0  0  0  0  0  0  0  0  0  0  0  0
    0.3259    1.8261   -1.1727 O   0  0  0  0  0  0  0  0  0  0  0  0
    2.5770   -0.5245   -0.9360 O   0  0  0  0  0  0  0  0  0  0  0  0
   -0.5755   -1.7245   -0.7534 O   0  0  0  0  0  0  0  0  0  0  0  0
    0.6487    0.0268    0.4098 C   0  0  0  0  0  0  0  0  0  0  0  0
    0.7283    1.4750   -0.0637 C   0  0  0  0  0  0  0  0  0  0  0  0
    1.9264   -0.7398    0.0864 C   0  0  0  0  0  0  0  0  0  0  0  0
   -0.5896   -0.6901   -0.0992 C   0  0  0  0  0  0  0  0  0  0  0  0
   -2.9533   -0.5836   -0.1128 C   0  0  0  0  0  0  0  0  0  0  0  0
    1.3565    2.4646    0.8842 C   0  0  0  0  0  0  0  0  0  0  0  0
    2.3476   -1.8040    1.0672 C   0  0  0  0  0  0  0  0  0  0  0  0
   -4.0851    0.2831    0.3968 C   0  0  0  0  0  0  0  0  0  0  0  0
    0.5577    0.0503    1.5042 H   0  0  0  0  0  0  0  0  0  0  0  0
   -2.9914   -0.6367   -1.2066 H   0  0  0  0  0  0  0  0  0  0  0  0
   -3.0433   -1.5929    0.3040 H   0  0  0  0  0  0  0  0  0  0  0  0
    0.7713    2.5110    1.8059 H   0  0  0  0  0  0  0  0  0  0  0  0
    2.3837    2.1629    1.1030 H   0  0  0  0  0  0  0  0  0  0  0  0
    1.3698    3.4570    0.4250 H   0  0  0  0  0  0  0  0  0  0  0  0
    1.5607   -2.5566    1.1566 H   0  0  0  0  0  0  0  0  0  0  0  0
    2.5459   -1.3472    2.0399 H   0  0  0  0  0  0  0  0  0  0  0  0
    3.2616   -2.2892    0.7135 H   0  0  0  0  0  0  0  0  0  0  0  0
   -5.0551   -0.1278    0.1033 H   0  0  0  0  0  0  0  0  0  0  0  0
   -4.0495    0.3606    1.4885 H   0  0  0  0  0  0  0  0  0  0  0  0
   -3.9982    1.3011    0.0030 H   0  0  0  0  0  0  0  0  0  0  0  0
  1  8  1  0  0  0  0
  1  9  1  0  0  0  0
  2  6  2  0  0  0  0
  3  7  2  0  0  0  0
  4  8  2  0  0  0  0
  5  6  1  0  0  0  0
  5  7  1  0  0  0  0
  5  8  1  0  0  0  0
  5 13  1  0  0  0  0
  6 10  1  0  0  0  0
  7 11  1  0  0  0  0
  9 12  1  0  0  0  0
  9 14  1  0  0  0  0
  9 15  1  0  0  0  0
 10 16  1  0  0  0  0
 10 17  1  0  0  0  0
 10 18  1  0  0  0  0
 11 19  1  0  0  0  0
 11 20  1  0  0  0  0
 11 21  1  0  0  0  0
 12 22  1  0  0  0  0
 12 23  1  0  0  0  0
 12 24  1  0  0  0  0
M  END
> <PUBCHEM_COMPOUND_CID>
79063

> <PUBCHEM_CONFORMER_RMSD>
0.6

> <PUBCHEM_CONFORMER_DIVERSEORDER>
1
244
90
238
39
229
33
268
79
134
295
65
198
259
63
19
274
129
217
153
275
100
239
126
224
252
291
248
232
249
71
117
226
214
235
172
13
81
121
95
20
108
200
24
216
147
32
96
233
154
297
141
73
287
253
183
255
219
279
82
258
123
181
155
191
227
86
35
273
137
120
74
208
53
72
27
281
293
205
25
15
247
107
182
193
130
112
197
62
124
168
266
127
242
103
101
223
167
109
135
148
78
6
99
56
34
201
280
31
113
94
265
18
195
189
218
212
40
277
30
145
236
185
196
68
151
29
140
245
284
286
50
267
110
128
231
91
2
9
17
209
67
156
12
299
47
36
11
207
75
251
44
165
215
192
59
152
174
203
184
66
262
22
104
4
213
199
228
298
278
80
119
77
178
92
204
257
206
176
243
264
162
260
61
54
282
271
8
69
143
114
269
169
283
116
46
136
125
294
188
272
55
133
163
97
93
270
177
85
292
122
230
161
180
250
43
194
60
83
256
190
175
76
48
166
28
64
246
158
7
3
89
234
210
84
288
296
241
98
211
171
52
261
144
164
106
221
105
159
115
170
290
57
45
263
225
202
173
285
186
16
38
88
58
70
42
41
254
240
5
289
139
146
21
111
150
222
102
179
87
14
10
237
160
276
300
118
49
138
301
220
142
132
23
37
131
187
149
51
157
26

> <PUBCHEM_MMFF94_PARTIAL_CHARGES>
11
1 -0.43
10 0.06
11 0.06
2 -0.57
3 -0.57
4 -0.57
5 0.18
6 0.45
7 0.45
8 0.66
9 0.28

> <PUBCHEM_EFFECTIVE_ROTOR_COUNT>
5

> <PUBCHEM_PHARMACOPHORE_FEATURES>
4
1 2 acceptor
1 3 acceptor
1 4 acceptor
1 5 anion

> <PUBCHEM_HEAVY_ATOM_COUNT>
12

> <PUBCHEM_ATOM_DEF_STEREO_COUNT>
0

> <PUBCHEM_ATOM_UDEF_STEREO_COUNT>
0

> <PUBCHEM_BOND_DEF_STEREO_COUNT>
0

> <PUBCHEM_BOND_UDEF_STEREO_COUNT>
0

> <PUBCHEM_ISOTOPIC_ATOM_COUNT>
0

> <PUBCHEM_COMPONENT_COUNT>
1

> <PUBCHEM_CACTVS_TAUTO_COUNT>
8

> <PUBCHEM_CONFORMER_ID>
000134D700000001

> <PUBCHEM_MMFF94_ENERGY>
13.0565

> <PUBCHEM_FEATURE_SELFOVERLAP>
20.298

> <PUBCHEM_SHAPE_FINGERPRINT>
10130415 120 18188206494487185675
10219947 1 18341897346746607907
12932764 1 18186514428218662639
13380536 305 18342746246832124319
13922767 16 18341888576613176753
14344429 50 18343027708929097437
14993402 34 18343592823414284222
15490181 8 17470728179237824132
161256 15 18335695053056910980
16945 1 18272363148879090295
18410436 195 18343016653651856592
19021347 4 17615963752503496920
20511035 2 18267309909523248599
20711985 344 17835826104729708950
20820808 20 17605011358370996804
20871998 22 18268710502716965930
21130352 189 18334005082357590029
21524375 3 17693368249785805000
228727 97 18116736044575813134
23211744 41 16693300911917938240
23552423 10 18192709175149914079
2748010 2 18195507221826084236
305870 269 18122053479743373672
7364860 26 18129945714083158800

> <PUBCHEM_SHAPE_MULTIPOLES>
223.48
4.72
2.21
0.98
5.5
1.08
0.04
-1.06
-0.76
-1.58
-0.25
-0.4
0.07
-0.22

> <PUBCHEM_SHAPE_SELFOVERLAP>
427.94

> <PUBCHEM_SHAPE_VOLUME>
137.1

> <PUBCHEM_COORDINATE_TYPE>
2
5
10

$$$$
