73714
  -OEChem-11012401063D

 16 16  0     0  0  0  0  0  0999 V2000
   -1.4339    0.7246   -0.2336 C   0  0  0  0  0  0  0  0  0  0  0  0
   -1.4337   -0.7246    0.2339 C   0  0  0  0  0  0  0  0  0  0  0  0
   -0.0442    1.2287    0.1376 C   0  0  0  0  0  0  0  0  0  0  0  0
   -0.0441   -1.2287   -0.1381 C   0  0  0  0  0  0  0  0  0  0  0  0
    0.8093    0.0000   -0.0002 C   0  0  0  0  0  0  0  0  0  0  0  0
    2.1466    0.0001    0.0003 C   0  0  0  0  0  0  0  0  0  0  0  0
   -2.2266    1.3129    0.2382 H   0  0  0  0  0  0  0  0  0  0  0  0
   -1.5781    0.7710   -1.3203 H   0  0  0  0  0  0  0  0  0  0  0  0
   -2.2265   -1.3131   -0.2373 H   0  0  0  0  0  0  0  0  0  0  0  0
   -1.5772   -0.7711    1.3207 H   0  0  0  0  0  0  0  0  0  0  0  0
   -0.0336    1.5755    1.1770 H   0  0  0  0  0  0  0  0  0  0  0  0
    0.2734    2.0438   -0.5192 H   0  0  0  0  0  0  0  0  0  0  0  0
   -0.0340   -1.5751   -1.1776 H   0  0  0  0  0  0  0  0  0  0  0  0
    0.2737   -2.0441    0.5183 H   0  0  0  0  0  0  0  0  0  0  0  0
    2.7060   -0.9234   -0.1036 H   0  0  0  0  0  0  0  0  0  0  0  0
    2.7058    0.9236    0.1046 H   0  0  0  0  0  0  0  0  0  0  0  0
  1  2  1  0  0  0  0
  1  3  1  0  0  0  0
  1  7  1  0  0  0  0
  1  8  1  0  0  0  0
  2  4  1  0  0  0  0
  2  9  1  0  0  0  0
  2 10  1  0  0  0  0
  3  5  1  0  0  0  0
  3 11  1  0  0  0  0
  3 12  1  0  0  0  0
  4  5  1  0  0  0  0
  4 13  1  0  0  0  0
  4 14  1  0  0  0  0
  5  6  2  0  0  0  0
  6 15  1  0  0  0  0
  6 16  1  0  0  0  0
M  END
> <PUBCHEM_COMPOUND_CID>
73714

> <PUBCHEM_CONFORMER_RMSD>
0.4

> <PUBCHEM_CONFORMER_DIVERSEORDER>
1

> <PUBCHEM_MMFF94_PARTIAL_CHARGES>
6
15 0.15
16 0.15
3 0.14
4 0.14
5 -0.28
6 -0.3

> <PUBCHEM_EFFECTIVE_ROTOR_COUNT>
0.8

> <PUBCHEM_PHARMACOPHORE_FEATURES>
1
5 1 2 3 4 5 rings

> <PUBCHEM_HEAVY_ATOM_COUNT>
6

> <PUBCHEM_ATOM_DEF_STEREO_COUNT>
0

> <PUBCHEM_ATOM_UDEF_STEREO_COUNT>
0

> <PUBCHEM_BOND_DEF_STEREO_COUNT>
0

> <PUBCHEM_BOND_UDEF_STEREO_COUNT>
0

> <PUBCHEM_ISOTOPIC_ATOM_COUNT>
0

> <PUBCHEM_COMPONENT_COUNT>
1

> <PUBCHEM_CACTVS_TAUTO_COUNT>
1

> <PUBCHEM_CONFORMER_ID>
00011FF200000001

> <PUBCHEM_MMFF94_ENERGY>
4.0093

> <PUBCHEM_FEATURE_SELFOVERLAP>
5.074

> <PUBCHEM_SHAPE_FINGERPRINT>
139733 1 9367082046326973666
16714656 1 18410863174089885598
20096714 4 18338234838885475456
21015797 1 9077383830842342313
21040471 1 18265894644557886733
23552423 10 18187934941264860054
29004967 10 18340494455529161594
5943 1 16410122753051272461

> <PUBCHEM_SHAPE_MULTIPOLES>
123.48
2.18
1.29
0.64
0.75
0
0
0
0
-0.27
0
-0.03
0
0.08

> <PUBCHEM_SHAPE_SELFOVERLAP>
239.661

> <PUBCHEM_SHAPE_VOLUME>
73.7

> <PUBCHEM_COORDINATE_TYPE>
2
5
10

$$$$
