15086
  -OEChem-11012401243D

 54 54  0     0  0  0  0  0  0999 V2000
   -2.5859   -0.6150   -0.0027 C   0  0  0  0  0  0  0  0  0  0  0  0
   -1.2752    0.1696    0.0817 C   0  0  0  0  0  0  0  0  0  0  0  0
   -3.8317    0.2756    0.0269 C   0  0  0  0  0  0  0  0  0  0  0  0
   -0.0658   -0.7673    0.0411 C   0  0  0  0  0  0  0  0  0  0  0  0
   -5.1739   -0.4556   -0.0761 C   0  0  0  0  0  0  0  0  0  0  0  0
    1.2473    0.0168    0.0922 C   0  0  0  0  0  0  0  0  0  0  0  0
   -6.4203    0.4311    0.0079 C   0  0  0  0  0  0  0  0  0  0  0  0
    2.4541   -0.9209    0.0169 C   0  0  0  0  0  0  0  0  0  0  0  0
   -7.7629   -0.3050   -0.0321 C   0  0  0  0  0  0  0  0  0  0  0  0
    3.7999   -0.1861    0.0329 C   0  0  0  0  0  0  0  0  0  0  0  0
   -8.9716    0.6324    0.0073 C   0  0  0  0  0  0  0  0  0  0  0  0
    5.0408   -1.0876    0.0480 C   0  0  0  0  0  0  0  0  0  0  0  0
  -10.2830   -0.1534   -0.0290 C   0  0  0  0  0  0  0  0  0  0  0  0
    6.3457   -0.3330    0.0071 C   0  0  0  0  0  0  0  0  0  0  0  0
  -11.4881    0.7736   -0.0287 C   0  0  0  0  0  0  0  0  0  0  0  0
    6.9345   -0.0239   -1.2192 C   0  0  0  0  0  0  0  0  0  0  0  0
    6.9641    0.0565    1.1953 C   0  0  0  0  0  0  0  0  0  0  0  0
    8.1414    0.6742   -1.2574 C   0  0  0  0  0  0  0  0  0  0  0  0
    8.1710    0.7547    1.1571 C   0  0  0  0  0  0  0  0  0  0  0  0
    8.7596    1.0636   -0.0692 C   0  0  0  0  0  0  0  0  0  0  0  0
   -2.6378   -1.3273    0.8299 H   0  0  0  0  0  0  0  0  0  0  0  0
   -2.5956   -1.2068   -0.9264 H   0  0  0  0  0  0  0  0  0  0  0  0
   -1.2570    0.7562    1.0080 H   0  0  0  0  0  0  0  0  0  0  0  0
   -1.2207    0.8793   -0.7525 H   0  0  0  0  0  0  0  0  0  0  0  0
   -3.7677    1.0015   -0.7935 H   0  0  0  0  0  0  0  0  0  0  0  0
   -3.8222    0.8590    0.9564 H   0  0  0  0  0  0  0  0  0  0  0  0
   -0.0985   -1.3675   -0.8764 H   0  0  0  0  0  0  0  0  0  0  0  0
   -0.1115   -1.4651    0.8860 H   0  0  0  0  0  0  0  0  0  0  0  0
   -5.2005   -1.0131   -1.0207 H   0  0  0  0  0  0  0  0  0  0  0  0
   -5.2246   -1.2035    0.7253 H   0  0  0  0  0  0  0  0  0  0  0  0
    1.2933    0.6021    1.0183 H   0  0  0  0  0  0  0  0  0  0  0  0
    1.2856    0.7271   -0.7425 H   0  0  0  0  0  0  0  0  0  0  0  0
   -6.3711    1.0177    0.9341 H   0  0  0  0  0  0  0  0  0  0  0  0
   -6.3877    1.1539   -0.8171 H   0  0  0  0  0  0  0  0  0  0  0  0
    2.3923   -1.5258   -0.8961 H   0  0  0  0  0  0  0  0  0  0  0  0
    2.4203   -1.6191    0.8624 H   0  0  0  0  0  0  0  0  0  0  0  0
   -7.8067   -0.9137   -0.9438 H   0  0  0  0  0  0  0  0  0  0  0  0
   -7.8127   -1.0002    0.8150 H   0  0  0  0  0  0  0  0  0  0  0  0
    3.8319    0.4722    0.9111 H   0  0  0  0  0  0  0  0  0  0  0  0
    3.8463    0.4752   -0.8422 H   0  0  0  0  0  0  0  0  0  0  0  0
   -8.9284    1.3192   -0.8467 H   0  0  0  0  0  0  0  0  0  0  0  0
   -8.9327    1.2440    0.9167 H   0  0  0  0  0  0  0  0  0  0  0  0
    4.9993   -1.7790   -0.8038 H   0  0  0  0  0  0  0  0  0  0  0  0
    5.0188   -1.7250    0.9415 H   0  0  0  0  0  0  0  0  0  0  0  0
  -10.3410   -0.8213    0.8384 H   0  0  0  0  0  0  0  0  0  0  0  0
  -10.3158   -0.7827   -0.9260 H   0  0  0  0  0  0  0  0  0  0  0  0
  -11.4771    1.4318   -0.9033 H   0  0  0  0  0  0  0  0  0  0  0  0
  -12.4144    0.1911   -0.0535 H   0  0  0  0  0  0  0  0  0  0  0  0
  -11.5028    1.3973    0.8709 H   0  0  0  0  0  0  0  0  0  0  0  0
    6.4613   -0.3200   -2.1517 H   0  0  0  0  0  0  0  0  0  0  0  0
    6.5141   -0.1766    2.1567 H   0  0  0  0  0  0  0  0  0  0  0  0
    8.5995    0.9154   -2.2121 H   0  0  0  0  0  0  0  0  0  0  0  0
    8.6522    1.0585    2.0821 H   0  0  0  0  0  0  0  0  0  0  0  0
    9.6992    1.6075   -0.0989 H   0  0  0  0  0  0  0  0  0  0  0  0
  1  2  1  0  0  0  0
  1  3  1  0  0  0  0
  1 21  1  0  0  0  0
  1 22  1  0  0  0  0
  2  4  1  0  0  0  0
  2 23  1  0  0  0  0
  2 24  1  0  0  0  0
  3  5  1  0  0  0  0
  3 25  1  0  0  0  0
  3 26  1  0  0  0  0
  4  6  1  0  0  0  0
  4 27  1  0  0  0  0
  4 28  1  0  0  0  0
  5  7  1  0  0  0  0
  5 29  1  0  0  0  0
  5 30  1  0  0  0  0
  6  8  1  0  0  0  0
  6 31  1  0  0  0  0
  6 32  1  0  0  0  0
  7  9  1  0  0  0  0
  7 33  1  0  0  0  0
  7 34  1  0  0  0  0
  8 10  1  0  0  0  0
  8 35  1  0  0  0  0
  8 36  1  0  0  0  0
  9 11  1  0  0  0  0
  9 37  1  0  0  0  0
  9 38  1  0  0  0  0
 10 12  1  0  0  0  0
 10 39  1  0  0  0  0
 10 40  1  0  0  0  0
 11 13  1  0  0  0  0
 11 41  1  0  0  0  0
 11 42  1  0  0  0  0
 12 14  1  0  0  0  0
 12 43  1  0  0  0  0
 12 44  1  0  0  0  0
 13 15  1  0  0  0  0
 13 45  1  0  0  0  0
 13 46  1  0  0  0  0
 14 16  2  0  0  0  0
 14 17  1  0  0  0  0
 15 47  1  0  0  0  0
 15 48  1  0  0  0  0
 15 49  1  0  0  0  0
 16 18  1  0  0  0  0
 16 50  1  0  0  0  0
 17 19  2  0  0  0  0
 17 51  1  0  0  0  0
 18 20  2  0  0  0  0
 18 52  1  0  0  0  0
 19 20  1  0  0  0  0
 19 53  1  0  0  0  0
 20 54  1  0  0  0  0
M  END
> <PUBCHEM_COMPOUND_CID>
15086

> <PUBCHEM_CONFORMER_RMSD>
1.4

> <PUBCHEM_CONFORMER_DIVERSEORDER>
1
52
34
14
18
12
3
50
67
17
28
55
59
8
46
19
9
20
45
13
5
49
7
36
35
56
24
47
16
74
58
31
37
61
38
43
33
29
4
11
68
71
32
72
39
15
54
30
41
69
60
42
53
66
10
27
21
44
70
65
25
63
62
64
26
6
48
51
2
57
40
22
73
23

> <PUBCHEM_MMFF94_PARTIAL_CHARGES>
12
12 0.14
14 -0.14
16 -0.15
17 -0.15
18 -0.15
19 -0.15
20 -0.15
50 0.15
51 0.15
52 0.15
53 0.15
54 0.15

> <PUBCHEM_EFFECTIVE_ROTOR_COUNT>
13

> <PUBCHEM_PHARMACOPHORE_FEATURES>
2
1 15 hydrophobe
6 14 16 17 18 19 20 rings

> <PUBCHEM_HEAVY_ATOM_COUNT>
20

> <PUBCHEM_ATOM_DEF_STEREO_COUNT>
0

> <PUBCHEM_ATOM_UDEF_STEREO_COUNT>
0

> <PUBCHEM_BOND_DEF_STEREO_COUNT>
0

> <PUBCHEM_BOND_UDEF_STEREO_COUNT>
0

> <PUBCHEM_ISOTOPIC_ATOM_COUNT>
0

> <PUBCHEM_COMPONENT_COUNT>
1

> <PUBCHEM_CACTVS_TAUTO_COUNT>
1

> <PUBCHEM_CONFORMER_ID>
00003AEE00000001

> <PUBCHEM_MMFF94_ENERGY>
15.2079

> <PUBCHEM_FEATURE_SELFOVERLAP>
10.148

> <PUBCHEM_SHAPE_FINGERPRINT>
11211813 74 16630518584120129784
11315181 36 17846501440024502091
11638347 137 14417847030386563248
12522641 33 16272212977239003055
14216079 64 9583523118601137994
14251764 18 18260830388500135040
14251764 46 17894911828397836571
14344974 52 18130784603749810555
14428016 248 18342744013966329097
15061470 23 17749105575050182101
15510794 2 15123510328986594749
155225 1 18408604786598565828
1754911 235 17131828768657626645
20812841 46 16153708743700356684
21095086 128 11959731564466712309
21360442 33 17844820188120440182
21360442 67 17203612588764505646
21362267 2 18188196710900859069
21362267 313 17604983724588305161
22224240 67 16370724837967928026
232437 2 11671779374032642797
23521765 1 18342175562196419355
23581129 1 18409448085244634507
246663 6 10663820784280504270
28498 318 10663824074689507858
33684 2 8214142959036581415
5283156 175 12901545736865526134
5758199 1 18410576175632751882
59521099 67 15697999648915958384
59521120 56 12468936341430131545
67123 10 18272932726620962639
8209 1 17775284963063770619

> <PUBCHEM_SHAPE_MULTIPOLES>
411.59
43.79
0.96
0.91
69.42
0.01
-0.03
-12.66
-0.96
-0.61
0
-2.2
-0.11
-0.01

> <PUBCHEM_SHAPE_SELFOVERLAP>
784.268

> <PUBCHEM_SHAPE_VOLUME>
249.2

> <PUBCHEM_COORDINATE_TYPE>
2
5
10

$$$$
