137877
  -OEChem-11012401233D

 29 31  0     0  0  0  0  0  0999 V2000
    0.0001   -1.0702   -0.0001 C   0  0  0  0  0  0  0  0  0  0  0  0
   -0.0005   -2.3693    0.7503 C   0  0  0  0  0  0  0  0  0  0  0  0
   -0.0003   -2.3695   -0.7503 C   0  0  0  0  0  0  0  0  0  0  0  0
   -1.2559   -0.2683    0.0001 C   0  0  0  0  0  0  0  0  0  0  0  0
    1.2551   -0.2691   -0.0002 C   0  0  0  0  0  0  0  0  0  0  0  0
   -1.8440    0.1070   -1.2079 C   0  0  0  0  0  0  0  0  0  0  0  0
    1.8443    0.1068    1.2078 C   0  0  0  0  0  0  0  0  0  0  0  0
   -1.8425    0.1087    1.2083 C   0  0  0  0  0  0  0  0  0  0  0  0
    1.8428    0.1088   -1.2083 C   0  0  0  0  0  0  0  0  0  0  0  0
   -3.0184    0.8597   -1.2077 C   0  0  0  0  0  0  0  0  0  0  0  0
    3.0187    0.8594    1.2077 C   0  0  0  0  0  0  0  0  0  0  0  0
   -3.0169    0.8614    1.2083 C   0  0  0  0  0  0  0  0  0  0  0  0
    3.0172    0.8613   -1.2082 C   0  0  0  0  0  0  0  0  0  0  0  0
   -3.6048    1.2367    0.0003 C   0  0  0  0  0  0  0  0  0  0  0  0
    3.6051    1.2366   -0.0002 C   0  0  0  0  0  0  0  0  0  0  0  0
   -0.9057   -2.7068    1.2431 H   0  0  0  0  0  0  0  0  0  0  0  0
    0.9043   -2.7075    1.2434 H   0  0  0  0  0  0  0  0  0  0  0  0
    0.9046   -2.7077   -1.2431 H   0  0  0  0  0  0  0  0  0  0  0  0
   -0.9054   -2.7071   -1.2433 H   0  0  0  0  0  0  0  0  0  0  0  0
   -1.3980   -0.1759   -2.1578 H   0  0  0  0  0  0  0  0  0  0  0  0
    1.3984   -0.1761    2.1579 H   0  0  0  0  0  0  0  0  0  0  0  0
   -1.3954   -0.1729    2.1581 H   0  0  0  0  0  0  0  0  0  0  0  0
    1.3958   -0.1726   -2.1582 H   0  0  0  0  0  0  0  0  0  0  0  0
   -3.4758    1.1529   -2.1481 H   0  0  0  0  0  0  0  0  0  0  0  0
    3.4760    1.1525    2.1482 H   0  0  0  0  0  0  0  0  0  0  0  0
   -3.4732    1.1559    2.1487 H   0  0  0  0  0  0  0  0  0  0  0  0
    3.4736    1.1558   -2.1487 H   0  0  0  0  0  0  0  0  0  0  0  0
   -4.5189    1.8231    0.0005 H   0  0  0  0  0  0  0  0  0  0  0  0
    4.5193    1.8229   -0.0003 H   0  0  0  0  0  0  0  0  0  0  0  0
  1  2  1  0  0  0  0
  1  3  1  0  0  0  0
  1  4  1  0  0  0  0
  1  5  1  0  0  0  0
  2  3  1  0  0  0  0
  2 16  1  0  0  0  0
  2 17  1  0  0  0  0
  3 18  1  0  0  0  0
  3 19  1  0  0  0  0
  4  6  2  0  0  0  0
  4  8  1  0  0  0  0
  5  7  2  0  0  0  0
  5  9  1  0  0  0  0
  6 10  1  0  0  0  0
  6 20  1  0  0  0  0
  7 11  1  0  0  0  0
  7 21  1  0  0  0  0
  8 12  2  0  0  0  0
  8 22  1  0  0  0  0
  9 13  2  0  0  0  0
  9 23  1  0  0  0  0
 10 14  2  0  0  0  0
 10 24  1  0  0  0  0
 11 15  2  0  0  0  0
 11 25  1  0  0  0  0
 12 14  1  0  0  0  0
 12 26  1  0  0  0  0
 13 15  1  0  0  0  0
 13 27  1  0  0  0  0
 14 28  1  0  0  0  0
 15 29  1  0  0  0  0
M  END
> <PUBCHEM_COMPOUND_CID>
137877

> <PUBCHEM_CONFORMER_RMSD>
0.6

> <PUBCHEM_CONFORMER_DIVERSEORDER>
1
2

> <PUBCHEM_MMFF94_PARTIAL_CHARGES>
29
1 0.06
10 -0.15
11 -0.15
12 -0.15
13 -0.15
14 -0.15
15 -0.15
16 0.1
17 0.1
18 0.1
19 0.1
2 -0.2
20 0.15
21 0.15
22 0.15
23 0.15
24 0.15
25 0.15
26 0.15
27 0.15
28 0.15
29 0.15
3 -0.2
4 -0.03
5 -0.03
6 -0.15
7 -0.15
8 -0.15
9 -0.15

> <PUBCHEM_EFFECTIVE_ROTOR_COUNT>
2.6

> <PUBCHEM_PHARMACOPHORE_FEATURES>
2
6 4 6 8 10 12 14 rings
6 5 7 9 11 13 15 rings

> <PUBCHEM_HEAVY_ATOM_COUNT>
15

> <PUBCHEM_ATOM_DEF_STEREO_COUNT>
0

> <PUBCHEM_ATOM_UDEF_STEREO_COUNT>
0

> <PUBCHEM_BOND_DEF_STEREO_COUNT>
0

> <PUBCHEM_BOND_UDEF_STEREO_COUNT>
0

> <PUBCHEM_ISOTOPIC_ATOM_COUNT>
0

> <PUBCHEM_COMPONENT_COUNT>
1

> <PUBCHEM_CACTVS_TAUTO_COUNT>
1

> <PUBCHEM_CONFORMER_ID>
00021A9500000001

> <PUBCHEM_MMFF94_ENERGY>
41.9757

> <PUBCHEM_FEATURE_SELFOVERLAP>
10.149

> <PUBCHEM_SHAPE_FINGERPRINT>
10498660 4 17988638546004340185
10618630 7 8862951584325736240
11031198 65 18341898437710226289
12138202 97 17987796453119571950
12251169 10 15719111365956478216
12363563 72 9511462195209493356
12423570 1 13889030057443877810
12491281 212 16773528710563010129
12633257 1 15791721962819764473
12707595 3 10375860883805099453
13299463 15 14764063518776520262
13571099 52 18115298986877689525
13705890 14 14476957891754819780
13764800 53 18339935908049042251
14115302 16 13038917598684953003
15309172 13 18260831505270688349
15775835 57 18410565189058591328
15906896 17 18043250343204200626
16945 1 18412544309988568648
17804303 29 14780101944545967321
1813 80 17338162901087445766
18186145 218 18130796641688664004
19765921 60 18201429260235845443
20281407 28 11242239749839955104
20361792 2 9151169857180226819
20653085 51 16988573419432038475
20671657 53 13254803434228980464
21524375 3 18410852165888564067
21731228 192 17967532389062737578
21731516 1 9295288360838992205
22802520 49 15195278750896711059
23402539 116 17917988374141695136
23419403 2 17259407249595433262
23557571 272 17557412481802016238
25 1 17988376887684180594
276578 36 18335986393668153882
305870 269 18338793420899523778
3082319 5 15770059423357393764
474 4 18202001044668378489
549884 4 17346601837407997440
633830 44 17988655059805017705
6442390 28 18199207211803589963
7097593 13 16008740303914122072
7364860 26 17984701117101870375
81228 2 17977950420602732410

> <PUBCHEM_SHAPE_MULTIPOLES>
308.69
5.89
1.86
1.47
0
1.44
0
-4.27
0
0
0
0
-0.2
0

> <PUBCHEM_SHAPE_SELFOVERLAP>
675.057

> <PUBCHEM_SHAPE_VOLUME>
161.2

> <PUBCHEM_COORDINATE_TYPE>
2
5
10

$$$$
