523228
  -OEChem-11012401183D

 35 34  0     0  0  0  0  0  0999 V2000
    0.0512    0.5254   -0.3710 Si  0  0  0  0  0  0  0  0  0  0  0  0
   -1.4617    1.0236    0.6186 C   0  0  0  0  0  0  0  0  0  0  0  0
    1.5945    0.8341    0.6484 C   0  0  0  0  0  0  0  0  0  0  0  0
   -0.0577   -1.2956   -0.8054 C   0  0  0  0  0  0  0  0  0  0  0  0
    0.1293    1.5397   -1.9465 C   0  0  0  0  0  0  0  0  0  0  0  0
   -2.8073    0.7713   -0.0678 C   0  0  0  0  0  0  0  0  0  0  0  0
    2.9190    0.5277   -0.0566 C   0  0  0  0  0  0  0  0  0  0  0  0
   -0.1883   -2.2480    0.3868 C   0  0  0  0  0  0  0  0  0  0  0  0
   -3.9718    1.1622    0.8301 C   0  0  0  0  0  0  0  0  0  0  0  0
    4.1105    0.8539    0.8315 C   0  0  0  0  0  0  0  0  0  0  0  0
   -0.3176   -3.6941   -0.0680 C   0  0  0  0  0  0  0  0  0  0  0  0
   -1.3770    2.0898    0.8609 H   0  0  0  0  0  0  0  0  0  0  0  0
   -1.4385    0.4860    1.5741 H   0  0  0  0  0  0  0  0  0  0  0  0
    1.5293    0.2419    1.5689 H   0  0  0  0  0  0  0  0  0  0  0  0
    1.5892    1.8869    0.9560 H   0  0  0  0  0  0  0  0  0  0  0  0
    0.8311   -1.5672   -1.3874 H   0  0  0  0  0  0  0  0  0  0  0  0
   -0.9168   -1.4361   -1.4724 H   0  0  0  0  0  0  0  0  0  0  0  0
    0.9948    1.2537   -2.5514 H   0  0  0  0  0  0  0  0  0  0  0  0
   -0.7699    1.3876   -2.5507 H   0  0  0  0  0  0  0  0  0  0  0  0
    0.2099    2.6059   -1.7154 H   0  0  0  0  0  0  0  0  0  0  0  0
   -2.8716    1.3419   -1.0022 H   0  0  0  0  0  0  0  0  0  0  0  0
   -2.9104   -0.2879   -0.3330 H   0  0  0  0  0  0  0  0  0  0  0  0
    2.9648   -0.5315   -0.3375 H   0  0  0  0  0  0  0  0  0  0  0  0
    3.0038    1.1078   -0.9834 H   0  0  0  0  0  0  0  0  0  0  0  0
    0.6859   -2.1588    1.0430 H   0  0  0  0  0  0  0  0  0  0  0  0
   -1.0675   -1.9905    0.9895 H   0  0  0  0  0  0  0  0  0  0  0  0
   -4.9224    0.9765    0.3202 H   0  0  0  0  0  0  0  0  0  0  0  0
   -3.9645    0.5807    1.7574 H   0  0  0  0  0  0  0  0  0  0  0  0
   -3.9272    2.2248    1.0895 H   0  0  0  0  0  0  0  0  0  0  0  0
    5.0454    0.6257    0.3102 H   0  0  0  0  0  0  0  0  0  0  0  0
    4.1213    1.9153    1.0993 H   0  0  0  0  0  0  0  0  0  0  0  0
    4.0840    0.2660    1.7544 H   0  0  0  0  0  0  0  0  0  0  0  0
   -0.4070   -4.3571    0.7982 H   0  0  0  0  0  0  0  0  0  0  0  0
   -1.2057   -3.8308   -0.6933 H   0  0  0  0  0  0  0  0  0  0  0  0
    0.5602   -4.0039   -0.6440 H   0  0  0  0  0  0  0  0  0  0  0  0
  1  2  1  0  0  0  0
  1  3  1  0  0  0  0
  1  4  1  0  0  0  0
  1  5  1  0  0  0  0
  2  6  1  0  0  0  0
  2 12  1  0  0  0  0
  2 13  1  0  0  0  0
  3  7  1  0  0  0  0
  3 14  1  0  0  0  0
  3 15  1  0  0  0  0
  4  8  1  0  0  0  0
  4 16  1  0  0  0  0
  4 17  1  0  0  0  0
  5 18  1  0  0  0  0
  5 19  1  0  0  0  0
  5 20  1  0  0  0  0
  6  9  1  0  0  0  0
  6 21  1  0  0  0  0
  6 22  1  0  0  0  0
  7 10  1  0  0  0  0
  7 23  1  0  0  0  0
  7 24  1  0  0  0  0
  8 11  1  0  0  0  0
  8 25  1  0  0  0  0
  8 26  1  0  0  0  0
  9 27  1  0  0  0  0
  9 28  1  0  0  0  0
  9 29  1  0  0  0  0
 10 30  1  0  0  0  0
 10 31  1  0  0  0  0
 10 32  1  0  0  0  0
 11 33  1  0  0  0  0
 11 34  1  0  0  0  0
 11 35  1  0  0  0  0
M  END
> <PUBCHEM_COMPOUND_CID>
523228

> <PUBCHEM_CONFORMER_RMSD>
0.6

> <PUBCHEM_CONFORMER_DIVERSEORDER>
1
14
23
15
18
19
4
16
17
11
20
22
10
21
12
8
5
13
9
6
7
2
3

> <PUBCHEM_MMFF94_PARTIAL_CHARGES>
5
1 0.32
2 -0.08
3 -0.08
4 -0.08
5 -0.08

> <PUBCHEM_EFFECTIVE_ROTOR_COUNT>
6

> <PUBCHEM_PHARMACOPHORE_FEATURES>
3
1 10 hydrophobe
1 11 hydrophobe
1 9 hydrophobe

> <PUBCHEM_HEAVY_ATOM_COUNT>
11

> <PUBCHEM_ATOM_DEF_STEREO_COUNT>
0

> <PUBCHEM_ATOM_UDEF_STEREO_COUNT>
0

> <PUBCHEM_BOND_DEF_STEREO_COUNT>
0

> <PUBCHEM_BOND_UDEF_STEREO_COUNT>
0

> <PUBCHEM_ISOTOPIC_ATOM_COUNT>
0

> <PUBCHEM_COMPONENT_COUNT>
1

> <PUBCHEM_CACTVS_TAUTO_COUNT>
1

> <PUBCHEM_CONFORMER_ID>
0007FBDC00000001

> <PUBCHEM_MMFF94_ENERGY>
-5.041

> <PUBCHEM_FEATURE_SELFOVERLAP>
15.223

> <PUBCHEM_SHAPE_FINGERPRINT>
10219947 1 18187369804941034981
10756046 70 17677624222607419188
11322862 65 18411420622512435046
12119455 92 18188194429892519332
12423570 1 16243706862119230628
12932764 1 17896015759895568272
13380536 167 17611481009026468629
14817 1 10540060519988512831
14993402 34 18187644742745282972
15502708 68 18266739091026054859
15775835 57 18131350787006796193
18380122 1 17969501494250514213
19021347 4 18412266159559437179
201361 129 17985275070919753465
20711985 344 17545916035461388599
21061003 4 17547286709939210898
21524375 3 18131628967558967953
23419403 2 16840277901127492502
23532345 11 18122891295256803464
305870 269 18269276759816141833
3250762 1 17624966519057011913
528862 383 18264199206376092074
68419 9 17611208321500033260
7364860 26 18053951645411854699
81228 2 17977082875921246098
81539 233 18337671897743612813

> <PUBCHEM_SHAPE_MULTIPOLES>
244.59
5.2
3.02
1.26
0.84
4.87
0.52
-3.8
-2.58
-0.75
0.2
0.06
-0.58
-0.12

> <PUBCHEM_SHAPE_SELFOVERLAP>
419.574

> <PUBCHEM_SHAPE_VOLUME>
163.4

> <PUBCHEM_COORDINATE_TYPE>
2
5
10

$$$$
