136586
  -OEChem-11012400303D

 18 17  0     0  0  0  0  0  0999 V2000
    1.7642    0.3813   -0.0317 O   0  0  0  0  0  0  0  0  0  0  0  0
   -1.7787   -0.4091    0.1460 O   0  0  0  0  0  0  0  0  0  0  0  0
    0.6136   -0.4493    0.0662 C   0  0  0  0  0  0  0  0  0  0  0  0
   -0.6273    0.4226    0.0687 C   0  0  0  0  0  0  0  0  0  0  0  0
    2.9094   -0.3430   -0.0176 C   0  0  0  0  0  0  0  0  0  0  0  0
   -2.9223    0.3173    0.1732 C   0  0  0  0  0  0  0  0  0  0  0  0
    4.1395    0.1692   -0.0951 C   0  0  0  0  0  0  0  0  0  0  0  0
   -4.0984   -0.0891   -0.3097 C   0  0  0  0  0  0  0  0  0  0  0  0
    0.5691   -1.1460   -0.7817 H   0  0  0  0  0  0  0  0  0  0  0  0
    0.6422   -1.0438    0.9894 H   0  0  0  0  0  0  0  0  0  0  0  0
   -0.6555    1.0306   -0.8451 H   0  0  0  0  0  0  0  0  0  0  0  0
   -0.5828    1.1081    0.9258 H   0  0  0  0  0  0  0  0  0  0  0  0
    2.7750   -1.4140    0.0623 H   0  0  0  0  0  0  0  0  0  0  0  0
   -2.8253    1.2859    0.6460 H   0  0  0  0  0  0  0  0  0  0  0  0
    5.0095   -0.4776   -0.0783 H   0  0  0  0  0  0  0  0  0  0  0  0
    4.2954    1.2392   -0.1764 H   0  0  0  0  0  0  0  0  0  0  0  0
   -4.9727    0.5486   -0.2433 H   0  0  0  0  0  0  0  0  0  0  0  0
   -4.2047   -1.0615   -0.7774 H   0  0  0  0  0  0  0  0  0  0  0  0
  1  3  1  0  0  0  0
  1  5  1  0  0  0  0
  2  4  1  0  0  0  0
  2  6  1  0  0  0  0
  3  4  1  0  0  0  0
  3  9  1  0  0  0  0
  3 10  1  0  0  0  0
  4 11  1  0  0  0  0
  4 12  1  0  0  0  0
  5  7  2  0  0  0  0
  5 13  1  0  0  0  0
  6  8  2  0  0  0  0
  6 14  1  0  0  0  0
  7 15  1  0  0  0  0
  7 16  1  0  0  0  0
  8 17  1  0  0  0  0
  8 18  1  0  0  0  0
M  END
> <PUBCHEM_COMPOUND_CID>
136586

> <PUBCHEM_CONFORMER_RMSD>
0.6

> <PUBCHEM_CONFORMER_DIVERSEORDER>
2
13
30
25
22
6
21
16
18
15
3
23
12
7
26
20
1
29
4
28
8
5
24
10
14
9
17
11
27
19

> <PUBCHEM_MMFF94_PARTIAL_CHARGES>
14
1 -0.36
13 0.15
14 0.15
15 0.15
16 0.15
17 0.15
18 0.15
2 -0.36
3 0.28
4 0.28
5 -0.07
6 -0.07
7 -0.3
8 -0.3

> <PUBCHEM_EFFECTIVE_ROTOR_COUNT>
5

> <PUBCHEM_PHARMACOPHORE_FEATURES>
2
1 1 acceptor
1 2 acceptor

> <PUBCHEM_HEAVY_ATOM_COUNT>
8

> <PUBCHEM_ATOM_DEF_STEREO_COUNT>
0

> <PUBCHEM_ATOM_UDEF_STEREO_COUNT>
0

> <PUBCHEM_BOND_DEF_STEREO_COUNT>
0

> <PUBCHEM_BOND_UDEF_STEREO_COUNT>
0

> <PUBCHEM_ISOTOPIC_ATOM_COUNT>
0

> <PUBCHEM_COMPONENT_COUNT>
1

> <PUBCHEM_CACTVS_TAUTO_COUNT>
1

> <PUBCHEM_CONFORMER_ID>
0002158A00000002

> <PUBCHEM_MMFF94_ENERGY>
19.8645

> <PUBCHEM_FEATURE_SELFOVERLAP>
10.149

> <PUBCHEM_SHAPE_FINGERPRINT>
11062470 55 16515685541457505268
14325111 11 18412546487647738026
20719005 15 18410293614060567275
5460574 1 8934999265373163290

> <PUBCHEM_SHAPE_MULTIPOLES>
152.9
8.16
0.71
0.61
0.2
0
0.01
-0.13
0.67
0.02
-0.01
-0.06
0
-0.05

> <PUBCHEM_SHAPE_SELFOVERLAP>
274.899

> <PUBCHEM_SHAPE_VOLUME>
98.7

> <PUBCHEM_COORDINATE_TYPE>
2
5
10

$$$$
