145090
  -OEChem-11012400413D

 28 27  0     0  0  0  0  0  0999 V2000
    1.4179   -2.4572    0.0706 N   0  0  0  0  0  0  0  0  0  0  0  0
    1.8571    1.4327   -1.8022 N   0  0  0  0  0  0  0  0  0  0  0  0
   -0.6459    0.4287    0.5042 C   0  0  0  0  0  0  0  0  0  0  0  0
   -1.5412   -0.0740   -0.7220 C   0  0  0  0  0  0  0  0  0  0  0  0
    0.9293    0.1350    0.3117 C   0  0  0  0  0  0  0  0  0  0  0  0
   -0.8645    1.9658    0.6470 C   0  0  0  0  0  0  0  0  0  0  0  0
   -1.1579   -0.1984    1.8301 C   0  0  0  0  0  0  0  0  0  0  0  0
   -3.0528    0.1797   -0.5529 C   0  0  0  0  0  0  0  0  0  0  0  0
   -1.3740   -1.5537   -1.0981 C   0  0  0  0  0  0  0  0  0  0  0  0
    1.7899    0.5997    1.5184 C   0  0  0  0  0  0  0  0  0  0  0  0
    1.1946   -1.3222    0.1701 C   0  0  0  0  0  0  0  0  0  0  0  0
    1.4474    0.8638   -0.8769 C   0  0  0  0  0  0  0  0  0  0  0  0
   -1.2392    0.5069   -1.6044 H   0  0  0  0  0  0  0  0  0  0  0  0
   -0.6473    2.4963   -0.2858 H   0  0  0  0  0  0  0  0  0  0  0  0
   -1.8958    2.2052    0.9258 H   0  0  0  0  0  0  0  0  0  0  0  0
   -0.2448    2.4005    1.4360 H   0  0  0  0  0  0  0  0  0  0  0  0
   -1.0330   -1.2849    1.8450 H   0  0  0  0  0  0  0  0  0  0  0  0
   -2.2180    0.0146    1.9995 H   0  0  0  0  0  0  0  0  0  0  0  0
   -0.6332    0.2096    2.6998 H   0  0  0  0  0  0  0  0  0  0  0  0
   -3.4831   -0.4316    0.2460 H   0  0  0  0  0  0  0  0  0  0  0  0
   -3.5859   -0.0762   -1.4764 H   0  0  0  0  0  0  0  0  0  0  0  0
   -3.2784    1.2294   -0.3523 H   0  0  0  0  0  0  0  0  0  0  0  0
   -1.4232   -2.2153   -0.2295 H   0  0  0  0  0  0  0  0  0  0  0  0
   -0.4536   -1.7217   -1.6618 H   0  0  0  0  0  0  0  0  0  0  0  0
   -2.1746   -1.8710   -1.7781 H   0  0  0  0  0  0  0  0  0  0  0  0
    2.8540    0.3864    1.3437 H   0  0  0  0  0  0  0  0  0  0  0  0
    1.5234    0.0799    2.4445 H   0  0  0  0  0  0  0  0  0  0  0  0
    1.7228    1.6775    1.6945 H   0  0  0  0  0  0  0  0  0  0  0  0
  1 11  3  0  0  0  0
  2 12  3  0  0  0  0
  3  4  1  0  0  0  0
  3  5  1  0  0  0  0
  3  6  1  0  0  0  0
  3  7  1  0  0  0  0
  4  8  1  0  0  0  0
  4  9  1  0  0  0  0
  4 13  1  0  0  0  0
  5 10  1  0  0  0  0
  5 11  1  0  0  0  0
  5 12  1  0  0  0  0
  6 14  1  0  0  0  0
  6 15  1  0  0  0  0
  6 16  1  0  0  0  0
  7 17  1  0  0  0  0
  7 18  1  0  0  0  0
  7 19  1  0  0  0  0
  8 20  1  0  0  0  0
  8 21  1  0  0  0  0
  8 22  1  0  0  0  0
  9 23  1  0  0  0  0
  9 24  1  0  0  0  0
  9 25  1  0  0  0  0
 10 26  1  0  0  0  0
 10 27  1  0  0  0  0
 10 28  1  0  0  0  0
M  END
> <PUBCHEM_COMPOUND_CID>
145090

> <PUBCHEM_CONFORMER_RMSD>
0.6

> <PUBCHEM_CONFORMER_DIVERSEORDER>
1
4
2
3
6
5

> <PUBCHEM_MMFF94_PARTIAL_CHARGES>
5
1 -0.56
11 0.36
12 0.36
2 -0.56
5 0.4

> <PUBCHEM_EFFECTIVE_ROTOR_COUNT>
2

> <PUBCHEM_PHARMACOPHORE_FEATURES>
5
1 1 acceptor
1 10 hydrophobe
1 2 acceptor
3 3 6 7 hydrophobe
3 4 8 9 hydrophobe

> <PUBCHEM_HEAVY_ATOM_COUNT>
12

> <PUBCHEM_ATOM_DEF_STEREO_COUNT>
0

> <PUBCHEM_ATOM_UDEF_STEREO_COUNT>
0

> <PUBCHEM_BOND_DEF_STEREO_COUNT>
0

> <PUBCHEM_BOND_UDEF_STEREO_COUNT>
0

> <PUBCHEM_ISOTOPIC_ATOM_COUNT>
0

> <PUBCHEM_COMPONENT_COUNT>
1

> <PUBCHEM_CACTVS_TAUTO_COUNT>
1

> <PUBCHEM_CONFORMER_ID>
000236C200000001

> <PUBCHEM_MMFF94_ENERGY>
40.1762

> <PUBCHEM_FEATURE_SELFOVERLAP>
25.406

> <PUBCHEM_SHAPE_FINGERPRINT>
12326174 3 17530680987761836128
12423570 1 13169691278431092329
13024252 1 17261931904712935660
14128692 85 18128810859127455430
14817 1 16976703298389438142
15557651 10 17627274205074608856
16945 1 17983543408693354018
18185500 45 18200579384786648687
20082192 1 17604161371025660889
20511035 2 17979654341481794913
20711985 344 17274837808985777193
21922407 69 18337123327119119925
22344851 262 18264184998523822460
23211744 25 17836082647299778229
23235687 12 17604412090047506767
23419403 2 16254114877926931275
23552423 10 18336825286717396727
241688 4 17611172767755377920
24536 1 18041571255788230568
4369600 1 18198061593242630588
5084963 1 18117839889435297881
68250623 7 17903110796169353713

> <PUBCHEM_SHAPE_MULTIPOLES>
236.99
3.02
1.96
1.61
1.3
0.73
-0.04
-0.02
-0.6
-0.41
0
-0.49
-0.42
-0.56

> <PUBCHEM_SHAPE_SELFOVERLAP>
454.344

> <PUBCHEM_SHAPE_VOLUME>
144.4

> <PUBCHEM_COORDINATE_TYPE>
2
5
10

$$$$
