73937
  -OEChem-11012400593D

 22 22  0     0  0  0  0  0  0999 V2000
   -1.4921   -1.2452   -0.3701 C   0  0  0  0  0  0  0  0  0  0  0  0
   -0.0947   -1.2757    0.2546 C   0  0  0  0  0  0  0  0  0  0  0  0
   -2.2867   -0.0381    0.1136 C   0  0  0  0  0  0  0  0  0  0  0  0
    0.5851    0.0709    0.2794 C   0  0  0  0  0  0  0  0  0  0  0  0
   -1.5630    1.2661   -0.2224 C   0  0  0  0  0  0  0  0  0  0  0  0
   -0.0879    1.2111    0.0466 C   0  0  0  0  0  0  0  0  0  0  0  0
    2.0547    0.0641    0.5807 C   0  0  0  0  0  0  0  0  0  0  0  0
    2.8846   -0.0533   -0.6825 C   0  0  0  0  0  0  0  0  0  0  0  0
   -1.4043   -1.2083   -1.4636 H   0  0  0  0  0  0  0  0  0  0  0  0
   -2.0256   -2.1706   -0.1252 H   0  0  0  0  0  0  0  0  0  0  0  0
    0.5156   -1.9960   -0.3026 H   0  0  0  0  0  0  0  0  0  0  0  0
   -0.1670   -1.6453    1.2852 H   0  0  0  0  0  0  0  0  0  0  0  0
   -2.4315   -0.1095    1.1992 H   0  0  0  0  0  0  0  0  0  0  0  0
   -3.2838   -0.0350   -0.3408 H   0  0  0  0  0  0  0  0  0  0  0  0
   -2.0085    2.0806    0.3601 H   0  0  0  0  0  0  0  0  0  0  0  0
   -1.7115    1.5103   -1.2810 H   0  0  0  0  0  0  0  0  0  0  0  0
    0.4416    2.1603    0.0520 H   0  0  0  0  0  0  0  0  0  0  0  0
    2.3353    0.9864    1.1050 H   0  0  0  0  0  0  0  0  0  0  0  0
    2.2952   -0.7561    1.2677 H   0  0  0  0  0  0  0  0  0  0  0  0
    3.9510   -0.0501   -0.4346 H   0  0  0  0  0  0  0  0  0  0  0  0
    2.6969    0.7835   -1.3640 H   0  0  0  0  0  0  0  0  0  0  0  0
    2.6686   -0.9834   -1.2188 H   0  0  0  0  0  0  0  0  0  0  0  0
  1  2  1  0  0  0  0
  1  3  1  0  0  0  0
  1  9  1  0  0  0  0
  1 10  1  0  0  0  0
  2  4  1  0  0  0  0
  2 11  1  0  0  0  0
  2 12  1  0  0  0  0
  3  5  1  0  0  0  0
  3 13  1  0  0  0  0
  3 14  1  0  0  0  0
  4  6  2  0  0  0  0
  4  7  1  0  0  0  0
  5  6  1  0  0  0  0
  5 15  1  0  0  0  0
  5 16  1  0  0  0  0
  6 17  1  0  0  0  0
  7  8  1  0  0  0  0
  7 18  1  0  0  0  0
  7 19  1  0  0  0  0
  8 20  1  0  0  0  0
  8 21  1  0  0  0  0
  8 22  1  0  0  0  0
M  END
> <PUBCHEM_COMPOUND_CID>
73937

> <PUBCHEM_CONFORMER_RMSD>
0.4

> <PUBCHEM_CONFORMER_DIVERSEORDER>
1
2

> <PUBCHEM_MMFF94_PARTIAL_CHARGES>
6
17 0.15
2 0.14
4 -0.28
5 0.14
6 -0.29
7 0.14

> <PUBCHEM_EFFECTIVE_ROTOR_COUNT>
1.8

> <PUBCHEM_PHARMACOPHORE_FEATURES>
2
1 8 hydrophobe
6 1 2 3 4 5 6 rings

> <PUBCHEM_HEAVY_ATOM_COUNT>
8

> <PUBCHEM_ATOM_DEF_STEREO_COUNT>
0

> <PUBCHEM_ATOM_UDEF_STEREO_COUNT>
0

> <PUBCHEM_BOND_DEF_STEREO_COUNT>
0

> <PUBCHEM_BOND_UDEF_STEREO_COUNT>
0

> <PUBCHEM_ISOTOPIC_ATOM_COUNT>
0

> <PUBCHEM_COMPONENT_COUNT>
1

> <PUBCHEM_CACTVS_TAUTO_COUNT>
1

> <PUBCHEM_CONFORMER_ID>
000120D100000001

> <PUBCHEM_MMFF94_ENERGY>
-2.2756

> <PUBCHEM_FEATURE_SELFOVERLAP>
10.148

> <PUBCHEM_SHAPE_FINGERPRINT>
12716758 59 18341894048185142962
12897270 3 18410573989715463436
15310529 11 16732976518338503121
16714656 1 18410294713514068861
18185500 45 18262508290573112107
20645464 45 17916849301379842632
21040471 1 18266730286295677273
23235685 24 18339077095094675169
23552423 10 18261672687674552654
2748010 2 18049714419566335919
29004967 10 16487255482494233042
5084963 1 18272369784476754305

> <PUBCHEM_SHAPE_MULTIPOLES>
164.64
3.47
1.4
0.76
1.72
0.03
0.02
0
0.49
-0.64
0.06
0.22
0.02
0

> <PUBCHEM_SHAPE_SELFOVERLAP>
316.428

> <PUBCHEM_SHAPE_VOLUME>
99.2

> <PUBCHEM_COORDINATE_TYPE>
2
5
10

$$$$
