61812
  -OEChem-11012400333D

 29 28  0     1  0  0  0  0  0999 V2000
    0.1480    0.1018    0.3150 O   0  0  0  0  0  0  0  0  0  0  0  0
   -1.1082    0.8028   -1.4886 O   0  0  0  0  0  0  0  0  0  0  0  0
   -2.1864    0.2425    0.6189 C   0  0  1  0  0  0  0  0  0  0  0  0
   -3.1940   -0.7859    0.0846 C   0  0  0  0  0  0  0  0  0  0  0  0
    2.5369   -0.1389    0.4013 C   0  0  0  0  0  0  0  0  0  0  0  0
    1.3426    0.2484   -0.4592 C   0  0  0  0  0  0  0  0  0  0  0  0
   -1.0134    0.4161   -0.3308 C   0  0  0  0  0  0  0  0  0  0  0  0
   -2.8487    1.6029    0.8184 C   0  0  0  0  0  0  0  0  0  0  0  0
    3.8514    0.0096   -0.3596 C   0  0  0  0  0  0  0  0  0  0  0  0
   -2.5728   -2.1624   -0.1168 C   0  0  0  0  0  0  0  0  0  0  0  0
    5.0445   -0.3368    0.5166 C   0  0  0  0  0  0  0  0  0  0  0  0
   -1.8118   -0.1031    1.5909 H   0  0  0  0  0  0  0  0  0  0  0  0
   -4.0316   -0.8744    0.7867 H   0  0  0  0  0  0  0  0  0  0  0  0
   -3.6113   -0.4469   -0.8716 H   0  0  0  0  0  0  0  0  0  0  0  0
    2.4143   -1.1714    0.7515 H   0  0  0  0  0  0  0  0  0  0  0  0
    2.5483    0.4840    1.3045 H   0  0  0  0  0  0  0  0  0  0  0  0
    1.4351    1.2909   -0.7855 H   0  0  0  0  0  0  0  0  0  0  0  0
    1.2855   -0.4026   -1.3394 H   0  0  0  0  0  0  0  0  0  0  0  0
   -3.2587    1.9918   -0.1204 H   0  0  0  0  0  0  0  0  0  0  0  0
   -3.6663    1.5350    1.5436 H   0  0  0  0  0  0  0  0  0  0  0  0
   -2.1256    2.3367    1.1909 H   0  0  0  0  0  0  0  0  0  0  0  0
    3.9593    1.0392   -0.7200 H   0  0  0  0  0  0  0  0  0  0  0  0
    3.8479   -0.6437   -1.2398 H   0  0  0  0  0  0  0  0  0  0  0  0
   -1.7953   -2.1454   -0.8865 H   0  0  0  0  0  0  0  0  0  0  0  0
   -3.3394   -2.8766   -0.4345 H   0  0  0  0  0  0  0  0  0  0  0  0
   -2.1305   -2.5324    0.8137 H   0  0  0  0  0  0  0  0  0  0  0  0
    5.0956    0.3227    1.3888 H   0  0  0  0  0  0  0  0  0  0  0  0
    4.9840   -1.3710    0.8707 H   0  0  0  0  0  0  0  0  0  0  0  0
    5.9750   -0.2252   -0.0486 H   0  0  0  0  0  0  0  0  0  0  0  0
  1  6  1  0  0  0  0
  1  7  1  0  0  0  0
  2  7  2  0  0  0  0
  3  4  1  0  0  0  0
  3  7  1  0  0  0  0
  3  8  1  0  0  0  0
  3 12  1  0  0  0  0
  4 10  1  0  0  0  0
  4 13  1  0  0  0  0
  4 14  1  0  0  0  0
  5  6  1  0  0  0  0
  5  9  1  0  0  0  0
  5 15  1  0  0  0  0
  5 16  1  0  0  0  0
  6 17  1  0  0  0  0
  6 18  1  0  0  0  0
  8 19  1  0  0  0  0
  8 20  1  0  0  0  0
  8 21  1  0  0  0  0
  9 11  1  0  0  0  0
  9 22  1  0  0  0  0
  9 23  1  0  0  0  0
 10 24  1  0  0  0  0
 10 25  1  0  0  0  0
 10 26  1  0  0  0  0
 11 27  1  0  0  0  0
 11 28  1  0  0  0  0
 11 29  1  0  0  0  0
M  END
> <PUBCHEM_COMPOUND_CID>
61812

> <PUBCHEM_CONFORMER_RMSD>
0.8

> <PUBCHEM_CONFORMER_DIVERSEORDER>
1
388
241
555
39
441
630
36
608
407
33
434
32
316
14
26
523
515
247
369
590
263
430
31
655
422
334
100
69
339
102
469
616
21
248
663
673
29
273
372
534
306
38
154
569
676
155
60
403
4
311
295
168
196
447
45
188
255
387
346
59
17
105
545
528
11
30
2
384
225
578
212
209
191
22
25
264
540
64
379
583
98
133
9
3
127
276
323
104
473
386
179
101
508
327
275
391
83
645
201
507
13
330
402
307
66
8
162
197
494
648
450
7
573

> <PUBCHEM_MMFF94_PARTIAL_CHARGES>
5
1 -0.43
2 -0.57
3 0.06
6 0.28
7 0.66

> <PUBCHEM_EFFECTIVE_ROTOR_COUNT>
6

> <PUBCHEM_PHARMACOPHORE_FEATURES>
4
1 10 hydrophobe
1 11 hydrophobe
1 2 acceptor
1 8 hydrophobe

> <PUBCHEM_HEAVY_ATOM_COUNT>
11

> <PUBCHEM_ATOM_DEF_STEREO_COUNT>
0

> <PUBCHEM_ATOM_UDEF_STEREO_COUNT>
1

> <PUBCHEM_BOND_DEF_STEREO_COUNT>
0

> <PUBCHEM_BOND_UDEF_STEREO_COUNT>
0

> <PUBCHEM_ISOTOPIC_ATOM_COUNT>
0

> <PUBCHEM_COMPONENT_COUNT>
1

> <PUBCHEM_CACTVS_TAUTO_COUNT>
1

> <PUBCHEM_CONFORMER_ID>
0000F17400000001

> <PUBCHEM_MMFF94_ENERGY>
4.3829

> <PUBCHEM_FEATURE_SELFOVERLAP>
20.297

> <PUBCHEM_SHAPE_FINGERPRINT>
10680689 15 17822010878834435412
11062470 55 9727635003593864122
124424 183 17274820212409677184
12500047 106 18342454790398799729
12932764 1 17894905213984806896
13024252 1 14923944535928010445
13214271 11 17989485208295434764
17834074 16 18343025480163363518
190213 19 17632300060235695240
200 152 16805598187811789494
20211469 26 18411132580287797727
20279233 1 17703796902895077678
20645464 45 17489877024580831191
20645477 56 18270408187356632417
20645477 70 14852151906933315464
20653085 51 8645951995422096647
20828058 21 18060424620936165468
20828058 44 18412826876451397082
22485316 2 18335417954973310058
23380061 127 18342737416426706696
23402539 116 18202842146153399933
3086196 2 18271810172145659451
57265010 4 18343867705695161099

> <PUBCHEM_SHAPE_MULTIPOLES>
214.64
8.28
1.44
0.94
10.79
0.5
0.19
1.29
-1.61
-2.11
-0.13
-0.13
-0.2
-0.33

> <PUBCHEM_SHAPE_SELFOVERLAP>
391.771

> <PUBCHEM_SHAPE_VOLUME>
137.8

> <PUBCHEM_COORDINATE_TYPE>
2
5
10

$$$$
