143208
  -OEChem-11012401013D

 40 41  0     1  0  0  0  0  0999 V2000
   -0.8991   -0.2101    0.0816 C   0  0  2  0  0  0  0  0  0  0  0  0
    1.5872   -0.2549   -0.3470 C   0  0  0  0  0  0  0  0  0  0  0  0
    0.2955   -1.0700   -0.3272 C   0  0  0  0  0  0  0  0  0  0  0  0
   -2.1664   -1.0680    0.2078 C   0  0  0  0  0  0  0  0  0  0  0  0
   -1.1109    0.9330   -0.9190 C   0  0  0  0  0  0  0  0  0  0  0  0
   -3.3921   -0.2199    0.5768 C   0  0  1  0  0  0  0  0  0  0  0  0
    1.8692    0.3474    1.0361 C   0  0  0  0  0  0  0  0  0  0  0  0
    2.7656   -1.1180   -0.8176 C   0  0  0  0  0  0  0  0  0  0  0  0
   -2.3298    1.7775   -0.5582 C   0  0  0  0  0  0  0  0  0  0  0  0
   -3.5878    0.9236   -0.4266 C   0  0  0  0  0  0  0  0  0  0  0  0
    3.1840    1.1235    1.0555 C   0  0  0  0  0  0  0  0  0  0  0  0
    4.0791   -0.3396   -0.7949 C   0  0  0  0  0  0  0  0  0  0  0  0
    4.3514    0.2649    0.5790 C   0  0  0  0  0  0  0  0  0  0  0  0
   -4.6458   -1.0895    0.6538 C   0  0  0  0  0  0  0  0  0  0  0  0
   -0.7373    0.2177    1.0767 H   0  0  0  0  0  0  0  0  0  0  0  0
    1.5063    0.5605   -1.0744 H   0  0  0  0  0  0  0  0  0  0  0  0
    0.1195   -1.5075   -1.3184 H   0  0  0  0  0  0  0  0  0  0  0  0
    0.3989   -1.9109    0.3708 H   0  0  0  0  0  0  0  0  0  0  0  0
   -2.0130   -1.8407    0.9718 H   0  0  0  0  0  0  0  0  0  0  0  0
   -2.3524   -1.5929   -0.7388 H   0  0  0  0  0  0  0  0  0  0  0  0
   -1.2347    0.5300   -1.9321 H   0  0  0  0  0  0  0  0  0  0  0  0
   -0.2533    1.6115   -0.9427 H   0  0  0  0  0  0  0  0  0  0  0  0
   -3.2244    0.2166    1.5706 H   0  0  0  0  0  0  0  0  0  0  0  0
    1.9029   -0.4452    1.7941 H   0  0  0  0  0  0  0  0  0  0  0  0
    1.0896    1.0529    1.3367 H   0  0  0  0  0  0  0  0  0  0  0  0
    2.5802   -1.4832   -1.8349 H   0  0  0  0  0  0  0  0  0  0  0  0
    2.8606   -2.0027   -0.1750 H   0  0  0  0  0  0  0  0  0  0  0  0
   -2.4858    2.5454   -1.3245 H   0  0  0  0  0  0  0  0  0  0  0  0
   -2.1445    2.3030    0.3869 H   0  0  0  0  0  0  0  0  0  0  0  0
   -4.4243    1.5587   -0.1116 H   0  0  0  0  0  0  0  0  0  0  0  0
   -3.8516    0.5160   -1.4111 H   0  0  0  0  0  0  0  0  0  0  0  0
    3.3839    1.4853    2.0705 H   0  0  0  0  0  0  0  0  0  0  0  0
    3.0957    2.0083    0.4128 H   0  0  0  0  0  0  0  0  0  0  0  0
    4.0426    0.4599   -1.5451 H   0  0  0  0  0  0  0  0  0  0  0  0
    4.9049   -1.0030   -1.0757 H   0  0  0  0  0  0  0  0  0  0  0  0
    5.2638    0.8706    0.5413 H   0  0  0  0  0  0  0  0  0  0  0  0
    4.5314   -0.5399    1.3024 H   0  0  0  0  0  0  0  0  0  0  0  0
   -4.5204   -1.8867    1.3941 H   0  0  0  0  0  0  0  0  0  0  0  0
   -5.5149   -0.4922    0.9489 H   0  0  0  0  0  0  0  0  0  0  0  0
   -4.8675   -1.5560   -0.3121 H   0  0  0  0  0  0  0  0  0  0  0  0
  1  3  1  0  0  0  0
  1  4  1  0  0  0  0
  1  5  1  0  0  0  0
  1 15  1  0  0  0  0
  2  3  1  0  0  0  0
  2  7  1  0  0  0  0
  2  8  1  0  0  0  0
  2 16  1  0  0  0  0
  3 17  1  0  0  0  0
  3 18  1  0  0  0  0
  4  6  1  0  0  0  0
  4 19  1  0  0  0  0
  4 20  1  0  0  0  0
  5  9  1  0  0  0  0
  5 21  1  0  0  0  0
  5 22  1  0  0  0  0
  6 10  1  0  0  0  0
  6 14  1  0  0  0  0
  6 23  1  0  0  0  0
  7 11  1  0  0  0  0
  7 24  1  0  0  0  0
  7 25  1  0  0  0  0
  8 12  1  0  0  0  0
  8 26  1  0  0  0  0
  8 27  1  0  0  0  0
  9 10  1  0  0  0  0
  9 28  1  0  0  0  0
  9 29  1  0  0  0  0
 10 30  1  0  0  0  0
 10 31  1  0  0  0  0
 11 13  1  0  0  0  0
 11 32  1  0  0  0  0
 11 33  1  0  0  0  0
 12 13  1  0  0  0  0
 12 34  1  0  0  0  0
 12 35  1  0  0  0  0
 13 36  1  0  0  0  0
 13 37  1  0  0  0  0
 14 38  1  0  0  0  0
 14 39  1  0  0  0  0
 14 40  1  0  0  0  0
M  END
> <PUBCHEM_COMPOUND_CID>
143208

> <PUBCHEM_CONFORMER_RMSD>
0.6

> <PUBCHEM_CONFORMER_DIVERSEORDER>
5
27
6
11
20
17
22
25
19
16
26
12
8
13
18
7
4
15
23
2
9
10
24
1
14
3
21

> <PUBCHEM_MMFF94_PARTIAL_CHARGES>
0

> <PUBCHEM_EFFECTIVE_ROTOR_COUNT>
4.4

> <PUBCHEM_PHARMACOPHORE_FEATURES>
2
6 1 4 5 6 9 10 rings
6 2 7 8 11 12 13 rings

> <PUBCHEM_HEAVY_ATOM_COUNT>
14

> <PUBCHEM_ATOM_DEF_STEREO_COUNT>
0

> <PUBCHEM_ATOM_UDEF_STEREO_COUNT>
2

> <PUBCHEM_BOND_DEF_STEREO_COUNT>
0

> <PUBCHEM_BOND_UDEF_STEREO_COUNT>
0

> <PUBCHEM_ISOTOPIC_ATOM_COUNT>
0

> <PUBCHEM_COMPONENT_COUNT>
1

> <PUBCHEM_CACTVS_TAUTO_COUNT>
1

> <PUBCHEM_CONFORMER_ID>
00022F6800000005

> <PUBCHEM_MMFF94_ENERGY>
14.1786

> <PUBCHEM_FEATURE_SELFOVERLAP>
10.149

> <PUBCHEM_SHAPE_FINGERPRINT>
10608611 8 18341889662854968996
11132069 177 18260268525558542165
11471102 20 17704070690423549770
11615757 297 17346878944413354883
12236239 1 16370725932820428666
12932764 1 18343294855831852054
13081056 2 18343584057565322552
13214271 11 18409162204238133469
13581323 91 17967811652194548514
14144814 61 16370727015178509078
14943859 89 13614525164367249599
15219456 202 18271805700720525574
15309172 13 17775566433571518975
15653759 3 18408603656177829880
17844478 74 18341895181771802433
18175812 5 18343022194270197879
18186145 218 17489586757922253134
19026448 4 18342177734795691583
1986462 14 18334577910477186415
200 152 16988555793144685957
20279233 1 18413105048065468142
20510252 161 18410294679571315497
20645477 56 18200583796076647360
20645477 70 17561091272095158286
20828058 21 18186803573669139494
22182937 141 18056766420944153353
22854114 59 18273214209464947467
23402539 116 18187358866086580519
23402655 69 17203608164367538064
23532345 42 18260267477475667589
23557571 272 18336838519706600365
23559900 14 18189055300431769550
3268164 11 18187074058098859815
42 15 17894905192641871946
43471831 8 17822287938437677427
449060 50 18131070480076300896
474 4 15696282275281134394
5104073 3 18337391530620539011
573450 72 17240193314127653969
6049 1 18342458106039926428
633830 44 16630256839204889078
69090 78 18131347535690335431
74978 22 14620214399687648078
77492 1 16298108670220938966

> <PUBCHEM_SHAPE_MULTIPOLES>
288.11
9.02
1.43
1.06
0.28
0.25
0.06
-0.42
1.22
-0.76
-0.14
0.44
0.11
1.28

> <PUBCHEM_SHAPE_SELFOVERLAP>
569.214

> <PUBCHEM_SHAPE_VOLUME>
168.1

> <PUBCHEM_COORDINATE_TYPE>
2
5
10

$$$$
