136525
  -OEChem-11012400373D

 23 23  0     1  0  0  0  0  0999 V2000
   -0.1908    0.9770    0.2308 O   0  0  0  0  0  0  0  0  0  0  0  0
    0.9960   -1.0951    0.4407 O   0  0  0  0  0  0  0  0  0  0  0  0
    1.0370    0.2707    0.0056 C   0  0  0  0  0  0  0  0  0  0  0  0
   -1.3379    0.3253   -0.3176 C   0  0  1  0  0  0  0  0  0  0  0  0
   -1.4077   -1.1104    0.1981 C   0  0  0  0  0  0  0  0  0  0  0  0
   -0.1006   -1.8301   -0.0953 C   0  0  0  0  0  0  0  0  0  0  0  0
    2.0770    0.9570    0.8958 C   0  0  0  0  0  0  0  0  0  0  0  0
    1.4958    0.3849   -1.4529 C   0  0  0  0  0  0  0  0  0  0  0  0
   -2.5688    1.1208    0.0948 C   0  0  0  0  0  0  0  0  0  0  0  0
   -1.2724    0.3368   -1.4113 H   0  0  0  0  0  0  0  0  0  0  0  0
   -2.2522   -1.6487   -0.2446 H   0  0  0  0  0  0  0  0  0  0  0  0
   -1.5492   -1.0917    1.2864 H   0  0  0  0  0  0  0  0  0  0  0  0
   -0.1028   -2.8180    0.3763 H   0  0  0  0  0  0  0  0  0  0  0  0
    0.0418   -1.9850   -1.1699 H   0  0  0  0  0  0  0  0  0  0  0  0
    3.0580    0.4772    0.8101 H   0  0  0  0  0  0  0  0  0  0  0  0
    2.1741    2.0206    0.6525 H   0  0  0  0  0  0  0  0  0  0  0  0
    1.7783    0.8936    1.9491 H   0  0  0  0  0  0  0  0  0  0  0  0
    1.5720    1.4337   -1.7594 H   0  0  0  0  0  0  0  0  0  0  0  0
    2.4651   -0.1041   -1.5987 H   0  0  0  0  0  0  0  0  0  0  0  0
    0.7974   -0.0941   -2.1454 H   0  0  0  0  0  0  0  0  0  0  0  0
   -2.4979    2.1500   -0.2737 H   0  0  0  0  0  0  0  0  0  0  0  0
   -3.4843    0.6707   -0.3008 H   0  0  0  0  0  0  0  0  0  0  0  0
   -2.6499    1.1835    1.1857 H   0  0  0  0  0  0  0  0  0  0  0  0
  1  3  1  0  0  0  0
  1  4  1  0  0  0  0
  2  3  1  0  0  0  0
  2  6  1  0  0  0  0
  3  7  1  0  0  0  0
  3  8  1  0  0  0  0
  4  5  1  0  0  0  0
  4  9  1  0  0  0  0
  4 10  1  0  0  0  0
  5  6  1  0  0  0  0
  5 11  1  0  0  0  0
  5 12  1  0  0  0  0
  6 13  1  0  0  0  0
  6 14  1  0  0  0  0
  7 15  1  0  0  0  0
  7 16  1  0  0  0  0
  7 17  1  0  0  0  0
  8 18  1  0  0  0  0
  8 19  1  0  0  0  0
  8 20  1  0  0  0  0
  9 21  1  0  0  0  0
  9 22  1  0  0  0  0
  9 23  1  0  0  0  0
M  END
> <PUBCHEM_COMPOUND_CID>
136525

> <PUBCHEM_CONFORMER_RMSD>
0.4

> <PUBCHEM_CONFORMER_DIVERSEORDER>
1
2
4
3

> <PUBCHEM_MMFF94_PARTIAL_CHARGES>
5
1 -0.56
2 -0.56
3 0.56
4 0.28
6 0.28

> <PUBCHEM_EFFECTIVE_ROTOR_COUNT>
1.2

> <PUBCHEM_PHARMACOPHORE_FEATURES>
4
1 1 acceptor
1 2 acceptor
3 3 7 8 hydrophobe
6 1 2 3 4 5 6 rings

> <PUBCHEM_HEAVY_ATOM_COUNT>
9

> <PUBCHEM_ATOM_DEF_STEREO_COUNT>
0

> <PUBCHEM_ATOM_UDEF_STEREO_COUNT>
1

> <PUBCHEM_BOND_DEF_STEREO_COUNT>
0

> <PUBCHEM_BOND_UDEF_STEREO_COUNT>
0

> <PUBCHEM_ISOTOPIC_ATOM_COUNT>
0

> <PUBCHEM_COMPONENT_COUNT>
1

> <PUBCHEM_CACTVS_TAUTO_COUNT>
1

> <PUBCHEM_CONFORMER_ID>
0002154D00000001

> <PUBCHEM_MMFF94_ENERGY>
18.9388

> <PUBCHEM_FEATURE_SELFOVERLAP>
20.329

> <PUBCHEM_SHAPE_FINGERPRINT>
12423570 1 17749379326372492596
13839132 238 18271528709869396764
16945 1 18194402431472335919
18185500 45 17827068825110559970
20653085 51 17317368125723530604
21040471 1 18409169913219067799
21922407 69 15792296041117345641
23211744 41 17773305945023098048
23235685 24 18334017163836908125
23552423 10 18114183055411008538
241688 4 16826154330708210027
24536 1 17748827444613070475
29004967 10 14924763697559995952
5084963 1 18040998406066950003

> <PUBCHEM_SHAPE_MULTIPOLES>
173.48
2.82
1.62
0.98
0.67
0.6
-0.26
-1.22
0.18
0.39
0.16
-0.57
-0.14
0.11

> <PUBCHEM_SHAPE_SELFOVERLAP>
335.652

> <PUBCHEM_SHAPE_VOLUME>
107.1

> <PUBCHEM_COORDINATE_TYPE>
2
5
10

$$$$
