136800
  -OEChem-11012401033D

 18 19  0     0  0  0  0  0  0999 V2000
    1.6753   -1.0339    0.0003 O   0  0  0  0  0  0  0  0  0  0  0  0
    3.0451   -0.8003    0.0010 N   0  0  0  0  0  0  0  0  0  0  0  0
   -0.4139    0.0732   -0.0003 C   0  0  0  0  0  0  0  0  0  0  0  0
    1.0266    0.1545   -0.0008 C   0  0  0  0  0  0  0  0  0  0  0  0
   -1.1782    1.2400    0.0005 C   0  0  0  0  0  0  0  0  0  0  0  0
   -1.0422   -1.1721   -0.0005 C   0  0  0  0  0  0  0  0  0  0  0  0
    1.9237    1.1819   -0.0010 C   0  0  0  0  0  0  0  0  0  0  0  0
   -2.5709    1.1614    0.0007 C   0  0  0  0  0  0  0  0  0  0  0  0
   -2.4349   -1.2506   -0.0003 C   0  0  0  0  0  0  0  0  0  0  0  0
   -3.1993   -0.0839    0.0002 C   0  0  0  0  0  0  0  0  0  0  0  0
    3.1689    0.5299    0.0002 C   0  0  0  0  0  0  0  0  0  0  0  0
   -0.7175    2.2243    0.0008 H   0  0  0  0  0  0  0  0  0  0  0  0
   -0.4816   -2.1033   -0.0011 H   0  0  0  0  0  0  0  0  0  0  0  0
    1.7286    2.2440   -0.0016 H   0  0  0  0  0  0  0  0  0  0  0  0
   -3.1664    2.0698    0.0011 H   0  0  0  0  0  0  0  0  0  0  0  0
   -2.9247   -2.2201   -0.0007 H   0  0  0  0  0  0  0  0  0  0  0  0
   -4.2837   -0.1450    0.0003 H   0  0  0  0  0  0  0  0  0  0  0  0
    4.1583    0.9632    0.0006 H   0  0  0  0  0  0  0  0  0  0  0  0
  1  2  1  0  0  0  0
  1  4  1  0  0  0  0
  2 11  2  0  0  0  0
  3  4  1  0  0  0  0
  3  5  2  0  0  0  0
  3  6  1  0  0  0  0
  4  7  2  0  0  0  0
  5  8  1  0  0  0  0
  5 12  1  0  0  0  0
  6  9  2  0  0  0  0
  6 13  1  0  0  0  0
  7 11  1  0  0  0  0
  7 14  1  0  0  0  0
  8 10  2  0  0  0  0
  8 15  1  0  0  0  0
  9 10  1  0  0  0  0
  9 16  1  0  0  0  0
 10 17  1  0  0  0  0
 11 18  1  0  0  0  0
M  END
> <PUBCHEM_COMPOUND_CID>
136800

> <PUBCHEM_CONFORMER_RMSD>
0.4

> <PUBCHEM_CONFORMER_DIVERSEORDER>
1
2

> <PUBCHEM_MMFF94_PARTIAL_CHARGES>
18
1 -0.02
10 -0.15
11 0.14
12 0.15
13 0.15
14 0.15
15 0.15
16 0.15
17 0.15
18 0.15
2 -0.41
3 0.05
4 0.09
5 -0.15
6 -0.15
7 -0.15
8 -0.15
9 -0.15

> <PUBCHEM_EFFECTIVE_ROTOR_COUNT>
1

> <PUBCHEM_PHARMACOPHORE_FEATURES>
3
1 2 acceptor
5 1 2 4 7 11 rings
6 3 5 6 8 9 10 rings

> <PUBCHEM_HEAVY_ATOM_COUNT>
11

> <PUBCHEM_ATOM_DEF_STEREO_COUNT>
0

> <PUBCHEM_ATOM_UDEF_STEREO_COUNT>
0

> <PUBCHEM_BOND_DEF_STEREO_COUNT>
0

> <PUBCHEM_BOND_UDEF_STEREO_COUNT>
0

> <PUBCHEM_ISOTOPIC_ATOM_COUNT>
0

> <PUBCHEM_COMPONENT_COUNT>
1

> <PUBCHEM_CACTVS_TAUTO_COUNT>
1

> <PUBCHEM_CONFORMER_ID>
0002166000000001

> <PUBCHEM_MMFF94_ENERGY>
19.8552

> <PUBCHEM_FEATURE_SELFOVERLAP>
15.223

> <PUBCHEM_SHAPE_FINGERPRINT>
10608611 8 18411976974968873472
12032990 46 18336835276927462699
12897270 3 18410855494509038196
12932764 1 17632292423351215766
13024252 1 15574713599698501953
14144814 61 18410011022392281872
14325111 11 18410573976582849409
15775835 57 18334581204722559009
16945 1 18410856568377475685
17844478 74 18187093866408939769
19973954 147 18410857680663527872
20201158 50 18342738502890032127
20871998 184 18129386054444243967
23402539 116 18201709644702352085
23402655 69 18270388413685768077
23463225 33 18335981969836124978
23552423 10 18260548960752162431
2748010 2 18411136973775415509
3248919 1 17530968024562907018
369184 2 18413107268843037497
5084963 1 18411981351482168633
6333449 129 18412542124192989469

> <PUBCHEM_SHAPE_MULTIPOLES>
215.52
5.29
1.43
0.6
1.3
0.01
0
-0.04
0
-0.35
0
-0.04
0.02
0

> <PUBCHEM_SHAPE_SELFOVERLAP>
469.021

> <PUBCHEM_SHAPE_VOLUME>
118.8

> <PUBCHEM_COORDINATE_TYPE>
2
5
10

$$$$
