140710
  -OEChem-11012400593D

 20 20  0     1  0  0  0  0  0999 V2000
    1.0810   -1.1164   -1.0613 O   0  0  0  0  0  0  0  0  0  0  0  0
   -0.4666    1.9162    0.2847 O   0  0  0  0  0  0  0  0  0  0  0  0
    0.7406   -0.1702   -0.0461 C   0  0  1  0  0  0  0  0  0  0  0  0
   -0.2960    0.8133   -0.5967 C   0  0  1  0  0  0  0  0  0  0  0  0
   -0.0313   -0.9026    1.0531 C   0  0  0  0  0  0  0  0  0  0  0  0
   -1.5809   -0.0130   -0.6351 C   0  0  0  0  0  0  0  0  0  0  0  0
   -1.4685   -0.9985    0.5323 C   0  0  0  0  0  0  0  0  0  0  0  0
    2.0218    0.4712    0.4690 C   0  0  0  0  0  0  0  0  0  0  0  0
   -0.0516    1.1900   -1.5955 H   0  0  0  0  0  0  0  0  0  0  0  0
   -0.0267   -0.3301    1.9886 H   0  0  0  0  0  0  0  0  0  0  0  0
    0.3729   -1.8992    1.2603 H   0  0  0  0  0  0  0  0  0  0  0  0
   -1.6420   -0.5745   -1.5747 H   0  0  0  0  0  0  0  0  0  0  0  0
   -2.4807    0.6037   -0.5447 H   0  0  0  0  0  0  0  0  0  0  0  0
   -2.1808   -0.7540    1.3277 H   0  0  0  0  0  0  0  0  0  0  0  0
   -1.6962   -2.0149    0.1926 H   0  0  0  0  0  0  0  0  0  0  0  0
    2.7327   -0.2973    0.7934 H   0  0  0  0  0  0  0  0  0  0  0  0
    2.5166    1.0384   -0.3273 H   0  0  0  0  0  0  0  0  0  0  0  0
    1.8420    1.1445    1.3128 H   0  0  0  0  0  0  0  0  0  0  0  0
    1.5102   -0.6311   -1.7865 H   0  0  0  0  0  0  0  0  0  0  0  0
    0.3141    2.4883    0.1929 H   0  0  0  0  0  0  0  0  0  0  0  0
  1  3  1  0  0  0  0
  1 19  1  0  0  0  0
  2  4  1  0  0  0  0
  2 20  1  0  0  0  0
  3  4  1  0  0  0  0
  3  5  1  0  0  0  0
  3  8  1  0  0  0  0
  4  6  1  0  0  0  0
  4  9  1  0  0  0  0
  5  7  1  0  0  0  0
  5 10  1  0  0  0  0
  5 11  1  0  0  0  0
  6  7  1  0  0  0  0
  6 12  1  0  0  0  0
  6 13  1  0  0  0  0
  7 14  1  0  0  0  0
  7 15  1  0  0  0  0
  8 16  1  0  0  0  0
  8 17  1  0  0  0  0
  8 18  1  0  0  0  0
M  END
> <PUBCHEM_COMPOUND_CID>
140710

> <PUBCHEM_CONFORMER_RMSD>
0.4

> <PUBCHEM_CONFORMER_DIVERSEORDER>
1
8
3
6
4
2
7
5

> <PUBCHEM_MMFF94_PARTIAL_CHARGES>
6
1 -0.68
19 0.4
2 -0.68
20 0.4
3 0.28
4 0.28

> <PUBCHEM_EFFECTIVE_ROTOR_COUNT>
1

> <PUBCHEM_PHARMACOPHORE_FEATURES>
5
1 1 acceptor
1 1 donor
1 2 acceptor
1 2 donor
5 3 4 5 6 7 rings

> <PUBCHEM_HEAVY_ATOM_COUNT>
8

> <PUBCHEM_ATOM_DEF_STEREO_COUNT>
0

> <PUBCHEM_ATOM_UDEF_STEREO_COUNT>
2

> <PUBCHEM_BOND_DEF_STEREO_COUNT>
0

> <PUBCHEM_BOND_UDEF_STEREO_COUNT>
0

> <PUBCHEM_ISOTOPIC_ATOM_COUNT>
0

> <PUBCHEM_COMPONENT_COUNT>
1

> <PUBCHEM_CACTVS_TAUTO_COUNT>
1

> <PUBCHEM_CONFORMER_ID>
000225A600000001

> <PUBCHEM_MMFF94_ENERGY>
20.6728

> <PUBCHEM_FEATURE_SELFOVERLAP>
25.371

> <PUBCHEM_SHAPE_FINGERPRINT>
12423570 1 10950929787447225173
137420 1 12186247331934979363
21040471 1 17751073609487627333
24536 1 18335148557091143020
29004967 10 18271533099156940843
5943 1 14834715735148748806

> <PUBCHEM_SHAPE_MULTIPOLES>
152.9
2
1.43
1.01
0.35
0.44
-0.11
-0.17
0.08
-0.17
0.19
0.07
-0.19
0.25

> <PUBCHEM_SHAPE_SELFOVERLAP>
302.645

> <PUBCHEM_SHAPE_VOLUME>
93.6

> <PUBCHEM_COORDINATE_TYPE>
2
5
10

$$$$
