137808
  -OEChem-11012401093D

 14 14  0     0  0  0  0  0  0999 V2000
   -2.8653   -0.0014    0.0459 N   0  0  0  0  0  0  0  0  0  0  0  0
    1.9500   -0.7015    0.1820 C   0  0  0  0  0  0  0  0  0  0  0  0
    0.5506   -1.2240   -0.1445 C   0  0  0  0  0  0  0  0  0  0  0  0
    1.9102    0.8049   -0.0717 C   0  0  0  0  0  0  0  0  0  0  0  0
   -0.2919    0.0050   -0.0309 C   0  0  0  0  0  0  0  0  0  0  0  0
    0.4522    1.1154    0.0078 C   0  0  0  0  0  0  0  0  0  0  0  0
   -1.7058    0.0016    0.0114 C   0  0  0  0  0  0  0  0  0  0  0  0
    2.7248   -1.1992   -0.4102 H   0  0  0  0  0  0  0  0  0  0  0  0
    2.1785   -0.8924    1.2388 H   0  0  0  0  0  0  0  0  0  0  0  0
    0.2511   -2.0054    0.5610 H   0  0  0  0  0  0  0  0  0  0  0  0
    0.5058   -1.6274   -1.1621 H   0  0  0  0  0  0  0  0  0  0  0  0
    2.2992    1.0581   -1.0632 H   0  0  0  0  0  0  0  0  0  0  0  0
    2.4844    1.3471    0.6851 H   0  0  0  0  0  0  0  0  0  0  0  0
    0.0647    2.1233    0.0660 H   0  0  0  0  0  0  0  0  0  0  0  0
  1  7  3  0  0  0  0
  2  3  1  0  0  0  0
  2  4  1  0  0  0  0
  2  8  1  0  0  0  0
  2  9  1  0  0  0  0
  3  5  1  0  0  0  0
  3 10  1  0  0  0  0
  3 11  1  0  0  0  0
  4  6  1  0  0  0  0
  4 12  1  0  0  0  0
  4 13  1  0  0  0  0
  5  6  2  0  0  0  0
  5  7  1  0  0  0  0
  6 14  1  0  0  0  0
M  END
> <PUBCHEM_COMPOUND_CID>
137808

> <PUBCHEM_CONFORMER_RMSD>
0.4

> <PUBCHEM_CONFORMER_DIVERSEORDER>
1

> <PUBCHEM_MMFF94_PARTIAL_CHARGES>
7
1 -0.56
14 0.15
3 0.14
4 0.14
5 -0.07
6 -0.29
7 0.49

> <PUBCHEM_EFFECTIVE_ROTOR_COUNT>
0.6

> <PUBCHEM_PHARMACOPHORE_FEATURES>
2
1 1 acceptor
5 2 3 4 5 6 rings

> <PUBCHEM_HEAVY_ATOM_COUNT>
7

> <PUBCHEM_ATOM_DEF_STEREO_COUNT>
0

> <PUBCHEM_ATOM_UDEF_STEREO_COUNT>
0

> <PUBCHEM_BOND_DEF_STEREO_COUNT>
0

> <PUBCHEM_BOND_UDEF_STEREO_COUNT>
0

> <PUBCHEM_ISOTOPIC_ATOM_COUNT>
0

> <PUBCHEM_COMPONENT_COUNT>
1

> <PUBCHEM_CACTVS_TAUTO_COUNT>
1

> <PUBCHEM_CONFORMER_ID>
00021A5000000001

> <PUBCHEM_MMFF94_ENERGY>
3.7922

> <PUBCHEM_FEATURE_SELFOVERLAP>
10.148

> <PUBCHEM_SHAPE_FINGERPRINT>
20096714 4 18340486793397143636
21040471 1 18267303325332907660
23552423 10 17973172733590027782
29004967 10 18334016072846461281
5460574 1 9367349232142675817

> <PUBCHEM_SHAPE_MULTIPOLES>
139.08
3.14
1.18
0.61
1.89
0.04
0
-0.02
0.11
-0.51
-0.02
-0.05
0.01
-0.04

> <PUBCHEM_SHAPE_SELFOVERLAP>
278.938

> <PUBCHEM_SHAPE_VOLUME>
82.1

> <PUBCHEM_COORDINATE_TYPE>
2
5
10

$$$$
