72349
  -OEChem-11012400483D

 61 65  0     0  0  0  0  0  0999 V2000
   -5.0177   -4.8842    2.3422 Cl  0  0  0  0  0  0  0  0  0  0  0  0
   -6.7849   -0.1625   -1.3628 S   0  0  0  0  0  0  0  0  0  0  0  0
    9.6858    0.2900    0.9626 F   0  0  0  0  0  0  0  0  0  0  0  0
    9.2390   -1.8116    1.2591 F   0  0  0  0  0  0  0  0  0  0  0  0
    9.7194   -1.0751   -0.7298 F   0  0  0  0  0  0  0  0  0  0  0  0
   -6.5878   -0.5780   -2.7346 O   0  0  0  0  0  0  0  0  0  0  0  0
   -8.0739    0.3072   -0.9029 O   0  0  0  0  0  0  0  0  0  0  0  0
   -2.5686    3.3094    2.1914 O   0  0  0  0  0  0  0  0  0  0  0  0
   -5.5930    0.9990   -0.9545 N   0  0  0  0  0  0  0  0  0  0  0  0
   -3.4417    2.4495    0.2011 N   0  0  0  0  0  0  0  0  0  0  0  0
    2.8930    1.4271   -0.3366 N   0  0  0  0  0  0  0  0  0  0  0  0
    4.6883   -2.2559   -1.2459 N   0  0  0  0  0  0  0  0  0  0  0  0
   -5.7459    1.6241    0.3952 C   0  0  0  0  0  0  0  0  0  0  0  0
   -4.1805    0.5851   -1.2191 C   0  0  0  0  0  0  0  0  0  0  0  0
   -4.8201    2.8312    0.5049 C   0  0  0  0  0  0  0  0  0  0  0  0
   -3.2685    1.8017   -1.1050 C   0  0  0  0  0  0  0  0  0  0  0  0
   -2.4198    2.7665    1.0976 C   0  0  0  0  0  0  0  0  0  0  0  0
   -6.2865   -1.4946   -0.3175 C   0  0  0  0  0  0  0  0  0  0  0  0
   -1.0422    2.4194    0.7270 C   0  0  0  0  0  0  0  0  0  0  0  0
   -6.8078   -1.5838    0.9628 C   0  0  0  0  0  0  0  0  0  0  0  0
   -5.3821   -2.4293   -0.7947 C   0  0  0  0  0  0  0  0  0  0  0  0
   -0.2632    3.3342    0.0233 C   0  0  0  0  0  0  0  0  0  0  0  0
   -0.5214    1.1771    1.0799 C   0  0  0  0  0  0  0  0  0  0  0  0
    1.5704    1.7611    0.0217 C   0  0  0  0  0  0  0  0  0  0  0  0
   -6.4139   -2.6365    1.7888 C   0  0  0  0  0  0  0  0  0  0  0  0
   -4.9882   -3.4821    0.0313 C   0  0  0  0  0  0  0  0  0  0  0  0
    1.0452    3.0046   -0.3299 C   0  0  0  0  0  0  0  0  0  0  0  0
    0.7871    0.8474    0.7267 C   0  0  0  0  0  0  0  0  0  0  0  0
   -5.5040   -3.5857    1.3231 C   0  0  0  0  0  0  0  0  0  0  0  0
    3.5207    0.2014   -0.6321 C   0  0  0  0  0  0  0  0  0  0  0  0
    4.8827   -0.0199   -0.3684 C   0  0  0  0  0  0  0  0  0  0  0  0
    5.4316   -1.2776   -0.6950 C   0  0  0  0  0  0  0  0  0  0  0  0
    5.6879    0.9785    0.2057 C   0  0  0  0  0  0  0  0  0  0  0  0
    2.7551   -0.8104   -1.2011 C   0  0  0  0  0  0  0  0  0  0  0  0
    6.7818   -1.4912   -0.4314 C   0  0  0  0  0  0  0  0  0  0  0  0
    7.5826   -0.4989    0.1394 C   0  0  0  0  0  0  0  0  0  0  0  0
    7.0353    0.7377    0.4584 C   0  0  0  0  0  0  0  0  0  0  0  0
    3.3804   -2.0073   -1.4858 C   0  0  0  0  0  0  0  0  0  0  0  0
    9.0255   -0.7677    0.4046 C   0  0  0  0  0  0  0  0  0  0  0  0
   -5.4892    0.8997    1.1751 H   0  0  0  0  0  0  0  0  0  0  0  0
   -6.7762    1.9599    0.5464 H   0  0  0  0  0  0  0  0  0  0  0  0
   -4.0890    0.1672   -2.2264 H   0  0  0  0  0  0  0  0  0  0  0  0
   -3.8595   -0.1618   -0.4860 H   0  0  0  0  0  0  0  0  0  0  0  0
   -5.1084    3.6049   -0.2168 H   0  0  0  0  0  0  0  0  0  0  0  0
   -4.8922    3.2683    1.5058 H   0  0  0  0  0  0  0  0  0  0  0  0
   -2.2334    1.4999   -1.2765 H   0  0  0  0  0  0  0  0  0  0  0  0
   -3.5240    2.5467   -1.8682 H   0  0  0  0  0  0  0  0  0  0  0  0
   -7.5146   -0.8541    1.3458 H   0  0  0  0  0  0  0  0  0  0  0  0
   -4.9671   -2.3669   -1.7960 H   0  0  0  0  0  0  0  0  0  0  0  0
   -0.6637    4.3051   -0.2562 H   0  0  0  0  0  0  0  0  0  0  0  0
   -1.1229    0.4601    1.6326 H   0  0  0  0  0  0  0  0  0  0  0  0
   -6.8233   -2.7041    2.7935 H   0  0  0  0  0  0  0  0  0  0  0  0
   -4.2779   -4.2140   -0.3447 H   0  0  0  0  0  0  0  0  0  0  0  0
    1.6448    3.7250   -0.8806 H   0  0  0  0  0  0  0  0  0  0  0  0
    1.1765   -0.1189    1.0351 H   0  0  0  0  0  0  0  0  0  0  0  0
    3.4772    2.2400   -0.5078 H   0  0  0  0  0  0  0  0  0  0  0  0
    5.2947    1.9542    0.4776 H   0  0  0  0  0  0  0  0  0  0  0  0
    1.7070   -0.6861   -1.4493 H   0  0  0  0  0  0  0  0  0  0  0  0
    7.2255   -2.4554   -0.6761 H   0  0  0  0  0  0  0  0  0  0  0  0
    7.6383    1.5233    0.9045 H   0  0  0  0  0  0  0  0  0  0  0  0
    2.8319   -2.8282   -1.9360 H   0  0  0  0  0  0  0  0  0  0  0  0
  1 29  1  0  0  0  0
  2  6  2  0  0  0  0
  2  7  2  0  0  0  0
  2  9  1  0  0  0  0
  2 18  1  0  0  0  0
  3 39  1  0  0  0  0
  4 39  1  0  0  0  0
  5 39  1  0  0  0  0
  8 17  2  0  0  0  0
  9 13  1  0  0  0  0
  9 14  1  0  0  0  0
 10 15  1  0  0  0  0
 10 16  1  0  0  0  0
 10 17  1  0  0  0  0
 11 24  1  0  0  0  0
 11 30  1  0  0  0  0
 11 56  1  0  0  0  0
 12 32  2  0  0  0  0
 12 38  1  0  0  0  0
 13 15  1  0  0  0  0
 13 40  1  0  0  0  0
 13 41  1  0  0  0  0
 14 16  1  0  0  0  0
 14 42  1  0  0  0  0
 14 43  1  0  0  0  0
 15 44  1  0  0  0  0
 15 45  1  0  0  0  0
 16 46  1  0  0  0  0
 16 47  1  0  0  0  0
 17 19  1  0  0  0  0
 18 20  2  0  0  0  0
 18 21  1  0  0  0  0
 19 22  2  0  0  0  0
 19 23  1  0  0  0  0
 20 25  1  0  0  0  0
 20 48  1  0  0  0  0
 21 26  2  0  0  0  0
 21 49  1  0  0  0  0
 22 27  1  0  0  0  0
 22 50  1  0  0  0  0
 23 28  2  0  0  0  0
 23 51  1  0  0  0  0
 24 27  2  0  0  0  0
 24 28  1  0  0  0  0
 25 29  2  0  0  0  0
 25 52  1  0  0  0  0
 26 29  1  0  0  0  0
 26 53  1  0  0  0  0
 27 54  1  0  0  0  0
 28 55  1  0  0  0  0
 30 31  2  0  0  0  0
 30 34  1  0  0  0  0
 31 32  1  0  0  0  0
 31 33  1  0  0  0  0
 32 35  1  0  0  0  0
 33 37  2  0  0  0  0
 33 57  1  0  0  0  0
 34 38  2  0  0  0  0
 34 58  1  0  0  0  0
 35 36  2  0  0  0  0
 35 59  1  0  0  0  0
 36 37  1  0  0  0  0
 36 39  1  0  0  0  0
 37 60  1  0  0  0  0
 38 61  1  0  0  0  0
M  END
> <PUBCHEM_COMPOUND_CID>
72349

> <PUBCHEM_CONFORMER_RMSD>
1

> <PUBCHEM_CONFORMER_DIVERSEORDER>
1
239
287
12
300
220
258
108
284
331
288
260
11
180
216
85
263
201
138
125
96
317
289
167
202
209
232
107
306
94
205
123
217
255
116
120
226
256
268
309
215
282
213
165
314
273
267
139
158
148
168
163
254
241
89
166
328
271
175
142
196
299
22
130
291
221
266
203
153
144
118
200
79
182
204
181
329
169
324
7
321
206
134
194
147
310
208
95
25
132
228
140
244
109
316
270
252
269
143
332
162
319
67
124
126
152
320
336
91
42
313
133
149
235
245
283
39
247
100
302
334
170
141
86
219
155
229
280
184
285
277
225
294
111
161
114
278
157
57
295
276
327
274
222
19
93
82
187
333
173
227
77
325
293
242
131
335
97
188
279
145
214
117
248
191
129
301
160
13
183
323
90
115
156
210
24
281
10
176
45
236
231
38
103
261
27
41
303
88
218
212
257
177
35
326
311
110
171
305
49
179
223
224
315
307
43
40
240
243
127
135
105
128
186
150
55
159
80
275
87
192
76
297
64
70
31
52
66
238
30
195
178
237
207
296
83
50
185
253
249
51
199
8
292
119
113
211
16
99
47
233
53
298
154
34
104
234
286
318
322
136
265
151
26
330
59
251
304
98
75
174
290
172
264
272
112
74
146
189
65
62
36
32
102
230
6
198
250
9
106
262
15
101
56
246
137
164
68
190
84
23
54
48
122
72
92
61
58
121
197
28
29
312
21
259
2
69
193
18
20
78
73
63
46
37
14
17
5
71
81
33
3
308
44
60
4

> <PUBCHEM_MMFF94_PARTIAL_CHARGES>
52
1 -0.18
10 -0.66
11 -0.6
12 -0.62
13 0.36
14 0.36
15 0.3
16 0.3
17 0.54
18 -0.01
19 0.09
2 1.45
20 -0.15
21 -0.15
22 -0.15
23 -0.15
24 0.1
25 -0.15
26 -0.15
27 -0.15
28 -0.15
29 0.18
3 -0.34
30 0.1
32 0.31
33 -0.15
34 -0.15
35 -0.15
36 -0.14
37 -0.15
38 0.16
39 1.16
4 -0.34
48 0.15
49 0.15
5 -0.34
50 0.15
51 0.15
52 0.15
53 0.15
54 0.15
55 0.15
56 0.4
57 0.15
58 0.15
59 0.15
6 -0.65
60 0.15
61 0.15
7 -0.65
8 -0.57
9 -0.85

> <PUBCHEM_EFFECTIVE_ROTOR_COUNT>
8.2

> <PUBCHEM_PHARMACOPHORE_FEATURES>
11
1 11 cation
1 11 donor
1 12 acceptor
1 6 acceptor
1 7 acceptor
1 8 acceptor
6 12 30 31 32 34 38 rings
6 18 20 21 25 26 29 rings
6 19 22 23 24 27 28 rings
6 31 32 33 35 36 37 rings
6 9 10 13 14 15 16 rings

> <PUBCHEM_HEAVY_ATOM_COUNT>
39

> <PUBCHEM_ATOM_DEF_STEREO_COUNT>
0

> <PUBCHEM_ATOM_UDEF_STEREO_COUNT>
0

> <PUBCHEM_BOND_DEF_STEREO_COUNT>
0

> <PUBCHEM_BOND_UDEF_STEREO_COUNT>
0

> <PUBCHEM_ISOTOPIC_ATOM_COUNT>
0

> <PUBCHEM_COMPONENT_COUNT>
1

> <PUBCHEM_CACTVS_TAUTO_COUNT>
4

> <PUBCHEM_CONFORMER_ID>
00011A9D00000001

> <PUBCHEM_MMFF94_ENERGY>
111.1493

> <PUBCHEM_FEATURE_SELFOVERLAP>
55.872

> <PUBCHEM_SHAPE_FINGERPRINT>
10169797 241 17915473885185019196
10391435 84 18337945783597735025
10462674 296 17555719255697977103
10677351 27 18197806395271158117
11135609 99 18412826914695003724
117089 54 18339367491283325983
11756154 5 18412545422939038279
12013929 27 17968099788676429511
12522641 68 17027101231090022717
12539747 164 18338804394536554401
12643181 29 18407758136785255439
12841400 136 18412542145625959177
1361 4 18270962319932138206
1361 87 18335133255019641359
13811026 1 18342737416954279342
14279260 333 18408039598334570547
15145343 29 12390967656911946562
15274700 208 15984236635803271194
15406563 228 17676493903395487375
15510800 12 18338793529075416459
17686467 74 18412539930019317016
18603816 31 18334307465810299953
19303781 99 18263640826563545567
19309040 13 14780368049026845557
19611394 137 18340490066167589162
20721686 56 18201720631165651911
21130935 74 17772751568768619070
2260408 40 14117531942607656525
25025965 108 17845636085176022567
2747138 104 18130788945740571136
3711267 37 12319444512109376170
395649 100 18408885135291330266
4073 2 18129948858183842220
437795 150 18040436637736515923
4440575 13 17749660806483630282
4461854 278 17632860845536695806
44802255 64 11386369249095813665
5047190 19 18115037397278416811
54583773 228 18335427924320892028
6009941 240 18335134268030355301
6086070 43 14201408217481838316
6431902 208 18272371971179545621
999808 66 18342740728252647949

> <PUBCHEM_SHAPE_MULTIPOLES>
748.97
29.58
4.83
1.69
47.95
2.13
0.01
20.97
-0.23
-9.26
-2.65
-2.7
0.77
2.69

> <PUBCHEM_SHAPE_SELFOVERLAP>
1623.177

> <PUBCHEM_SHAPE_VOLUME>
415.2

> <PUBCHEM_COORDINATE_TYPE>
2
5
10

$$$$
