102231
  -OEChem-11012400413D

 20 21  0     1  0  0  0  0  0999 V2000
    3.1621   -0.0820    0.1904 N   0  0  0  0  0  0  0  0  0  0  0  0
   -0.2306   -0.9793    0.2654 C   0  0  2  0  0  0  0  0  0  0  0  0
   -1.2107    1.0175    0.3777 C   0  0  1  0  0  0  0  0  0  0  0  0
   -0.6489   -0.0005    1.3672 C   0  0  0  0  0  0  0  0  0  0  0  0
    0.6670   -0.1070   -0.6437 C   0  0  1  0  0  0  0  0  0  0  0  0
    0.0077    1.2833   -0.5276 C   0  0  0  0  0  0  0  0  0  0  0  0
   -1.5715   -1.2111   -0.4556 C   0  0  0  0  0  0  0  0  0  0  0  0
   -2.2370    0.1721   -0.3965 C   0  0  0  0  0  0  0  0  0  0  0  0
    2.0618   -0.0930   -0.1774 C   0  0  0  0  0  0  0  0  0  0  0  0
    0.2362   -1.9022    0.6187 H   0  0  0  0  0  0  0  0  0  0  0  0
   -1.6327    1.9227    0.8186 H   0  0  0  0  0  0  0  0  0  0  0  0
    0.1909    0.3845    1.9545 H   0  0  0  0  0  0  0  0  0  0  0  0
   -1.4078   -0.4104    2.0422 H   0  0  0  0  0  0  0  0  0  0  0  0
    0.6430   -0.4615   -1.6808 H   0  0  0  0  0  0  0  0  0  0  0  0
    0.6737    2.0209   -0.0638 H   0  0  0  0  0  0  0  0  0  0  0  0
   -0.2924    1.6703   -1.5074 H   0  0  0  0  0  0  0  0  0  0  0  0
   -2.1809   -1.9452    0.0838 H   0  0  0  0  0  0  0  0  0  0  0  0
   -1.4441   -1.5642   -1.4836 H   0  0  0  0  0  0  0  0  0  0  0  0
   -2.4440    0.5724   -1.3940 H   0  0  0  0  0  0  0  0  0  0  0  0
   -3.1843    0.1104    0.1508 H   0  0  0  0  0  0  0  0  0  0  0  0
  1  9  3  0  0  0  0
  2  4  1  0  0  0  0
  2  5  1  0  0  0  0
  2  7  1  0  0  0  0
  2 10  1  0  0  0  0
  3  4  1  0  0  0  0
  3  6  1  0  0  0  0
  3  8  1  0  0  0  0
  3 11  1  0  0  0  0
  4 12  1  0  0  0  0
  4 13  1  0  0  0  0
  5  6  1  0  0  0  0
  5  9  1  0  0  0  0
  5 14  1  0  0  0  0
  6 15  1  0  0  0  0
  6 16  1  0  0  0  0
  7  8  1  0  0  0  0
  7 17  1  0  0  0  0
  7 18  1  0  0  0  0
  8 19  1  0  0  0  0
  8 20  1  0  0  0  0
M  END
> <PUBCHEM_COMPOUND_CID>
102231

> <PUBCHEM_CONFORMER_RMSD>
0.4

> <PUBCHEM_CONFORMER_DIVERSEORDER>
1
4
3
2

> <PUBCHEM_MMFF94_PARTIAL_CHARGES>
3
1 -0.56
5 0.2
9 0.36

> <PUBCHEM_EFFECTIVE_ROTOR_COUNT>
1

> <PUBCHEM_PHARMACOPHORE_FEATURES>
2
1 1 acceptor
7 2 3 4 5 6 7 8 rings

> <PUBCHEM_HEAVY_ATOM_COUNT>
9

> <PUBCHEM_ATOM_DEF_STEREO_COUNT>
0

> <PUBCHEM_ATOM_UDEF_STEREO_COUNT>
3

> <PUBCHEM_BOND_DEF_STEREO_COUNT>
0

> <PUBCHEM_BOND_UDEF_STEREO_COUNT>
0

> <PUBCHEM_ISOTOPIC_ATOM_COUNT>
0

> <PUBCHEM_COMPONENT_COUNT>
1

> <PUBCHEM_CACTVS_TAUTO_COUNT>
1

> <PUBCHEM_CONFORMER_ID>
00018F5700000001

> <PUBCHEM_MMFF94_ENERGY>
24.511

> <PUBCHEM_FEATURE_SELFOVERLAP>
10.148

> <PUBCHEM_SHAPE_FINGERPRINT>
12423570 1 12242647764592809929
13024252 1 16587745325981495204
137420 1 10068055734824801561
14128692 85 18055912344958100367
15310529 11 12107789609914129616
16945 1 18273497870669604597
21040471 1 18195260918135925117
23552423 10 18116432733473523636
29004967 10 18260277347088915779
369184 2 18411980252186643210
5084963 1 18130790040518959352

> <PUBCHEM_SHAPE_MULTIPOLES>
180.23
3.08
1.2
0.97
2.38
0.05
0.23
-0.21
-0.15
-0.41
-0.11
-0.19
0.02
-0.12

> <PUBCHEM_SHAPE_SELFOVERLAP>
381.151

> <PUBCHEM_SHAPE_VOLUME>
104.3

> <PUBCHEM_COORDINATE_TYPE>
2
5
10

$$$$
