138426
  -OEChem-11012401023D

 64 65  0     0  0  0  0  0  0999 V2000
   -0.6116    2.5087    0.5324 C   0  0  0  0  0  0  0  0  0  0  0  0
    0.6114    2.5086   -0.5325 C   0  0  0  0  0  0  0  0  0  0  0  0
   -1.5231    1.2590    0.3696 C   0  0  0  0  0  0  0  0  0  0  0  0
    1.5231    1.2589   -0.3695 C   0  0  0  0  0  0  0  0  0  0  0  0
   -0.0928    2.5841    2.0029 C   0  0  0  0  0  0  0  0  0  0  0  0
   -1.4749    3.8023    0.3956 C   0  0  0  0  0  0  0  0  0  0  0  0
    0.0921    2.5840   -2.0028 C   0  0  0  0  0  0  0  0  0  0  0  0
    1.4747    3.8021   -0.3957 C   0  0  0  0  0  0  0  0  0  0  0  0
   -1.2607    0.1760    1.1563 C   0  0  0  0  0  0  0  0  0  0  0  0
    1.2605    0.1759   -1.1561 C   0  0  0  0  0  0  0  0  0  0  0  0
   -2.5284    1.3242   -0.5502 C   0  0  0  0  0  0  0  0  0  0  0  0
    2.5285    1.3243    0.5500 C   0  0  0  0  0  0  0  0  0  0  0  0
   -3.1209   -0.9308    0.0835 C   0  0  0  0  0  0  0  0  0  0  0  0
    3.1211   -0.9306   -0.0835 C   0  0  0  0  0  0  0  0  0  0  0  0
   -3.9957   -2.1285   -0.0723 C   0  0  0  0  0  0  0  0  0  0  0  0
    3.9959   -2.1284    0.0723 C   0  0  0  0  0  0  0  0  0  0  0  0
   -2.0783   -0.9446    1.0098 C   0  0  0  0  0  0  0  0  0  0  0  0
    2.0782   -0.9446   -1.0096 C   0  0  0  0  0  0  0  0  0  0  0  0
   -3.3460    0.2035   -0.6965 C   0  0  0  0  0  0  0  0  0  0  0  0
    3.3463    0.2038    0.6962 C   0  0  0  0  0  0  0  0  0  0  0  0
   -4.7232   -2.4754    1.2637 C   0  0  0  0  0  0  0  0  0  0  0  0
   -3.1689   -3.3819   -0.4966 C   0  0  0  0  0  0  0  0  0  0  0  0
   -5.1303   -1.9970   -1.1420 C   0  0  0  0  0  0  0  0  0  0  0  0
    3.1693   -3.3817    0.4971 C   0  0  0  0  0  0  0  0  0  0  0  0
    4.7231   -2.4754   -1.2638 C   0  0  0  0  0  0  0  0  0  0  0  0
    5.1307   -1.9965    1.1417 C   0  0  0  0  0  0  0  0  0  0  0  0
    0.6176    1.8019    2.2755 H   0  0  0  0  0  0  0  0  0  0  0  0
    0.4079    3.5373    2.2052 H   0  0  0  0  0  0  0  0  0  0  0  0
   -0.9263    2.5229    2.7155 H   0  0  0  0  0  0  0  0  0  0  0  0
   -1.8274    3.9928   -0.6210 H   0  0  0  0  0  0  0  0  0  0  0  0
   -0.9127    4.6936    0.6975 H   0  0  0  0  0  0  0  0  0  0  0  0
   -2.3595    3.7565    1.0438 H   0  0  0  0  0  0  0  0  0  0  0  0
   -0.4088    3.5371   -2.2051 H   0  0  0  0  0  0  0  0  0  0  0  0
    0.9254    2.5230   -2.7156 H   0  0  0  0  0  0  0  0  0  0  0  0
   -0.6180    1.8016   -2.2754 H   0  0  0  0  0  0  0  0  0  0  0  0
    2.3594    3.7562   -1.0438 H   0  0  0  0  0  0  0  0  0  0  0  0
    0.9126    4.6934   -0.6978 H   0  0  0  0  0  0  0  0  0  0  0  0
    1.8270    3.9927    0.6209 H   0  0  0  0  0  0  0  0  0  0  0  0
   -0.4513    0.1047    1.8699 H   0  0  0  0  0  0  0  0  0  0  0  0
    0.4510    0.1045   -1.8695 H   0  0  0  0  0  0  0  0  0  0  0  0
   -2.7279    2.1793   -1.1829 H   0  0  0  0  0  0  0  0  0  0  0  0
    2.7281    2.1795    1.1826 H   0  0  0  0  0  0  0  0  0  0  0  0
   -1.8776   -1.8166    1.6257 H   0  0  0  0  0  0  0  0  0  0  0  0
    1.8774   -1.8168   -1.6253 H   0  0  0  0  0  0  0  0  0  0  0  0
   -4.1396    0.2666   -1.4328 H   0  0  0  0  0  0  0  0  0  0  0  0
    4.1401    0.2671    1.4324 H   0  0  0  0  0  0  0  0  0  0  0  0
   -5.3881   -3.3386    1.1433 H   0  0  0  0  0  0  0  0  0  0  0  0
   -4.0155   -2.7218    2.0628 H   0  0  0  0  0  0  0  0  0  0  0  0
   -5.3292   -1.6291    1.6080 H   0  0  0  0  0  0  0  0  0  0  0  0
   -2.4210   -3.6531    0.2565 H   0  0  0  0  0  0  0  0  0  0  0  0
   -3.8148   -4.2559   -0.6400 H   0  0  0  0  0  0  0  0  0  0  0  0
   -2.6380   -3.1973   -1.4380 H   0  0  0  0  0  0  0  0  0  0  0  0
   -5.7285   -2.9146   -1.1980 H   0  0  0  0  0  0  0  0  0  0  0  0
   -5.8195   -1.1801   -0.8983 H   0  0  0  0  0  0  0  0  0  0  0  0
   -4.7199   -1.8209   -2.1432 H   0  0  0  0  0  0  0  0  0  0  0  0
    2.4212   -3.6531   -0.2559 H   0  0  0  0  0  0  0  0  0  0  0  0
    3.8151   -4.2557    0.6405 H   0  0  0  0  0  0  0  0  0  0  0  0
    2.6386   -3.1969    1.4386 H   0  0  0  0  0  0  0  0  0  0  0  0
    5.3881   -3.3386   -1.1433 H   0  0  0  0  0  0  0  0  0  0  0  0
    4.0153   -2.7220   -2.0627 H   0  0  0  0  0  0  0  0  0  0  0  0
    5.3289   -1.6291   -1.6084 H   0  0  0  0  0  0  0  0  0  0  0  0
    5.7291   -2.9140    1.1977 H   0  0  0  0  0  0  0  0  0  0  0  0
    5.8198   -1.1795    0.8977 H   0  0  0  0  0  0  0  0  0  0  0  0
    4.7206   -1.8202    2.1430 H   0  0  0  0  0  0  0  0  0  0  0  0
  1  2  1  0  0  0  0
  1  3  1  0  0  0  0
  1  5  1  0  0  0  0
  1  6  1  0  0  0  0
  2  4  1  0  0  0  0
  2  7  1  0  0  0  0
  2  8  1  0  0  0  0
  3  9  2  0  0  0  0
  3 11  1  0  0  0  0
  4 10  2  0  0  0  0
  4 12  1  0  0  0  0
  5 27  1  0  0  0  0
  5 28  1  0  0  0  0
  5 29  1  0  0  0  0
  6 30  1  0  0  0  0
  6 31  1  0  0  0  0
  6 32  1  0  0  0  0
  7 33  1  0  0  0  0
  7 34  1  0  0  0  0
  7 35  1  0  0  0  0
  8 36  1  0  0  0  0
  8 37  1  0  0  0  0
  8 38  1  0  0  0  0
  9 17  1  0  0  0  0
  9 39  1  0  0  0  0
 10 18  1  0  0  0  0
 10 40  1  0  0  0  0
 11 19  2  0  0  0  0
 11 41  1  0  0  0  0
 12 20  2  0  0  0  0
 12 42  1  0  0  0  0
 13 15  1  0  0  0  0
 13 17  2  0  0  0  0
 13 19  1  0  0  0  0
 14 16  1  0  0  0  0
 14 18  2  0  0  0  0
 14 20  1  0  0  0  0
 15 21  1  0  0  0  0
 15 22  1  0  0  0  0
 15 23  1  0  0  0  0
 16 24  1  0  0  0  0
 16 25  1  0  0  0  0
 16 26  1  0  0  0  0
 17 43  1  0  0  0  0
 18 44  1  0  0  0  0
 19 45  1  0  0  0  0
 20 46  1  0  0  0  0
 21 47  1  0  0  0  0
 21 48  1  0  0  0  0
 21 49  1  0  0  0  0
 22 50  1  0  0  0  0
 22 51  1  0  0  0  0
 22 52  1  0  0  0  0
 23 53  1  0  0  0  0
 23 54  1  0  0  0  0
 23 55  1  0  0  0  0
 24 56  1  0  0  0  0
 24 57  1  0  0  0  0
 24 58  1  0  0  0  0
 25 59  1  0  0  0  0
 25 60  1  0  0  0  0
 25 61  1  0  0  0  0
 26 62  1  0  0  0  0
 26 63  1  0  0  0  0
 26 64  1  0  0  0  0
M  END
> <PUBCHEM_COMPOUND_CID>
138426

> <PUBCHEM_CONFORMER_RMSD>
0.8

> <PUBCHEM_CONFORMER_DIVERSEORDER>
1
2
3

> <PUBCHEM_MMFF94_PARTIAL_CHARGES>
24
1 0.14
10 -0.15
11 -0.15
12 -0.15
13 -0.14
14 -0.14
15 0.14
16 0.14
17 -0.15
18 -0.15
19 -0.15
2 0.14
20 -0.15
3 -0.14
39 0.15
4 -0.14
40 0.15
41 0.15
42 0.15
43 0.15
44 0.15
45 0.15
46 0.15
9 -0.15

> <PUBCHEM_EFFECTIVE_ROTOR_COUNT>
5

> <PUBCHEM_PHARMACOPHORE_FEATURES>
6
3 1 5 6 hydrophobe
3 2 7 8 hydrophobe
4 15 21 22 23 hydrophobe
4 16 24 25 26 hydrophobe
6 3 9 11 13 17 19 rings
6 4 10 12 14 18 20 rings

> <PUBCHEM_HEAVY_ATOM_COUNT>
26

> <PUBCHEM_ATOM_DEF_STEREO_COUNT>
0

> <PUBCHEM_ATOM_UDEF_STEREO_COUNT>
0

> <PUBCHEM_BOND_DEF_STEREO_COUNT>
0

> <PUBCHEM_BOND_UDEF_STEREO_COUNT>
0

> <PUBCHEM_ISOTOPIC_ATOM_COUNT>
0

> <PUBCHEM_COMPONENT_COUNT>
1

> <PUBCHEM_CACTVS_TAUTO_COUNT>
1

> <PUBCHEM_CONFORMER_ID>
00021CBA00000001

> <PUBCHEM_MMFF94_ENERGY>
127.9456

> <PUBCHEM_FEATURE_SELFOVERLAP>
30.475

> <PUBCHEM_SHAPE_FINGERPRINT>
11315621 246 18122080706401114662
11552529 35 18127412242262305162
12107183 9 18270137772648255059
12293681 25 18047153502097762004
12363563 72 18409738356325222198
12553582 1 18338537281845565606
12633257 1 17772198509391898272
12969540 37 18336822095667524180
12990986 174 18336824170184428226
13004483 165 18411692175687183331
13083527 12 18339354266730602040
13140716 1 18342747282061758633
13533116 47 18054793047281525035
13544653 18 18411980277708566065
13631057 29 18339080394162574798
138480 1 14879752547307925921
13911987 19 17538592175898885924
14844126 61 18192430762374005850
14848160 33 18339365296116953927
14863182 85 17976544141220780028
14866123 147 18196936570331958385
15352361 1 18410570686632833822
17134984 74 16974753911956785319
17492 89 18336547234835369875
17980427 26 14715338884478756460
20600515 1 18199193896972377677
20602899 9 17615391572412882964
20681677 274 18341323401935281008
20775438 99 17689417709267241307
20775530 9 18410293609707980475
21133410 171 17468704764216314699
21421861 104 18125746675345984473
21452121 199 18338793519647108297
22440779 20 16735556029285278265
23419403 2 18056729148885486640
23559900 14 18337100254660359313
23728640 28 17905617600833711201
3027735 51 17763169251195388565
345986 75 17845671364226574699
392239 28 17416105403901063416
404807 78 16453766836224470099
460360 51 18337405945469774169
46194498 28 17605828351492696119
463206 1 18336548325709882923
5265222 85 16681505901490212654
5309563 4 18411422821245903747
59682541 52 17981301681649312127
613672 6 18338784671951434599
6433294 58 17905892831102644115
6442390 28 10591759934884635469
6669772 16 17981337995408083900
9709674 26 18189054355591607915

> <PUBCHEM_SHAPE_MULTIPOLES>
535.07
9.29
5.13
1.45
0
1.48
0
-12.75
0
0
0
0
0.32
-0.22

> <PUBCHEM_SHAPE_SELFOVERLAP>
1122.402

> <PUBCHEM_SHAPE_VOLUME>
300.1

> <PUBCHEM_COORDINATE_TYPE>
2
5
10

$$$$
