136670
  -OEChem-11012401113D

 31 30  0     0  0  0  0  0  0999 V2000
    0.3781   -1.6502    0.0218 O   0  0  0  0  0  0  0  0  0  0  0  0
   -2.0195    0.1348   -0.0270 C   0  0  0  0  0  0  0  0  0  0  0  0
   -0.6119    0.4706   -0.5804 C   0  0  0  0  0  0  0  0  0  0  0  0
    1.9404    0.1971    0.0071 C   0  0  0  0  0  0  0  0  0  0  0  0
    0.5444   -0.4441   -0.1658 C   0  0  0  0  0  0  0  0  0  0  0  0
   -2.4918   -1.2482   -0.5049 C   0  0  0  0  0  0  0  0  0  0  0  0
   -3.0545    1.2061   -0.4097 C   0  0  0  0  0  0  0  0  0  0  0  0
   -1.9222    0.1030    1.5139 C   0  0  0  0  0  0  0  0  0  0  0  0
    1.9129    1.2877    1.0863 C   0  0  0  0  0  0  0  0  0  0  0  0
    2.9477   -0.8981    0.3803 C   0  0  0  0  0  0  0  0  0  0  0  0
    2.3764    0.8412   -1.3215 C   0  0  0  0  0  0  0  0  0  0  0  0
   -0.6384    0.4594   -1.6776 H   0  0  0  0  0  0  0  0  0  0  0  0
   -0.3748    1.4987   -0.2919 H   0  0  0  0  0  0  0  0  0  0  0  0
   -1.9304   -2.0741   -0.0615 H   0  0  0  0  0  0  0  0  0  0  0  0
   -2.4193   -1.3303   -1.5950 H   0  0  0  0  0  0  0  0  0  0  0  0
   -3.5421   -1.4120   -0.2351 H   0  0  0  0  0  0  0  0  0  0  0  0
   -2.7528    2.1955   -0.0485 H   0  0  0  0  0  0  0  0  0  0  0  0
   -4.0403    0.9819    0.0128 H   0  0  0  0  0  0  0  0  0  0  0  0
   -3.1628    1.2674   -1.4982 H   0  0  0  0  0  0  0  0  0  0  0  0
   -1.5525    1.0574    1.9060 H   0  0  0  0  0  0  0  0  0  0  0  0
   -1.2553   -0.6870    1.8744 H   0  0  0  0  0  0  0  0  0  0  0  0
   -2.9057   -0.0788    1.9631 H   0  0  0  0  0  0  0  0  0  0  0  0
    1.3367    2.1674    0.7834 H   0  0  0  0  0  0  0  0  0  0  0  0
    1.4668    0.9069    2.0121 H   0  0  0  0  0  0  0  0  0  0  0  0
    2.9260    1.6339    1.3210 H   0  0  0  0  0  0  0  0  0  0  0  0
    3.9576   -0.4873    0.4918 H   0  0  0  0  0  0  0  0  0  0  0  0
    2.6792   -1.3771    1.3291 H   0  0  0  0  0  0  0  0  0  0  0  0
    2.9916   -1.6817   -0.3850 H   0  0  0  0  0  0  0  0  0  0  0  0
    2.3561    0.1083   -2.1364 H   0  0  0  0  0  0  0  0  0  0  0  0
    1.7153    1.6650   -1.6117 H   0  0  0  0  0  0  0  0  0  0  0  0
    3.3941    1.2419   -1.2529 H   0  0  0  0  0  0  0  0  0  0  0  0
  1  5  2  0  0  0  0
  2  3  1  0  0  0  0
  2  6  1  0  0  0  0
  2  7  1  0  0  0  0
  2  8  1  0  0  0  0
  3  5  1  0  0  0  0
  3 12  1  0  0  0  0
  3 13  1  0  0  0  0
  4  5  1  0  0  0  0
  4  9  1  0  0  0  0
  4 10  1  0  0  0  0
  4 11  1  0  0  0  0
  6 14  1  0  0  0  0
  6 15  1  0  0  0  0
  6 16  1  0  0  0  0
  7 17  1  0  0  0  0
  7 18  1  0  0  0  0
  7 19  1  0  0  0  0
  8 20  1  0  0  0  0
  8 21  1  0  0  0  0
  8 22  1  0  0  0  0
  9 23  1  0  0  0  0
  9 24  1  0  0  0  0
  9 25  1  0  0  0  0
 10 26  1  0  0  0  0
 10 27  1  0  0  0  0
 10 28  1  0  0  0  0
 11 29  1  0  0  0  0
 11 30  1  0  0  0  0
 11 31  1  0  0  0  0
M  END
> <PUBCHEM_COMPOUND_CID>
136670

> <PUBCHEM_CONFORMER_RMSD>
0.6

> <PUBCHEM_CONFORMER_DIVERSEORDER>
1
7
2
3
5
6
4
8

> <PUBCHEM_MMFF94_PARTIAL_CHARGES>
4
1 -0.57
3 0.06
4 0.06
5 0.45

> <PUBCHEM_EFFECTIVE_ROTOR_COUNT>
3

> <PUBCHEM_PHARMACOPHORE_FEATURES>
3
1 1 acceptor
4 2 6 7 8 hydrophobe
4 4 9 10 11 hydrophobe

> <PUBCHEM_HEAVY_ATOM_COUNT>
11

> <PUBCHEM_ATOM_DEF_STEREO_COUNT>
0

> <PUBCHEM_ATOM_UDEF_STEREO_COUNT>
0

> <PUBCHEM_BOND_DEF_STEREO_COUNT>
0

> <PUBCHEM_BOND_UDEF_STEREO_COUNT>
0

> <PUBCHEM_ISOTOPIC_ATOM_COUNT>
0

> <PUBCHEM_COMPONENT_COUNT>
1

> <PUBCHEM_CACTVS_TAUTO_COUNT>
2

> <PUBCHEM_CONFORMER_ID>
000215DE00000001

> <PUBCHEM_MMFF94_ENERGY>
29.9181

> <PUBCHEM_FEATURE_SELFOVERLAP>
15.223

> <PUBCHEM_SHAPE_FINGERPRINT>
10857977 72 17967818296661910361
12897270 3 18059855073517370949
12932741 1 17846218881813874589
12932764 1 18341900718105771345
14325111 11 18410007753948517332
14390081 3 18343858914145233461
15775835 57 18412826893119582732
16945 1 17775295927803963025
18186145 218 17917435345093047256
19973954 147 17060066976868882720
21028194 46 18341612637342908318
21040471 1 18337107977153923958
23552423 10 18186799171080001102
3248919 1 17458340879090870176
369184 2 18342452664563957449
5084963 1 18408881854073446566
57812782 119 18272921735018969398
63268167 104 18272934907847196784
8030462 33 18335420209356367407

> <PUBCHEM_SHAPE_MULTIPOLES>
220.51
4.89
1.41
1.18
0.43
0.19
0.19
-0.45
-0.18
0.04
-0.02
-0.11
-0.28
-0.1

> <PUBCHEM_SHAPE_SELFOVERLAP>
414.515

> <PUBCHEM_SHAPE_VOLUME>
140.1

> <PUBCHEM_COORDINATE_TYPE>
2
5
10

$$$$
