95779
  -OEChem-11012400573D

 26 26  0     0  0  0  0  0  0999 V2000
    0.9989   -2.4347    0.0000 O   0  0  0  0  0  0  0  0  0  0  0  0
   -2.1304    2.1064   -0.0007 O   0  0  0  0  0  0  0  0  0  0  0  0
    2.3098    0.1037   -0.0002 C   0  0  0  0  0  0  0  0  0  0  0  0
    0.8239   -0.0438    0.0009 C   0  0  0  0  0  0  0  0  0  0  0  0
    2.8295    0.8205    1.2597 C   0  0  0  0  0  0  0  0  0  0  0  0
    2.8279    0.8193   -1.2613 C   0  0  0  0  0  0  0  0  0  0  0  0
    0.2332   -1.3074    0.0004 C   0  0  0  0  0  0  0  0  0  0  0  0
    0.0250    1.0997    0.0011 C   0  0  0  0  0  0  0  0  0  0  0  0
   -1.9554   -0.2841    0.0001 C   0  0  0  0  0  0  0  0  0  0  0  0
   -1.3646    0.9795    0.0006 C   0  0  0  0  0  0  0  0  0  0  0  0
   -1.1564   -1.4275    0.0000 C   0  0  0  0  0  0  0  0  0  0  0  0
   -3.4413   -0.4316   -0.0005 C   0  0  0  0  0  0  0  0  0  0  0  0
    2.8054   -0.8718    0.0133 H   0  0  0  0  0  0  0  0  0  0  0  0
    3.9249    0.8326    1.2709 H   0  0  0  0  0  0  0  0  0  0  0  0
    2.4901    0.3080    2.1668 H   0  0  0  0  0  0  0  0  0  0  0  0
    2.4863    1.8592    1.3126 H   0  0  0  0  0  0  0  0  0  0  0  0
    2.4905    0.3032   -2.1670 H   0  0  0  0  0  0  0  0  0  0  0  0
    3.9232    0.8340   -1.2719 H   0  0  0  0  0  0  0  0  0  0  0  0
    2.4822    1.8570   -1.3169 H   0  0  0  0  0  0  0  0  0  0  0  0
    0.4685    2.0921    0.0010 H   0  0  0  0  0  0  0  0  0  0  0  0
   -1.6071   -2.4170   -0.0005 H   0  0  0  0  0  0  0  0  0  0  0  0
   -3.7430   -1.4849    0.0000 H   0  0  0  0  0  0  0  0  0  0  0  0
   -3.8749    0.0273    0.8943 H   0  0  0  0  0  0  0  0  0  0  0  0
   -3.8742    0.0265   -0.8960 H   0  0  0  0  0  0  0  0  0  0  0  0
    1.7243   -2.3205   -0.6360 H   0  0  0  0  0  0  0  0  0  0  0  0
   -3.0749    1.8865   -0.0012 H   0  0  0  0  0  0  0  0  0  0  0  0
  1  7  1  0  0  0  0
  1 25  1  0  0  0  0
  2 10  1  0  0  0  0
  2 26  1  0  0  0  0
  3  4  1  0  0  0  0
  3  5  1  0  0  0  0
  3  6  1  0  0  0  0
  3 13  1  0  0  0  0
  4  7  2  0  0  0  0
  4  8  1  0  0  0  0
  5 14  1  0  0  0  0
  5 15  1  0  0  0  0
  5 16  1  0  0  0  0
  6 17  1  0  0  0  0
  6 18  1  0  0  0  0
  6 19  1  0  0  0  0
  7 11  1  0  0  0  0
  8 10  2  0  0  0  0
  8 20  1  0  0  0  0
  9 10  1  0  0  0  0
  9 11  2  0  0  0  0
  9 12  1  0  0  0  0
 11 21  1  0  0  0  0
 12 22  1  0  0  0  0
 12 23  1  0  0  0  0
 12 24  1  0  0  0  0
M  END
> <PUBCHEM_COMPOUND_CID>
95779

> <PUBCHEM_CONFORMER_RMSD>
0.4

> <PUBCHEM_CONFORMER_DIVERSEORDER>
1
2

> <PUBCHEM_MMFF94_PARTIAL_CHARGES>
14
1 -0.53
10 0.08
11 -0.15
12 0.14
2 -0.53
20 0.15
21 0.15
25 0.45
26 0.45
3 0.14
4 -0.14
7 0.08
8 -0.15
9 -0.14

> <PUBCHEM_EFFECTIVE_ROTOR_COUNT>
1

> <PUBCHEM_PHARMACOPHORE_FEATURES>
4
1 1 donor
1 2 donor
3 3 5 6 hydrophobe
6 4 7 8 9 10 11 rings

> <PUBCHEM_HEAVY_ATOM_COUNT>
12

> <PUBCHEM_ATOM_DEF_STEREO_COUNT>
0

> <PUBCHEM_ATOM_UDEF_STEREO_COUNT>
0

> <PUBCHEM_BOND_DEF_STEREO_COUNT>
0

> <PUBCHEM_BOND_UDEF_STEREO_COUNT>
0

> <PUBCHEM_ISOTOPIC_ATOM_COUNT>
0

> <PUBCHEM_COMPONENT_COUNT>
1

> <PUBCHEM_CACTVS_TAUTO_COUNT>
28

> <PUBCHEM_CONFORMER_ID>
0001762300000001

> <PUBCHEM_MMFF94_ENERGY>
33.566

> <PUBCHEM_FEATURE_SELFOVERLAP>
20.297

> <PUBCHEM_SHAPE_FINGERPRINT>
11206711 2 18411135844579123917
12423570 1 8602701339501237008
12897270 3 18411420626469343797
12932764 1 17989205940752280437
13380535 21 18196385731706211633
13538477 17 17896598582161137786
14325111 11 18410575063378341376
14614273 12 18334283245825033317
14993402 34 18114187487822273372
15775835 57 18271805752355130770
16945 1 18410574024038297863
17846911 113 18340757247445620473
193761 8 18122624946822443623
20511035 2 18052527777521478079
20645464 45 17917141818775603848
20645476 183 17605281876764991262
21028194 46 18411698772904409304
21040471 1 18410575059099042432
21501502 16 18266742372634257043
23235685 24 18335701680080276199
2334 1 17690278631017732275
23402539 116 18270947063833249718
23402655 69 18267848525109927717
23419403 2 15454993116862019609
23463225 33 18261106340460159010
23552423 10 18190184477335290207
23559900 14 18201724995432419630
2748010 2 18265616468432427799
369184 2 18059568126620410992
5084963 1 18201450189484871468
528886 8 18338516455680645939
53812653 166 18272364252722660953
53812653 8 18334584580614307036
57177213 63 18334304140650848670
7364860 26 18128251177813100766
81228 2 17694498547966239346

> <PUBCHEM_SHAPE_MULTIPOLES>
235.22
4.54
1.9
0.88
0.13
0.44
0
-1.01
0
0.44
0
-0.8
-0.18
0

> <PUBCHEM_SHAPE_SELFOVERLAP>
485.105

> <PUBCHEM_SHAPE_VOLUME>
137.5

> <PUBCHEM_COORDINATE_TYPE>
2
5
10

$$$$
