137141
  -OEChem-11012401233D

 29 30  0     0  0  0  0  0  0999 V2000
    0.0000   -0.8220    1.4736 O   0  0  0  0  0  0  0  0  0  0  0  0
    0.0000   -0.6816    0.0471 C   0  0  0  0  0  0  0  0  0  0  0  0
   -0.0001    0.8224   -0.3074 C   0  0  0  0  0  0  0  0  0  0  0  0
    1.2694   -1.3555   -0.4995 C   0  0  0  0  0  0  0  0  0  0  0  0
   -1.2693   -1.3553   -0.4998 C   0  0  0  0  0  0  0  0  0  0  0  0
    1.2655    1.5186    0.2149 C   0  0  0  0  0  0  0  0  0  0  0  0
   -1.2655    1.5186    0.2149 C   0  0  0  0  0  0  0  0  0  0  0  0
    2.5416   -0.6591   -0.0092 C   0  0  0  0  0  0  0  0  0  0  0  0
   -2.5415   -0.6593   -0.0093 C   0  0  0  0  0  0  0  0  0  0  0  0
    2.5269    0.8366   -0.3128 C   0  0  0  0  0  0  0  0  0  0  0  0
   -2.5270    0.8365   -0.3126 C   0  0  0  0  0  0  0  0  0  0  0  0
   -0.0001    0.9168   -1.4035 H   0  0  0  0  0  0  0  0  0  0  0  0
    1.2556   -1.3479   -1.5966 H   0  0  0  0  0  0  0  0  0  0  0  0
    1.3077   -2.4048   -0.1820 H   0  0  0  0  0  0  0  0  0  0  0  0
   -1.3075   -2.4048   -0.1827 H   0  0  0  0  0  0  0  0  0  0  0  0
   -1.2554   -1.3474   -1.5970 H   0  0  0  0  0  0  0  0  0  0  0  0
    1.2791    1.5150    1.3118 H   0  0  0  0  0  0  0  0  0  0  0  0
    1.2689    2.5699   -0.0970 H   0  0  0  0  0  0  0  0  0  0  0  0
   -1.2690    2.5699   -0.0970 H   0  0  0  0  0  0  0  0  0  0  0  0
   -1.2791    1.5150    1.3119 H   0  0  0  0  0  0  0  0  0  0  0  0
    3.4162   -1.1207   -0.4818 H   0  0  0  0  0  0  0  0  0  0  0  0
    2.6518   -0.8098    1.0716 H   0  0  0  0  0  0  0  0  0  0  0  0
   -2.6515   -0.8102    1.0716 H   0  0  0  0  0  0  0  0  0  0  0  0
   -3.4160   -1.1208   -0.4819 H   0  0  0  0  0  0  0  0  0  0  0  0
    3.4123    1.3102    0.1262 H   0  0  0  0  0  0  0  0  0  0  0  0
    2.5918    0.9858   -1.3977 H   0  0  0  0  0  0  0  0  0  0  0  0
   -2.5922    0.9859   -1.3975 H   0  0  0  0  0  0  0  0  0  0  0  0
   -3.4124    1.3099    0.1266 H   0  0  0  0  0  0  0  0  0  0  0  0
   -0.0002   -1.7721    1.6810 H   0  0  0  0  0  0  0  0  0  0  0  0
  1  2  1  0  0  0  0
  1 29  1  0  0  0  0
  2  3  1  0  0  0  0
  2  4  1  0  0  0  0
  2  5  1  0  0  0  0
  3  6  1  0  0  0  0
  3  7  1  0  0  0  0
  3 12  1  0  0  0  0
  4  8  1  0  0  0  0
  4 13  1  0  0  0  0
  4 14  1  0  0  0  0
  5  9  1  0  0  0  0
  5 15  1  0  0  0  0
  5 16  1  0  0  0  0
  6 10  1  0  0  0  0
  6 17  1  0  0  0  0
  6 18  1  0  0  0  0
  7 11  1  0  0  0  0
  7 19  1  0  0  0  0
  7 20  1  0  0  0  0
  8 10  1  0  0  0  0
  8 21  1  0  0  0  0
  8 22  1  0  0  0  0
  9 11  1  0  0  0  0
  9 23  1  0  0  0  0
  9 24  1  0  0  0  0
 10 25  1  0  0  0  0
 10 26  1  0  0  0  0
 11 27  1  0  0  0  0
 11 28  1  0  0  0  0
M  END
> <PUBCHEM_COMPOUND_CID>
137141

> <PUBCHEM_CONFORMER_RMSD>
0.4

> <PUBCHEM_CONFORMER_DIVERSEORDER>
1

> <PUBCHEM_MMFF94_PARTIAL_CHARGES>
3
1 -0.68
2 0.28
29 0.4

> <PUBCHEM_EFFECTIVE_ROTOR_COUNT>
1.6

> <PUBCHEM_PHARMACOPHORE_FEATURES>
4
1 1 acceptor
1 1 donor
6 2 3 4 6 8 10 rings
6 2 3 5 7 9 11 rings

> <PUBCHEM_HEAVY_ATOM_COUNT>
11

> <PUBCHEM_ATOM_DEF_STEREO_COUNT>
0

> <PUBCHEM_ATOM_UDEF_STEREO_COUNT>
0

> <PUBCHEM_BOND_DEF_STEREO_COUNT>
0

> <PUBCHEM_BOND_UDEF_STEREO_COUNT>
0

> <PUBCHEM_ISOTOPIC_ATOM_COUNT>
0

> <PUBCHEM_COMPONENT_COUNT>
1

> <PUBCHEM_CACTVS_TAUTO_COUNT>
1

> <PUBCHEM_CONFORMER_ID>
000217B500000001

> <PUBCHEM_MMFF94_ENERGY>
15.2961

> <PUBCHEM_FEATURE_SELFOVERLAP>
20.313

> <PUBCHEM_SHAPE_FINGERPRINT>
12423570 1 11959428068987174299
12491281 212 18270696276282090697
12524768 44 18412268306847640087
12897270 3 18342175591596415981
13024252 1 17677052463591508164
14325111 11 18410293613981679965
15775835 57 18260834752176533837
16945 1 18413389834430224548
17844478 74 18114475538662828777
19973954 147 18411422803864898972
20201158 50 18412544284303161102
20653085 51 18339377282990583016
21040471 1 18411417310712542612
21501502 16 18411139147081647244
23402655 69 18269823251950919949
23552423 10 18334294296627893862
241688 4 18335138661339144145
2748010 2 17113817951417620525
29004967 10 18273216374176002286
369184 2 17603301557259251462
5084963 1 17967814950592275516
528886 8 18342734143503416943
63268167 104 18336548230971954728
68250623 7 18409168800738401930

> <PUBCHEM_SHAPE_MULTIPOLES>
220.51
3.61
1.75
0.83
0
0.17
0.19
0.18
-0.37
0
-0.06
0
-0.13
0

> <PUBCHEM_SHAPE_SELFOVERLAP>
448.225

> <PUBCHEM_SHAPE_VOLUME>
126.3

> <PUBCHEM_COORDINATE_TYPE>
2
5
10

$$$$
