94790
  -OEChem-11012401163D

 16 15  0     0  0  0  0  0  0999 V2000
   -1.4070   -1.3390   -0.0001 O   0  0  0  0  0  0  0  0  0  0  0  0
    1.4068   -1.3392    0.0000 O   0  0  0  0  0  0  0  0  0  0  0  0
    0.0000    0.5204    0.0002 N   0  0  0  0  0  0  0  0  0  0  0  0
   -2.2839    0.8137    0.0001 N   0  0  0  0  0  0  0  0  0  0  0  0
    2.2840    0.8135    0.0000 N   0  0  0  0  0  0  0  0  0  0  0  0
   -3.5965    0.3841   -0.0003 N   0  0  0  0  0  0  0  0  0  0  0  0
    3.5966    0.3842   -0.0003 N   0  0  0  0  0  0  0  0  0  0  0  0
   -1.2492   -0.1188    0.0001 C   0  0  0  0  0  0  0  0  0  0  0  0
    1.2492   -0.1189    0.0002 C   0  0  0  0  0  0  0  0  0  0  0  0
    0.0001    1.5363    0.0003 H   0  0  0  0  0  0  0  0  0  0  0  0
   -2.1064    1.8124    0.0002 H   0  0  0  0  0  0  0  0  0  0  0  0
    2.1064    1.8121    0.0002 H   0  0  0  0  0  0  0  0  0  0  0  0
   -3.7221   -0.2131   -0.8166 H   0  0  0  0  0  0  0  0  0  0  0  0
   -3.7224   -0.2134    0.8158 H   0  0  0  0  0  0  0  0  0  0  0  0
    3.7223   -0.2130   -0.8166 H   0  0  0  0  0  0  0  0  0  0  0  0
    3.7227   -0.2132    0.8158 H   0  0  0  0  0  0  0  0  0  0  0  0
  1  8  2  0  0  0  0
  2  9  2  0  0  0  0
  3  8  1  0  0  0  0
  3  9  1  0  0  0  0
  3 10  1  0  0  0  0
  4  6  1  0  0  0  0
  4  8  1  0  0  0  0
  4 11  1  0  0  0  0
  5  7  1  0  0  0  0
  5  9  1  0  0  0  0
  5 12  1  0  0  0  0
  6 13  1  0  0  0  0
  6 14  1  0  0  0  0
  7 15  1  0  0  0  0
  7 16  1  0  0  0  0
M  END
> <PUBCHEM_COMPOUND_CID>
94790

> <PUBCHEM_CONFORMER_RMSD>
0.6

> <PUBCHEM_CONFORMER_DIVERSEORDER>
1
2

> <PUBCHEM_MMFF94_PARTIAL_CHARGES>
16
1 -0.57
10 0.37
11 0.37
12 0.37
13 0.36
14 0.36
15 0.36
16 0.36
2 -0.57
3 -0.49
4 -0.42
5 -0.42
6 -0.73
7 -0.73
8 0.69
9 0.69

> <PUBCHEM_EFFECTIVE_ROTOR_COUNT>
4

> <PUBCHEM_PHARMACOPHORE_FEATURES>
7
1 1 acceptor
1 2 acceptor
1 3 donor
1 4 donor
1 5 donor
1 6 donor
1 7 donor

> <PUBCHEM_HEAVY_ATOM_COUNT>
9

> <PUBCHEM_ATOM_DEF_STEREO_COUNT>
0

> <PUBCHEM_ATOM_UDEF_STEREO_COUNT>
0

> <PUBCHEM_BOND_DEF_STEREO_COUNT>
0

> <PUBCHEM_BOND_UDEF_STEREO_COUNT>
0

> <PUBCHEM_ISOTOPIC_ATOM_COUNT>
0

> <PUBCHEM_COMPONENT_COUNT>
1

> <PUBCHEM_CACTVS_TAUTO_COUNT>
5

> <PUBCHEM_CONFORMER_ID>
0001724600000001

> <PUBCHEM_MMFF94_ENERGY>
14.1955

> <PUBCHEM_FEATURE_SELFOVERLAP>
38.639

> <PUBCHEM_SHAPE_FINGERPRINT>
11062470 55 18411136935131434597
14325111 11 18410855417700793217
14390081 3 18272086110487545456
21040471 1 18410855464433821507
23235685 24 18410849962570100869
29004967 10 15213298612409440724
5460574 1 9223228550856499809

> <PUBCHEM_SHAPE_MULTIPOLES>
148.57
5.17
1.09
0.54
0
0.34
0
-1.32
0
0
0
0
0
0

> <PUBCHEM_SHAPE_SELFOVERLAP>
279.919

> <PUBCHEM_SHAPE_VOLUME>
91.4

> <PUBCHEM_COORDINATE_TYPE>
2
5
10

$$$$
