143615
  -OEChem-11012400533D

 54 57  0     0  0  0  0  0  0999 V2000
    0.7385    0.8280   -0.2291 C   0  0  0  0  0  0  0  0  0  0  0  0
   -0.7385    0.8280    0.2291 C   0  0  0  0  0  0  0  0  0  0  0  0
    1.3862    2.1585    0.2610 C   0  0  0  0  0  0  0  0  0  0  0  0
    0.7715    0.8712   -1.7863 C   0  0  0  0  0  0  0  0  0  0  0  0
   -1.3863    2.1585   -0.2611 C   0  0  0  0  0  0  0  0  0  0  0  0
   -0.7716    0.8712    1.7863 C   0  0  0  0  0  0  0  0  0  0  0  0
    1.3805   -0.4532    0.3464 C   0  0  0  0  0  0  0  0  0  0  0  0
   -1.3804   -0.4533   -0.3464 C   0  0  0  0  0  0  0  0  0  0  0  0
    2.7977    2.3875   -0.2879 C   0  0  0  0  0  0  0  0  0  0  0  0
    2.1839    1.0562   -2.3441 C   0  0  0  0  0  0  0  0  0  0  0  0
   -2.7979    2.3874    0.2879 C   0  0  0  0  0  0  0  0  0  0  0  0
   -2.1840    1.0560    2.3440 C   0  0  0  0  0  0  0  0  0  0  0  0
    2.8283    2.3304   -1.8110 C   0  0  0  0  0  0  0  0  0  0  0  0
   -2.8284    2.3303    1.8109 C   0  0  0  0  0  0  0  0  0  0  0  0
    1.9611   -0.4260    1.6102 C   0  0  0  0  0  0  0  0  0  0  0  0
   -1.9611   -0.4261   -1.6102 C   0  0  0  0  0  0  0  0  0  0  0  0
    1.3729   -1.6251   -0.4031 C   0  0  0  0  0  0  0  0  0  0  0  0
   -1.3728   -1.6252    0.4031 C   0  0  0  0  0  0  0  0  0  0  0  0
    2.5408   -1.5831    2.1301 C   0  0  0  0  0  0  0  0  0  0  0  0
   -2.5407   -1.5834   -2.1301 C   0  0  0  0  0  0  0  0  0  0  0  0
    1.9525   -2.7824    0.1170 C   0  0  0  0  0  0  0  0  0  0  0  0
   -1.9523   -2.7825   -0.1170 C   0  0  0  0  0  0  0  0  0  0  0  0
    2.5364   -2.7613    1.3836 C   0  0  0  0  0  0  0  0  0  0  0  0
   -2.5363   -2.7615   -1.3836 C   0  0  0  0  0  0  0  0  0  0  0  0
    1.4544    2.2665    1.3442 H   0  0  0  0  0  0  0  0  0  0  0  0
    0.8778    3.0488   -0.1060 H   0  0  0  0  0  0  0  0  0  0  0  0
    0.2084    1.7198   -2.1841 H   0  0  0  0  0  0  0  0  0  0  0  0
    0.3689   -0.0096   -2.2857 H   0  0  0  0  0  0  0  0  0  0  0  0
   -1.4547    2.2664   -1.3442 H   0  0  0  0  0  0  0  0  0  0  0  0
   -0.8780    3.0488    0.1061 H   0  0  0  0  0  0  0  0  0  0  0  0
   -0.2086    1.7198    2.1840 H   0  0  0  0  0  0  0  0  0  0  0  0
   -0.3689   -0.0095    2.2857 H   0  0  0  0  0  0  0  0  0  0  0  0
    3.4843    1.6358    0.1184 H   0  0  0  0  0  0  0  0  0  0  0  0
    3.1708    3.3629    0.0465 H   0  0  0  0  0  0  0  0  0  0  0  0
    2.1407    1.1063   -3.4387 H   0  0  0  0  0  0  0  0  0  0  0  0
    2.8142    0.1947   -2.0970 H   0  0  0  0  0  0  0  0  0  0  0  0
   -3.4845    1.6356   -0.1184 H   0  0  0  0  0  0  0  0  0  0  0  0
   -3.1712    3.3628   -0.0465 H   0  0  0  0  0  0  0  0  0  0  0  0
   -2.1408    1.1061    3.4386 H   0  0  0  0  0  0  0  0  0  0  0  0
   -2.8142    0.1945    2.0969 H   0  0  0  0  0  0  0  0  0  0  0  0
    2.2993    3.2016   -2.2171 H   0  0  0  0  0  0  0  0  0  0  0  0
    3.8638    2.3973   -2.1631 H   0  0  0  0  0  0  0  0  0  0  0  0
   -2.2993    3.2015    2.2170 H   0  0  0  0  0  0  0  0  0  0  0  0
   -3.8638    2.3973    2.1632 H   0  0  0  0  0  0  0  0  0  0  0  0
    1.9966    0.4640    2.2273 H   0  0  0  0  0  0  0  0  0  0  0  0
   -1.9966    0.4638   -2.2273 H   0  0  0  0  0  0  0  0  0  0  0  0
    0.9536   -1.7059   -1.3983 H   0  0  0  0  0  0  0  0  0  0  0  0
   -0.9534   -1.7060    1.3983 H   0  0  0  0  0  0  0  0  0  0  0  0
    2.9970   -1.5671    3.1157 H   0  0  0  0  0  0  0  0  0  0  0  0
   -2.9969   -1.5674   -3.1156 H   0  0  0  0  0  0  0  0  0  0  0  0
    1.9524   -3.6995   -0.4650 H   0  0  0  0  0  0  0  0  0  0  0  0
   -1.9522   -3.6995    0.4651 H   0  0  0  0  0  0  0  0  0  0  0  0
    2.9886   -3.6622    1.7881 H   0  0  0  0  0  0  0  0  0  0  0  0
   -2.9883   -3.6623   -1.7880 H   0  0  0  0  0  0  0  0  0  0  0  0
  1  2  1  0  0  0  0
  1  3  1  0  0  0  0
  1  4  1  0  0  0  0
  1  7  1  0  0  0  0
  2  5  1  0  0  0  0
  2  6  1  0  0  0  0
  2  8  1  0  0  0  0
  3  9  1  0  0  0  0
  3 25  1  0  0  0  0
  3 26  1  0  0  0  0
  4 10  1  0  0  0  0
  4 27  1  0  0  0  0
  4 28  1  0  0  0  0
  5 11  1  0  0  0  0
  5 29  1  0  0  0  0
  5 30  1  0  0  0  0
  6 12  1  0  0  0  0
  6 31  1  0  0  0  0
  6 32  1  0  0  0  0
  7 15  2  0  0  0  0
  7 17  1  0  0  0  0
  8 16  2  0  0  0  0
  8 18  1  0  0  0  0
  9 13  1  0  0  0  0
  9 33  1  0  0  0  0
  9 34  1  0  0  0  0
 10 13  1  0  0  0  0
 10 35  1  0  0  0  0
 10 36  1  0  0  0  0
 11 14  1  0  0  0  0
 11 37  1  0  0  0  0
 11 38  1  0  0  0  0
 12 14  1  0  0  0  0
 12 39  1  0  0  0  0
 12 40  1  0  0  0  0
 13 41  1  0  0  0  0
 13 42  1  0  0  0  0
 14 43  1  0  0  0  0
 14 44  1  0  0  0  0
 15 19  1  0  0  0  0
 15 45  1  0  0  0  0
 16 20  1  0  0  0  0
 16 46  1  0  0  0  0
 17 21  2  0  0  0  0
 17 47  1  0  0  0  0
 18 22  2  0  0  0  0
 18 48  1  0  0  0  0
 19 23  2  0  0  0  0
 19 49  1  0  0  0  0
 20 24  2  0  0  0  0
 20 50  1  0  0  0  0
 21 23  1  0  0  0  0
 21 51  1  0  0  0  0
 22 24  1  0  0  0  0
 22 52  1  0  0  0  0
 23 53  1  0  0  0  0
 24 54  1  0  0  0  0
M  END
> <PUBCHEM_COMPOUND_CID>
143615

> <PUBCHEM_CONFORMER_RMSD>
0.8

> <PUBCHEM_CONFORMER_DIVERSEORDER>
3
2
1

> <PUBCHEM_MMFF94_PARTIAL_CHARGES>
24
1 0.14
15 -0.15
16 -0.15
17 -0.15
18 -0.15
19 -0.15
2 0.14
20 -0.15
21 -0.15
22 -0.15
23 -0.15
24 -0.15
45 0.15
46 0.15
47 0.15
48 0.15
49 0.15
50 0.15
51 0.15
52 0.15
53 0.15
54 0.15
7 -0.14
8 -0.14

> <PUBCHEM_EFFECTIVE_ROTOR_COUNT>
5.4

> <PUBCHEM_PHARMACOPHORE_FEATURES>
4
6 1 3 4 9 10 13 rings
6 2 5 6 11 12 14 rings
6 7 15 17 19 21 23 rings
6 8 16 18 20 22 24 rings

> <PUBCHEM_HEAVY_ATOM_COUNT>
24

> <PUBCHEM_ATOM_DEF_STEREO_COUNT>
0

> <PUBCHEM_ATOM_UDEF_STEREO_COUNT>
0

> <PUBCHEM_BOND_DEF_STEREO_COUNT>
0

> <PUBCHEM_BOND_UDEF_STEREO_COUNT>
0

> <PUBCHEM_ISOTOPIC_ATOM_COUNT>
0

> <PUBCHEM_COMPONENT_COUNT>
1

> <PUBCHEM_CACTVS_TAUTO_COUNT>
1

> <PUBCHEM_CONFORMER_ID>
000230FF00000003

> <PUBCHEM_MMFF94_ENERGY>
107.429

> <PUBCHEM_FEATURE_SELFOVERLAP>
20.3

> <PUBCHEM_SHAPE_FINGERPRINT>
10863032 1 17535999462691375079
12035759 4 18336262444153943326
121448 382 17974862966593421500
12592029 89 17097760533587653462
12633257 1 17481112658693783194
12788726 201 18131350856237728901
133893 2 17749384888787566542
14943834 7 18410573989446437920
14955137 171 18049468975323570138
16945 1 18194372620030611270
18981168 100 15051737511884822098
20600515 1 17978192068664029814
21421861 104 18410292549220148451
229495 10 16445060525219287743
23419403 2 16756547844362073802
23558518 356 17836389389722825336
266924 78 17894353297596764111
2748010 2 16754371610171293974
298252 57 17553535419150591196
3380486 145 17826768384164931960
35225 105 17774739584027500483
394222 165 17099436197893336656
5845 1 12408863342803784909
68419 9 18341337750845951816
6992083 37 18050833442924595683
70251023 43 17844814869774020855
7226269 152 17619338153916553296
81228 2 18050259527946730027

> <PUBCHEM_SHAPE_MULTIPOLES>
493.91
4.62
3.89
2.41
0
1.03
0
-0.28
0
0
0
0
-0.22
-3.28

> <PUBCHEM_SHAPE_SELFOVERLAP>
1074.704

> <PUBCHEM_SHAPE_VOLUME>
256.4

> <PUBCHEM_COORDINATE_TYPE>
2
5
10

$$$$
