12600340
  -OEChem-11012400563D

 18 20  0     1  0  0  0  0  0999 V2000
   -0.9554    0.7574    0.4967 C   0  0  2  0  0  0  0  0  0  0  0  0
   -0.9555   -0.7572    0.4968 C   0  0  1  0  0  0  0  0  0  0  0  0
   -2.1389    0.0000   -0.0505 C   0  0  0  0  0  0  0  0  0  0  0  0
    0.3095    1.1160   -0.2963 C   0  0  2  0  0  0  0  0  0  0  0  0
    0.3095   -1.1160   -0.2962 C   0  0  1  0  0  0  0  0  0  0  0  0
    0.3775   -0.0001   -1.3575 C   0  0  0  0  0  0  0  0  0  0  0  0
    1.5267    0.6730    0.5034 C   0  0  0  0  0  0  0  0  0  0  0  0
    1.5266   -0.6730    0.5035 C   0  0  0  0  0  0  0  0  0  0  0  0
   -1.0593    1.2832    1.4357 H   0  0  0  0  0  0  0  0  0  0  0  0
   -1.0593   -1.2829    1.4359 H   0  0  0  0  0  0  0  0  0  0  0  0
   -3.0461    0.0001    0.5451 H   0  0  0  0  0  0  0  0  0  0  0  0
   -2.3374   -0.0001   -1.1129 H   0  0  0  0  0  0  0  0  0  0  0  0
    0.3528    2.1292   -0.6967 H   0  0  0  0  0  0  0  0  0  0  0  0
    0.3527   -2.1294   -0.6965 H   0  0  0  0  0  0  0  0  0  0  0  0
   -0.4618    0.0000   -2.0583 H   0  0  0  0  0  0  0  0  0  0  0  0
    1.3070   -0.0001   -1.9437 H   0  0  0  0  0  0  0  0  0  0  0  0
    2.2282    1.3179    1.0075 H   0  0  0  0  0  0  0  0  0  0  0  0
    2.2280   -1.3180    1.0076 H   0  0  0  0  0  0  0  0  0  0  0  0
  1  2  1  0  0  0  0
  1  3  1  0  0  0  0
  1  4  1  0  0  0  0
  1  9  1  0  0  0  0
  2  3  1  0  0  0  0
  2  5  1  0  0  0  0
  2 10  1  0  0  0  0
  3 11  1  0  0  0  0
  3 12  1  0  0  0  0
  4  6  1  0  0  0  0
  4  7  1  0  0  0  0
  4 13  1  0  0  0  0
  5  6  1  0  0  0  0
  5  8  1  0  0  0  0
  5 14  1  0  0  0  0
  6 15  1  0  0  0  0
  6 16  1  0  0  0  0
  7  8  2  0  0  0  0
  7 17  1  0  0  0  0
  8 18  1  0  0  0  0
M  END
> <PUBCHEM_COMPOUND_CID>
12600340

> <PUBCHEM_CONFORMER_RMSD>
0.4

> <PUBCHEM_CONFORMER_DIVERSEORDER>
1

> <PUBCHEM_MMFF94_PARTIAL_CHARGES>
13
1 -0.19
10 0.1
11 0.1
12 0.1
17 0.15
18 0.15
2 -0.19
3 -0.2
4 0.23
5 0.23
7 -0.29
8 -0.29
9 0.1

> <PUBCHEM_EFFECTIVE_ROTOR_COUNT>
0.4

> <PUBCHEM_PHARMACOPHORE_FEATURES>
1
8 1 2 3 4 5 6 7 8 rings

> <PUBCHEM_HEAVY_ATOM_COUNT>
8

> <PUBCHEM_ATOM_DEF_STEREO_COUNT>
4

> <PUBCHEM_ATOM_UDEF_STEREO_COUNT>
0

> <PUBCHEM_BOND_DEF_STEREO_COUNT>
0

> <PUBCHEM_BOND_UDEF_STEREO_COUNT>
0

> <PUBCHEM_ISOTOPIC_ATOM_COUNT>
0

> <PUBCHEM_COMPONENT_COUNT>
1

> <PUBCHEM_CACTVS_TAUTO_COUNT>
1

> <PUBCHEM_CONFORMER_ID>
00C0441400000001

> <PUBCHEM_MMFF94_ENERGY>
50.9067

> <PUBCHEM_FEATURE_SELFOVERLAP>
5.074

> <PUBCHEM_SHAPE_FINGERPRINT>
12423570 1 14937536891311122366
13024252 1 14130437924600638688
137420 1 11013599523631879494
16945 1 18410567388092234098
21040471 1 18339087085024861041
29004967 10 15574715789662428552
369184 2 18122310628410058576
5084963 1 17203608189926130898

> <PUBCHEM_SHAPE_MULTIPOLES>
164.64
2.04
1.18
0.99
0.54
0
0.26
0
-0.35
-0.13
-0.04
-0.13
0
0

> <PUBCHEM_SHAPE_SELFOVERLAP>
367.585

> <PUBCHEM_SHAPE_VOLUME>
91

> <PUBCHEM_COORDINATE_TYPE>
2
5
10

$$$$
