7108
  -OEChem-11012400483D

 23 25  0     0  0  0  0  0  0999 V2000
    0.0000    1.8702   -0.0016 S   0  0  0  0  0  0  0  0  0  0  0  0
    0.0001   -1.2549   -0.0011 N   0  0  0  0  0  0  0  0  0  0  0  0
    1.2589   -0.6341   -0.0008 C   0  0  0  0  0  0  0  0  0  0  0  0
   -1.2588   -0.6340   -0.0007 C   0  0  0  0  0  0  0  0  0  0  0  0
    1.3996    0.7626   -0.0007 C   0  0  0  0  0  0  0  0  0  0  0  0
   -1.3996    0.7626   -0.0005 C   0  0  0  0  0  0  0  0  0  0  0  0
    2.4146   -1.4336    0.0000 C   0  0  0  0  0  0  0  0  0  0  0  0
   -2.4146   -1.4337   -0.0001 C   0  0  0  0  0  0  0  0  0  0  0  0
    2.6823    1.3323    0.0002 C   0  0  0  0  0  0  0  0  0  0  0  0
   -2.6824    1.3323    0.0007 C   0  0  0  0  0  0  0  0  0  0  0  0
    3.6853   -0.8593    0.0010 C   0  0  0  0  0  0  0  0  0  0  0  0
   -3.6853   -0.8593    0.0006 C   0  0  0  0  0  0  0  0  0  0  0  0
    3.8189    0.5243    0.0014 C   0  0  0  0  0  0  0  0  0  0  0  0
   -3.8190    0.5243    0.0014 C   0  0  0  0  0  0  0  0  0  0  0  0
    0.0000   -2.2686   -0.0013 H   0  0  0  0  0  0  0  0  0  0  0  0
    2.3297   -2.5183   -0.0001 H   0  0  0  0  0  0  0  0  0  0  0  0
   -2.3296   -2.5184   -0.0004 H   0  0  0  0  0  0  0  0  0  0  0  0
    2.8130    2.4125    0.0003 H   0  0  0  0  0  0  0  0  0  0  0  0
   -2.8131    2.4125    0.0010 H   0  0  0  0  0  0  0  0  0  0  0  0
    4.5679   -1.4920    0.0017 H   0  0  0  0  0  0  0  0  0  0  0  0
   -4.5679   -1.4921    0.0010 H   0  0  0  0  0  0  0  0  0  0  0  0
    4.8065    0.9760    0.0023 H   0  0  0  0  0  0  0  0  0  0  0  0
   -4.8066    0.9759    0.0022 H   0  0  0  0  0  0  0  0  0  0  0  0
  1  5  1  0  0  0  0
  1  6  1  0  0  0  0
  2  3  1  0  0  0  0
  2  4  1  0  0  0  0
  2 15  1  0  0  0  0
  3  5  1  0  0  0  0
  3  7  2  0  0  0  0
  4  6  1  0  0  0  0
  4  8  2  0  0  0  0
  5  9  2  0  0  0  0
  6 10  2  0  0  0  0
  7 11  1  0  0  0  0
  7 16  1  0  0  0  0
  8 12  1  0  0  0  0
  8 17  1  0  0  0  0
  9 13  1  0  0  0  0
  9 18  1  0  0  0  0
 10 14  1  0  0  0  0
 10 19  1  0  0  0  0
 11 13  2  0  0  0  0
 11 20  1  0  0  0  0
 12 14  2  0  0  0  0
 12 21  1  0  0  0  0
 13 22  1  0  0  0  0
 14 23  1  0  0  0  0
M  END
> <PUBCHEM_COMPOUND_CID>
7108

> <PUBCHEM_CONFORMER_RMSD>
0.4

> <PUBCHEM_CONFORMER_DIVERSEORDER>
1

> <PUBCHEM_MMFF94_PARTIAL_CHARGES>
23
1 -0.2
10 -0.15
11 -0.15
12 -0.15
13 -0.15
14 -0.15
15 0.4
16 0.15
17 0.15
18 0.15
19 0.15
2 -0.6
20 0.15
21 0.15
22 0.15
23 0.15
3 0.1
4 0.1
5 0.1
6 0.1
7 -0.15
8 -0.15
9 -0.15

> <PUBCHEM_EFFECTIVE_ROTOR_COUNT>
0.4

> <PUBCHEM_PHARMACOPHORE_FEATURES>
5
1 2 cation
1 2 donor
6 1 2 3 4 5 6 rings
6 3 5 7 9 11 13 rings
6 4 6 8 10 12 14 rings

> <PUBCHEM_HEAVY_ATOM_COUNT>
14

> <PUBCHEM_ATOM_DEF_STEREO_COUNT>
0

> <PUBCHEM_ATOM_UDEF_STEREO_COUNT>
0

> <PUBCHEM_BOND_DEF_STEREO_COUNT>
0

> <PUBCHEM_BOND_UDEF_STEREO_COUNT>
0

> <PUBCHEM_ISOTOPIC_ATOM_COUNT>
0

> <PUBCHEM_COMPONENT_COUNT>
1

> <PUBCHEM_CACTVS_TAUTO_COUNT>
1

> <PUBCHEM_CONFORMER_ID>
00001BC400000001

> <PUBCHEM_MMFF94_ENERGY>
45.7294

> <PUBCHEM_FEATURE_SELFOVERLAP>
25.402

> <PUBCHEM_SHAPE_FINGERPRINT>
10608611 8 18410570690911918368
10967382 1 18410573972361657190
10980938 120 18410575093559111538
11132069 177 18411131441894591432
11471102 20 18410852161846512188
11806522 49 18337950220356883031
12032990 46 18410860957686398115
13221675 6 18410573985151477122
13296908 3 18410575088958091687
13380535 76 18410856563935179111
14144814 61 18410856551060424107
14325111 11 18410856563940161536
15196674 1 18410573989446509381
15219456 202 18412262839311957156
15442244 35 18194682562382784906
15536298 74 18342458149290032840
15775835 57 18410859858174744356
16945 1 18194401087105250816
17802600 8 18410849962570198305
18186145 218 17967247581175645630
18522853 276 18413669114699875968
200 152 18059565910950016901
20201158 50 18410856551055259699
20510252 161 18272371927860945433
20645477 70 18341047432632215039
21267235 1 18410865360028149346
21501502 16 18410856559639815556
21501925 9 18410002243774534474
221490 88 18336273447876057722
2334 1 18410575119022817282
23402539 116 18343291565870825870
23402655 69 18412823564493671741
23463225 33 18409167705637643156
23559900 14 18341326683432726226
2748010 2 18411136939405134148
3312278 4 18411703187946257801
335352 9 18122626041759471229
474 4 17096657697961516372
5104073 3 18410855460128169281
528886 8 18411414012066733706
537710 114 18411143553681520421
53812653 166 18343297110869004664
57096353 35 18338236080104611862
69090 78 18342452643168443743
7364860 26 18269273650133550208
77779 3 18410577283686392934
8809292 202 18260834820943528939
9709674 26 18411423924920454670

> <PUBCHEM_SHAPE_MULTIPOLES>
286.98
7.03
1.83
0.62
0
0.21
0
-0.61
0
0
0
0
0.02
0

> <PUBCHEM_SHAPE_SELFOVERLAP>
621.657

> <PUBCHEM_SHAPE_VOLUME>
156.1

> <PUBCHEM_COORDINATE_TYPE>
2
5
10

$$$$
