143213
  -OEChem-11012400403D

 49 50  0     0  0  0  0  0  0999 V2000
    3.7920   -0.1490   -0.4072 C   0  0  0  0  0  0  0  0  0  0  0  0
   -3.7737   -0.1384    0.3998 C   0  0  0  0  0  0  0  0  0  0  0  0
    5.0267   -1.0410   -0.5945 C   0  0  0  0  0  0  0  0  0  0  0  0
    3.9685    0.7818    0.8001 C   0  0  0  0  0  0  0  0  0  0  0  0
   -3.9888    0.7216   -0.8529 C   0  0  0  0  0  0  0  0  0  0  0  0
   -5.0069   -1.0061    0.6852 C   0  0  0  0  0  0  0  0  0  0  0  0
    2.5314   -0.9979   -0.2541 C   0  0  0  0  0  0  0  0  0  0  0  0
   -2.5260   -1.0069    0.2503 C   0  0  0  0  0  0  0  0  0  0  0  0
    6.3078   -0.2164   -0.6965 C   0  0  0  0  0  0  0  0  0  0  0  0
    5.2514    1.6036    0.6955 C   0  0  0  0  0  0  0  0  0  0  0  0
   -5.2607    1.5601   -0.7495 C   0  0  0  0  0  0  0  0  0  0  0  0
   -6.2772   -0.1647    0.7859 C   0  0  0  0  0  0  0  0  0  0  0  0
    1.2465   -0.1726   -0.1588 C   0  0  0  0  0  0  0  0  0  0  0  0
   -1.2675   -0.1552    0.0846 C   0  0  0  0  0  0  0  0  0  0  0  0
    6.4753    0.7140    0.5008 C   0  0  0  0  0  0  0  0  0  0  0  0
   -6.4829    0.6952   -0.4572 C   0  0  0  0  0  0  0  0  0  0  0  0
   -0.0158   -1.0282   -0.0314 C   0  0  0  0  0  0  0  0  0  0  0  0
    3.6831    0.4719   -1.3071 H   0  0  0  0  0  0  0  0  0  0  0  0
   -3.6295    0.5331    1.2576 H   0  0  0  0  0  0  0  0  0  0  0  0
    4.9160   -1.6486   -1.5006 H   0  0  0  0  0  0  0  0  0  0  0  0
    5.1142   -1.7394    0.2477 H   0  0  0  0  0  0  0  0  0  0  0  0
    3.9868    0.1964    1.7281 H   0  0  0  0  0  0  0  0  0  0  0  0
    3.1357    1.4876    0.8795 H   0  0  0  0  0  0  0  0  0  0  0  0
   -4.0461    0.0830   -1.7435 H   0  0  0  0  0  0  0  0  0  0  0  0
   -3.1583    1.4172   -1.0067 H   0  0  0  0  0  0  0  0  0  0  0  0
   -4.8666   -1.5604    1.6208 H   0  0  0  0  0  0  0  0  0  0  0  0
   -5.1309   -1.7519   -0.1104 H   0  0  0  0  0  0  0  0  0  0  0  0
    2.4486   -1.6760   -1.1132 H   0  0  0  0  0  0  0  0  0  0  0  0
    2.6163   -1.6345    0.6361 H   0  0  0  0  0  0  0  0  0  0  0  0
   -2.6328   -1.6802   -0.6096 H   0  0  0  0  0  0  0  0  0  0  0  0
   -2.4156   -1.6419    1.1382 H   0  0  0  0  0  0  0  0  0  0  0  0
    6.2873    0.3762   -1.6195 H   0  0  0  0  0  0  0  0  0  0  0  0
    7.1722   -0.8862   -0.7664 H   0  0  0  0  0  0  0  0  0  0  0  0
    5.3765    2.2087    1.6006 H   0  0  0  0  0  0  0  0  0  0  0  0
    5.1701    2.3018   -0.1467 H   0  0  0  0  0  0  0  0  0  0  0  0
   -5.1428    2.3060    0.0464 H   0  0  0  0  0  0  0  0  0  0  0  0
   -5.4155    2.1120   -1.6836 H   0  0  0  0  0  0  0  0  0  0  0  0
   -7.1433   -0.8210    0.9273 H   0  0  0  0  0  0  0  0  0  0  0  0
   -6.2178    0.4809    1.6709 H   0  0  0  0  0  0  0  0  0  0  0  0
    1.1629    0.4705   -1.0436 H   0  0  0  0  0  0  0  0  0  0  0  0
    1.2851    0.4863    0.7148 H   0  0  0  0  0  0  0  0  0  0  0  0
   -1.1662    0.5250    0.9388 H   0  0  0  0  0  0  0  0  0  0  0  0
   -1.3242    0.4585   -0.8196 H   0  0  0  0  0  0  0  0  0  0  0  0
    7.3660    1.3370    0.3622 H   0  0  0  0  0  0  0  0  0  0  0  0
    6.6401    0.1171    1.4063 H   0  0  0  0  0  0  0  0  0  0  0  0
   -7.3633    1.3337   -0.3227 H   0  0  0  0  0  0  0  0  0  0  0  0
   -6.6860    0.0478   -1.3191 H   0  0  0  0  0  0  0  0  0  0  0  0
    0.0681   -1.6716    0.8528 H   0  0  0  0  0  0  0  0  0  0  0  0
   -0.1031   -1.6866   -0.9041 H   0  0  0  0  0  0  0  0  0  0  0  0
  1  3  1  0  0  0  0
  1  4  1  0  0  0  0
  1  7  1  0  0  0  0
  1 18  1  0  0  0  0
  2  5  1  0  0  0  0
  2  6  1  0  0  0  0
  2  8  1  0  0  0  0
  2 19  1  0  0  0  0
  3  9  1  0  0  0  0
  3 20  1  0  0  0  0
  3 21  1  0  0  0  0
  4 10  1  0  0  0  0
  4 22  1  0  0  0  0
  4 23  1  0  0  0  0
  5 11  1  0  0  0  0
  5 24  1  0  0  0  0
  5 25  1  0  0  0  0
  6 12  1  0  0  0  0
  6 26  1  0  0  0  0
  6 27  1  0  0  0  0
  7 13  1  0  0  0  0
  7 28  1  0  0  0  0
  7 29  1  0  0  0  0
  8 14  1  0  0  0  0
  8 30  1  0  0  0  0
  8 31  1  0  0  0  0
  9 15  1  0  0  0  0
  9 32  1  0  0  0  0
  9 33  1  0  0  0  0
 10 15  1  0  0  0  0
 10 34  1  0  0  0  0
 10 35  1  0  0  0  0
 11 16  1  0  0  0  0
 11 36  1  0  0  0  0
 11 37  1  0  0  0  0
 12 16  1  0  0  0  0
 12 38  1  0  0  0  0
 12 39  1  0  0  0  0
 13 17  1  0  0  0  0
 13 40  1  0  0  0  0
 13 41  1  0  0  0  0
 14 17  1  0  0  0  0
 14 42  1  0  0  0  0
 14 43  1  0  0  0  0
 15 44  1  0  0  0  0
 15 45  1  0  0  0  0
 16 46  1  0  0  0  0
 16 47  1  0  0  0  0
 17 48  1  0  0  0  0
 17 49  1  0  0  0  0
M  END
> <PUBCHEM_COMPOUND_CID>
143213

> <PUBCHEM_CONFORMER_RMSD>
0.8

> <PUBCHEM_CONFORMER_DIVERSEORDER>
1
27
58
9
67
80
40
41
64
10
63
31
53
3
29
52
34
13
39
54
24
49
69
65
57
50
38
72
2
14
44
62
45
51
7
68
4
20
61
42
77
25
21
79
47
5
78
66
33
76
59
32
6
28
18
19
23
70
22
15
74
75
8
43
11
17
81
55
35
16
30
36
26
60
56
71
37
48
12
46
73

> <PUBCHEM_MMFF94_PARTIAL_CHARGES>
0

> <PUBCHEM_EFFECTIVE_ROTOR_COUNT>
8.4

> <PUBCHEM_PHARMACOPHORE_FEATURES>
3
5 7 8 13 14 17 hydrophobe
6 1 3 4 9 10 15 rings
6 2 5 6 11 12 16 rings

> <PUBCHEM_HEAVY_ATOM_COUNT>
17

> <PUBCHEM_ATOM_DEF_STEREO_COUNT>
0

> <PUBCHEM_ATOM_UDEF_STEREO_COUNT>
0

> <PUBCHEM_BOND_DEF_STEREO_COUNT>
0

> <PUBCHEM_BOND_UDEF_STEREO_COUNT>
0

> <PUBCHEM_ISOTOPIC_ATOM_COUNT>
0

> <PUBCHEM_COMPONENT_COUNT>
1

> <PUBCHEM_CACTVS_TAUTO_COUNT>
1

> <PUBCHEM_CONFORMER_ID>
00022F6D00000001

> <PUBCHEM_MMFF94_ENERGY>
8.3769

> <PUBCHEM_FEATURE_SELFOVERLAP>
15.223

> <PUBCHEM_SHAPE_FINGERPRINT>
10 15 18186802521191246560
10354089 29 17530683217108286540
10638233 991 16559030518907369760
12091667 2 18187367640757403291
12236239 1 15841554067452248543
125118 31 18260832596398766268
12596602 18 16081090393699005136
12730499 353 18413111645726487742
13073987 5 17895474722543161043
13167372 99 17703799072091017296
13288520 33 11455886967236229203
13403585 85 18186800279756511597
13533116 47 18040992887456488258
14123256 10 16559030497448220448
1420 363 18411141333151396551
14251764 18 15719397247558994175
14251764 46 18410573985151483627
14729087 3 18334290959580976493
14933364 13 18410295813009898336
15183329 4 15985104115241608392
15348495 7 18187649175335895496
15716309 27 12829488151575665009
16079462 125 18410567388087056693
17834076 25 17385444319137071778
19489759 90 17675926499856229209
20157964 124 17917713500761586678
20281389 69 18260546705894481421
20645477 56 18408038511876110399
21150785 3 16558743542436163981
221357 26 17847063264364305888
23035841 295 11887953255177922103
23081809 10 15647060386173694791
23198884 109 16271927117016084599
23402539 116 17822291301702693527
23559900 14 17703783760300550427
2916195 48 18408037429253993585
29717793 49 16128664042025390052
300161 21 18411696590829427462
3014965 18 18270680866535797902
3545911 37 18410295808709890174
4073 2 18188214311855600954
4325135 7 15770060518679523329
441001 317 18336828602833166793
5104073 3 17896038754844035779
542803 24 16558752312769970731
59682541 35 18187656812800467963
59755656 215 18337113371833743262

> <PUBCHEM_SHAPE_MULTIPOLES>
349.85
20.91
1.35
0.93
0.19
0.25
0.01
5.07
0.26
0.1
0
-0.11
0.1
1.85

> <PUBCHEM_SHAPE_SELFOVERLAP>
679.287

> <PUBCHEM_SHAPE_VOLUME>
207.1

> <PUBCHEM_COORDINATE_TYPE>
2
5
10

$$$$
