140123
  -OEChem-11012401173D

 10 10  0     0  0  0  0  0  0999 V2000
    0.6941    0.0430    0.0000 N   0  0  0  0  0  0  0  0  0  0  0  0
   -0.0015   -1.1027   -0.0001 N   0  0  0  0  0  0  0  0  0  0  0  0
   -1.3902    0.6415   -0.0002 N   0  0  0  0  0  0  0  0  0  0  0  0
   -1.2757   -0.7303    0.0002 N   0  0  0  0  0  0  0  0  0  0  0  0
    2.1328    0.0488    0.0000 C   0  0  0  0  0  0  0  0  0  0  0  0
   -0.1595    1.0997    0.0001 C   0  0  0  0  0  0  0  0  0  0  0  0
    2.4805   -0.4675   -0.8981 H   0  0  0  0  0  0  0  0  0  0  0  0
    2.4910    1.0811   -0.0003 H   0  0  0  0  0  0  0  0  0  0  0  0
    2.4806   -0.4671    0.8982 H   0  0  0  0  0  0  0  0  0  0  0  0
    0.1502    2.1344    0.0000 H   0  0  0  0  0  0  0  0  0  0  0  0
  1  2  1  0  0  0  0
  1  5  1  0  0  0  0
  1  6  1  0  0  0  0
  2  4  2  0  0  0  0
  3  4  1  0  0  0  0
  3  6  2  0  0  0  0
  5  7  1  0  0  0  0
  5  8  1  0  0  0  0
  5  9  1  0  0  0  0
  6 10  1  0  0  0  0
M  END
> <PUBCHEM_COMPOUND_CID>
140123

> <PUBCHEM_CONFORMER_RMSD>
0.4

> <PUBCHEM_CONFORMER_DIVERSEORDER>
1

> <PUBCHEM_MMFF94_PARTIAL_CHARGES>
6
1 0.31
10 0.15
2 -0.42
3 -0.34
5 0.26
6 0.04

> <PUBCHEM_EFFECTIVE_ROTOR_COUNT>
0

> <PUBCHEM_PHARMACOPHORE_FEATURES>
2
3 1 3 6 cation
5 1 2 3 4 6 rings

> <PUBCHEM_HEAVY_ATOM_COUNT>
6

> <PUBCHEM_ATOM_DEF_STEREO_COUNT>
0

> <PUBCHEM_ATOM_UDEF_STEREO_COUNT>
0

> <PUBCHEM_BOND_DEF_STEREO_COUNT>
0

> <PUBCHEM_BOND_UDEF_STEREO_COUNT>
0

> <PUBCHEM_ISOTOPIC_ATOM_COUNT>
0

> <PUBCHEM_COMPONENT_COUNT>
1

> <PUBCHEM_CACTVS_TAUTO_COUNT>
1

> <PUBCHEM_CONFORMER_ID>
0002235B00000001

> <PUBCHEM_MMFF94_ENERGY>
2.9529

> <PUBCHEM_FEATURE_SELFOVERLAP>
10.148

> <PUBCHEM_SHAPE_FINGERPRINT>
139733 1 9222970165428683202
16714656 1 18410300206993563836
20096714 4 18266460910347334400
21015797 1 9221785995758590505
21040471 1 18266741268495495460
29004967 10 15357697478959636664
5943 1 17460908264580096501

> <PUBCHEM_SHAPE_MULTIPOLES>
103.55
2.06
1.12
0.55
0.94
0.01
0
0.01
0
-0.24
0
0.04
0.02
0

> <PUBCHEM_SHAPE_SELFOVERLAP>
203.215

> <PUBCHEM_SHAPE_VOLUME>
65

> <PUBCHEM_COORDINATE_TYPE>
2
5
10

$$$$
