23523
  -OEChem-11012401103D

 35 36  0     0  0  0  0  0  0999 V2000
    0.0000   -1.6232    0.0000 S   0  0  0  0  0  0  0  0  0  0  0  0
    1.3491   -0.4272   -0.2807 C   0  0  0  0  0  0  0  0  0  0  0  0
   -1.3491   -0.4272    0.2808 C   0  0  0  0  0  0  0  0  0  0  0  0
    1.5299    0.4605    0.9542 C   0  0  0  0  0  0  0  0  0  0  0  0
    2.6427   -1.1677   -0.6327 C   0  0  0  0  0  0  0  0  0  0  0  0
   -1.5299    0.4605   -0.9542 C   0  0  0  0  0  0  0  0  0  0  0  0
   -2.6427   -1.1678    0.6327 C   0  0  0  0  0  0  0  0  0  0  0  0
    2.6943    1.4331    0.7679 C   0  0  0  0  0  0  0  0  0  0  0  0
    3.8045   -0.1912   -0.8151 C   0  0  0  0  0  0  0  0  0  0  0  0
   -2.6944    1.4332   -0.7679 C   0  0  0  0  0  0  0  0  0  0  0  0
   -3.8045   -0.1912    0.8151 C   0  0  0  0  0  0  0  0  0  0  0  0
    3.9855    0.7042    0.4072 C   0  0  0  0  0  0  0  0  0  0  0  0
   -3.9854    0.7042   -0.4073 C   0  0  0  0  0  0  0  0  0  0  0  0
    1.1152    0.1862   -1.1544 H   0  0  0  0  0  0  0  0  0  0  0  0
   -1.1152    0.1862    1.1544 H   0  0  0  0  0  0  0  0  0  0  0  0
    1.7154   -0.1506    1.8471 H   0  0  0  0  0  0  0  0  0  0  0  0
    0.6545    1.0813    1.1552 H   0  0  0  0  0  0  0  0  0  0  0  0
    2.5155   -1.7455   -1.5566 H   0  0  0  0  0  0  0  0  0  0  0  0
    2.9040   -1.8809    0.1604 H   0  0  0  0  0  0  0  0  0  0  0  0
   -1.7154   -0.1505   -1.8470 H   0  0  0  0  0  0  0  0  0  0  0  0
   -0.6544    1.0814   -1.1551 H   0  0  0  0  0  0  0  0  0  0  0  0
   -2.5155   -1.7456    1.5566 H   0  0  0  0  0  0  0  0  0  0  0  0
   -2.9039   -1.8809   -0.1604 H   0  0  0  0  0  0  0  0  0  0  0  0
    2.8429    2.0110    1.6872 H   0  0  0  0  0  0  0  0  0  0  0  0
    2.4474    2.1509   -0.0242 H   0  0  0  0  0  0  0  0  0  0  0  0
    3.6228    0.4313   -1.7000 H   0  0  0  0  0  0  0  0  0  0  0  0
    4.7286   -0.7497   -1.0024 H   0  0  0  0  0  0  0  0  0  0  0  0
   -2.8430    2.0111   -1.6872 H   0  0  0  0  0  0  0  0  0  0  0  0
   -2.4474    2.1510    0.0243 H   0  0  0  0  0  0  0  0  0  0  0  0
   -3.6228    0.4311    1.7000 H   0  0  0  0  0  0  0  0  0  0  0  0
   -4.7286   -0.7497    1.0024 H   0  0  0  0  0  0  0  0  0  0  0  0
    4.7797    1.4343    0.2153 H   0  0  0  0  0  0  0  0  0  0  0  0
    4.3102    0.0952    1.2599 H   0  0  0  0  0  0  0  0  0  0  0  0
   -4.7798    1.4342   -0.2152 H   0  0  0  0  0  0  0  0  0  0  0  0
   -4.3102    0.0953   -1.2600 H   0  0  0  0  0  0  0  0  0  0  0  0
  1  2  1  0  0  0  0
  1  3  1  0  0  0  0
  2  4  1  0  0  0  0
  2  5  1  0  0  0  0
  2 14  1  0  0  0  0
  3  6  1  0  0  0  0
  3  7  1  0  0  0  0
  3 15  1  0  0  0  0
  4  8  1  0  0  0  0
  4 16  1  0  0  0  0
  4 17  1  0  0  0  0
  5  9  1  0  0  0  0
  5 18  1  0  0  0  0
  5 19  1  0  0  0  0
  6 10  1  0  0  0  0
  6 20  1  0  0  0  0
  6 21  1  0  0  0  0
  7 11  1  0  0  0  0
  7 22  1  0  0  0  0
  7 23  1  0  0  0  0
  8 12  1  0  0  0  0
  8 24  1  0  0  0  0
  8 25  1  0  0  0  0
  9 12  1  0  0  0  0
  9 26  1  0  0  0  0
  9 27  1  0  0  0  0
 10 13  1  0  0  0  0
 10 28  1  0  0  0  0
 10 29  1  0  0  0  0
 11 13  1  0  0  0  0
 11 30  1  0  0  0  0
 11 31  1  0  0  0  0
 12 32  1  0  0  0  0
 12 33  1  0  0  0  0
 13 34  1  0  0  0  0
 13 35  1  0  0  0  0
M  END
> <PUBCHEM_COMPOUND_CID>
23523

> <PUBCHEM_CONFORMER_RMSD>
0.6

> <PUBCHEM_CONFORMER_DIVERSEORDER>
1
2
6
7
8
5
9
4
3

> <PUBCHEM_MMFF94_PARTIAL_CHARGES>
3
1 -0.46
2 0.23
3 0.23

> <PUBCHEM_EFFECTIVE_ROTOR_COUNT>
4.4

> <PUBCHEM_PHARMACOPHORE_FEATURES>
2
6 2 4 5 8 9 12 rings
6 3 6 7 10 11 13 rings

> <PUBCHEM_HEAVY_ATOM_COUNT>
13

> <PUBCHEM_ATOM_DEF_STEREO_COUNT>
0

> <PUBCHEM_ATOM_UDEF_STEREO_COUNT>
0

> <PUBCHEM_BOND_DEF_STEREO_COUNT>
0

> <PUBCHEM_BOND_UDEF_STEREO_COUNT>
0

> <PUBCHEM_ISOTOPIC_ATOM_COUNT>
0

> <PUBCHEM_COMPONENT_COUNT>
1

> <PUBCHEM_CACTVS_TAUTO_COUNT>
1

> <PUBCHEM_CONFORMER_ID>
00005BE300000001

> <PUBCHEM_MMFF94_ENERGY>
14.0858

> <PUBCHEM_FEATURE_SELFOVERLAP>
10.149

> <PUBCHEM_SHAPE_FINGERPRINT>
10498660 4 18113331986198157589
10608611 8 18410853261105107617
11031198 65 18130790066220224054
11132069 177 18040718065214741821
11471102 20 18060421313647791058
11543360 7 16917057884895609999
11615757 297 17704073997147551547
12654215 9 18272087184930703472
12932764 1 18410852161593687718
13764800 53 18186802448503895401
14144814 61 15719110257844255906
15219456 202 18411982455304542358
15653759 3 18260550034536145592
15775835 57 18410573985151769442
17844478 74 18408891753893858209
18175812 5 18410014346892310247
18186145 218 18131637776721384842
200 152 17132112437740113735
20233049 118 18408321073537569056
20279233 1 18410572889934920579
20528008 55 18408039607055672151
20645464 45 18409728469711173595
20645477 56 18338512045055213992
20645477 70 17846504694955792774
21119208 17 15770059423357140417
21249577 43 18410292514528022369
21639500 275 17632568383764056824
22854114 59 18411700997755536355
231179 274 18411978066217075184
23402539 116 18114174272207968206
23402655 69 17703792513591579184
23532345 42 17895198835218513007
23557571 272 18334869333136504047
23559900 14 18041282054350236942
25 1 18202003209537298910
3082319 5 15770053947284355040
474 4 16342271757716036640
548570 60 18410852165888525088
69090 78 18272647978373134287
7364860 26 18118114775705856162
74978 22 15697706116531144886
77492 1 15769779043607743683
81228 2 17834666480534436515
90316 7 16370999668529979277

> <PUBCHEM_SHAPE_MULTIPOLES>
271.38
8.02
1.52
1.05
0
0.1
0
-1.82
0
0
0
0
-0.11
1.14

> <PUBCHEM_SHAPE_SELFOVERLAP>
521.288

> <PUBCHEM_SHAPE_VOLUME>
163.5

> <PUBCHEM_COORDINATE_TYPE>
2
5
10

$$$$
