136123
  -OEChem-11012401053D

 22 23  0     1  0  0  0  0  0999 V2000
    1.1220   -0.7531    0.4043 C   0  0  2  0  0  0  0  0  0  0  0  0
    1.1228    0.7526    0.4040 C   0  0  1  0  0  0  0  0  0  0  0  0
    2.1992   -0.0008   -0.3322 C   0  0  0  0  0  0  0  0  0  0  0  0
    0.0814   -1.5227   -0.3452 C   0  0  0  0  0  0  0  0  0  0  0  0
    0.0827    1.5226   -0.3455 C   0  0  0  0  0  0  0  0  0  0  0  0
   -1.3159   -1.2959    0.2295 C   0  0  0  0  0  0  0  0  0  0  0  0
   -1.3143    1.2964    0.2301 C   0  0  0  0  0  0  0  0  0  0  0  0
   -1.9778    0.0009   -0.2450 C   0  0  0  0  0  0  0  0  0  0  0  0
    1.3928   -1.2402    1.3346 H   0  0  0  0  0  0  0  0  0  0  0  0
    1.3941    1.2399    1.3342 H   0  0  0  0  0  0  0  0  0  0  0  0
    3.1944   -0.0012    0.0963 H   0  0  0  0  0  0  0  0  0  0  0  0
    2.1846   -0.0010   -1.4152 H   0  0  0  0  0  0  0  0  0  0  0  0
    0.3293   -2.5877   -0.2605 H   0  0  0  0  0  0  0  0  0  0  0  0
    0.0950   -1.2879   -1.4163 H   0  0  0  0  0  0  0  0  0  0  0  0
    0.0958    1.2877   -1.4164 H   0  0  0  0  0  0  0  0  0  0  0  0
    0.3311    2.5876   -0.2609 H   0  0  0  0  0  0  0  0  0  0  0  0
   -1.2918   -1.3227    1.3257 H   0  0  0  0  0  0  0  0  0  0  0  0
   -1.9546   -2.1277   -0.0930 H   0  0  0  0  0  0  0  0  0  0  0  0
   -1.9525    2.1290   -0.0915 H   0  0  0  0  0  0  0  0  0  0  0  0
   -1.2896    1.3224    1.3263 H   0  0  0  0  0  0  0  0  0  0  0  0
   -2.0383    0.0011   -1.3405 H   0  0  0  0  0  0  0  0  0  0  0  0
   -3.0136    0.0014    0.1178 H   0  0  0  0  0  0  0  0  0  0  0  0
  1  2  1  0  0  0  0
  1  3  1  0  0  0  0
  1  4  1  0  0  0  0
  1  9  1  0  0  0  0
  2  3  1  0  0  0  0
  2  5  1  0  0  0  0
  2 10  1  0  0  0  0
  3 11  1  0  0  0  0
  3 12  1  0  0  0  0
  4  6  1  0  0  0  0
  4 13  1  0  0  0  0
  4 14  1  0  0  0  0
  5  7  1  0  0  0  0
  5 15  1  0  0  0  0
  5 16  1  0  0  0  0
  6  8  1  0  0  0  0
  6 17  1  0  0  0  0
  6 18  1  0  0  0  0
  7  8  1  0  0  0  0
  7 19  1  0  0  0  0
  7 20  1  0  0  0  0
  8 21  1  0  0  0  0
  8 22  1  0  0  0  0
M  END
> <PUBCHEM_COMPOUND_CID>
136123

> <PUBCHEM_CONFORMER_RMSD>
0.4

> <PUBCHEM_CONFORMER_DIVERSEORDER>
1
2
3
4

> <PUBCHEM_MMFF94_PARTIAL_CHARGES>
9
1 -0.19
10 0.1
11 0.1
12 0.1
2 -0.19
3 -0.2
4 0.09
5 0.09
9 0.1

> <PUBCHEM_EFFECTIVE_ROTOR_COUNT>
1.2

> <PUBCHEM_PHARMACOPHORE_FEATURES>
1
7 1 2 4 5 6 7 8 rings

> <PUBCHEM_HEAVY_ATOM_COUNT>
8

> <PUBCHEM_ATOM_DEF_STEREO_COUNT>
0

> <PUBCHEM_ATOM_UDEF_STEREO_COUNT>
2

> <PUBCHEM_BOND_DEF_STEREO_COUNT>
0

> <PUBCHEM_BOND_UDEF_STEREO_COUNT>
0

> <PUBCHEM_ISOTOPIC_ATOM_COUNT>
0

> <PUBCHEM_COMPONENT_COUNT>
1

> <PUBCHEM_CACTVS_TAUTO_COUNT>
1

> <PUBCHEM_CONFORMER_ID>
000213BB00000001

> <PUBCHEM_MMFF94_ENERGY>
11.3511

> <PUBCHEM_FEATURE_SELFOVERLAP>
5.074

> <PUBCHEM_SHAPE_FINGERPRINT>
16714656 1 18410862061677512172
16945 1 18410573985167275458
18185500 45 18193552491798817199
21040471 1 18266737987182562464
23235685 24 18410572851486021205
23552423 10 18260554377096592166
241688 4 17978229348752870745
2748010 2 18122623013897185013
29004967 10 18261958547564920432
5084963 1 18270674251673764483
66348 1 18410571794818350481

> <PUBCHEM_SHAPE_MULTIPOLES>
164.64
2.46
1.76
0.72
0.15
0
0
0
-0.09
-0.35
-0.05
0.05
0
0

> <PUBCHEM_SHAPE_SELFOVERLAP>
325.601

> <PUBCHEM_SHAPE_VOLUME>
97.4

> <PUBCHEM_COORDINATE_TYPE>
2
5
10

$$$$
