142133
  -OEChem-11012401033D

 20 19  0     0  0  0  0  0  0999 V2000
    2.6810    1.0978    1.4059 Cl  0  0  0  0  0  0  0  0  0  0  0  0
    3.5041   -0.1974   -1.0724 Cl  0  0  0  0  0  0  0  0  0  0  0  0
   -0.1552    0.2495    0.0059 O   0  0  0  0  0  0  0  0  0  0  0  0
    1.1745   -1.6303    0.0949 O   0  0  0  0  0  0  0  0  0  0  0  0
   -2.5638    0.3264    0.2083 C   0  0  0  0  0  0  0  0  0  0  0  0
   -1.3119   -0.5551    0.1950 C   0  0  0  0  0  0  0  0  0  0  0  0
   -2.7325    1.0749   -1.1156 C   0  0  0  0  0  0  0  0  0  0  0  0
   -3.8039   -0.5141    0.5045 C   0  0  0  0  0  0  0  0  0  0  0  0
    1.0422   -0.4194   -0.0258 C   0  0  0  0  0  0  0  0  0  0  0  0
    2.1655    0.5678   -0.2006 C   0  0  0  0  0  0  0  0  0  0  0  0
   -2.4513    1.0796    0.9985 H   0  0  0  0  0  0  0  0  0  0  0  0
   -1.2245   -1.0856    1.1510 H   0  0  0  0  0  0  0  0  0  0  0  0
   -1.3776   -1.2946   -0.6127 H   0  0  0  0  0  0  0  0  0  0  0  0
   -3.6319    1.6997   -1.0954 H   0  0  0  0  0  0  0  0  0  0  0  0
   -2.8234    0.3785   -1.9562 H   0  0  0  0  0  0  0  0  0  0  0  0
   -1.8786    1.7320   -1.3106 H   0  0  0  0  0  0  0  0  0  0  0  0
   -4.6994    0.1148    0.5464 H   0  0  0  0  0  0  0  0  0  0  0  0
   -3.7079   -1.0222    1.4699 H   0  0  0  0  0  0  0  0  0  0  0  0
   -3.9615   -1.2767   -0.2659 H   0  0  0  0  0  0  0  0  0  0  0  0
    1.8367    1.4312   -0.7857 H   0  0  0  0  0  0  0  0  0  0  0  0
  1 10  1  0  0  0  0
  2 10  1  0  0  0  0
  3  6  1  0  0  0  0
  3  9  1  0  0  0  0
  4  9  2  0  0  0  0
  5  6  1  0  0  0  0
  5  7  1  0  0  0  0
  5  8  1  0  0  0  0
  5 11  1  0  0  0  0
  6 12  1  0  0  0  0
  6 13  1  0  0  0  0
  7 14  1  0  0  0  0
  7 15  1  0  0  0  0
  7 16  1  0  0  0  0
  8 17  1  0  0  0  0
  8 18  1  0  0  0  0
  8 19  1  0  0  0  0
  9 10  1  0  0  0  0
 10 20  1  0  0  0  0
M  END
> <PUBCHEM_COMPOUND_CID>
142133

> <PUBCHEM_CONFORMER_RMSD>
0.6

> <PUBCHEM_CONFORMER_DIVERSEORDER>
1
30
28
22
26
18
10
17
25
29
13
21
23
9
20
16
7
27
15
4
12
8
3
11
2
14
6
24
5
19

> <PUBCHEM_MMFF94_PARTIAL_CHARGES>
7
1 -0.29
10 0.64
2 -0.29
3 -0.43
4 -0.57
6 0.28
9 0.66

> <PUBCHEM_EFFECTIVE_ROTOR_COUNT>
4

> <PUBCHEM_PHARMACOPHORE_FEATURES>
2
1 4 acceptor
3 5 7 8 hydrophobe

> <PUBCHEM_HEAVY_ATOM_COUNT>
10

> <PUBCHEM_ATOM_DEF_STEREO_COUNT>
0

> <PUBCHEM_ATOM_UDEF_STEREO_COUNT>
0

> <PUBCHEM_BOND_DEF_STEREO_COUNT>
0

> <PUBCHEM_BOND_UDEF_STEREO_COUNT>
0

> <PUBCHEM_ISOTOPIC_ATOM_COUNT>
0

> <PUBCHEM_COMPONENT_COUNT>
1

> <PUBCHEM_CACTVS_TAUTO_COUNT>
1

> <PUBCHEM_CONFORMER_ID>
00022B3500000001

> <PUBCHEM_MMFF94_ENERGY>
10.9245

> <PUBCHEM_FEATURE_SELFOVERLAP>
10.148

> <PUBCHEM_SHAPE_FINGERPRINT>
10219947 1 11819276676438137278
10857977 72 18040434417005782193
11062470 55 11169911723027946463
12932741 1 18273213122817076994
12932764 1 18342170059889639135
14325111 11 18040155093480587255
14390081 3 18342451543429995089
170605 34 17774714372347679800
18186145 218 18131913766845354600
190213 19 16702304550823697115
19422 9 15913326922696984765
20765181 27 18410003338780321601
230 275 18342164579595895552
23557571 272 18261682497791326869
3248919 1 17385716981004330391
81228 2 17835515303463574250
9939556 21 15841551885619496180

> <PUBCHEM_SHAPE_MULTIPOLES>
197.8
6.67
1.2
1.12
1.91
0.05
0.22
0.48
0.52
-0.78
-0.25
0
0.2
0.9

> <PUBCHEM_SHAPE_SELFOVERLAP>
350.686

> <PUBCHEM_SHAPE_VOLUME>
130.2

> <PUBCHEM_COORDINATE_TYPE>
2
5
10

$$$$
