7343
  -OEChem-11012400353D

 18 17  0     0  0  0  0  0  0999 V2000
   -0.8263   -0.2776    0.0004 O   0  0  0  0  0  0  0  0  0  0  0  0
    0.2557    1.7539    0.0003 O   0  0  0  0  0  0  0  0  0  0  0  0
   -2.0921    0.3909   -0.0003 C   0  0  0  0  0  0  0  0  0  0  0  0
   -3.1966   -0.6443   -0.0005 C   0  0  0  0  0  0  0  0  0  0  0  0
    1.5035   -0.3011    0.0000 C   0  0  0  0  0  0  0  0  0  0  0  0
    0.2682    0.5312    0.0006 C   0  0  0  0  0  0  0  0  0  0  0  0
    1.4080   -1.7961    0.0004 C   0  0  0  0  0  0  0  0  0  0  0  0
    2.6796    0.3432   -0.0009 C   0  0  0  0  0  0  0  0  0  0  0  0
   -2.1736    1.0190    0.8938 H   0  0  0  0  0  0  0  0  0  0  0  0
   -2.1729    1.0187   -0.8947 H   0  0  0  0  0  0  0  0  0  0  0  0
   -4.1804   -0.1668   -0.0010 H   0  0  0  0  0  0  0  0  0  0  0  0
   -3.1173   -1.2921   -0.8798 H   0  0  0  0  0  0  0  0  0  0  0  0
   -3.1180   -1.2918    0.8791 H   0  0  0  0  0  0  0  0  0  0  0  0
    0.8761   -2.1474    0.8906 H   0  0  0  0  0  0  0  0  0  0  0  0
    0.8754   -2.1479   -0.8893 H   0  0  0  0  0  0  0  0  0  0  0  0
    2.3962   -2.2690    0.0001 H   0  0  0  0  0  0  0  0  0  0  0  0
    3.6154   -0.2072   -0.0015 H   0  0  0  0  0  0  0  0  0  0  0  0
    2.7547    1.4254   -0.0012 H   0  0  0  0  0  0  0  0  0  0  0  0
  1  3  1  0  0  0  0
  1  6  1  0  0  0  0
  2  6  2  0  0  0  0
  3  4  1  0  0  0  0
  3  9  1  0  0  0  0
  3 10  1  0  0  0  0
  4 11  1  0  0  0  0
  4 12  1  0  0  0  0
  4 13  1  0  0  0  0
  5  6  1  0  0  0  0
  5  7  1  0  0  0  0
  5  8  2  0  0  0  0
  7 14  1  0  0  0  0
  7 15  1  0  0  0  0
  7 16  1  0  0  0  0
  8 17  1  0  0  0  0
  8 18  1  0  0  0  0
M  END
> <PUBCHEM_COMPOUND_CID>
7343

> <PUBCHEM_CONFORMER_RMSD>
0.6

> <PUBCHEM_CONFORMER_DIVERSEORDER>
1
5
2
6
3
7
4
8

> <PUBCHEM_MMFF94_PARTIAL_CHARGES>
9
1 -0.43
17 0.15
18 0.15
2 -0.57
3 0.28
5 -0.12
6 0.71
7 0.14
8 -0.3

> <PUBCHEM_EFFECTIVE_ROTOR_COUNT>
3

> <PUBCHEM_PHARMACOPHORE_FEATURES>
1
1 2 acceptor

> <PUBCHEM_HEAVY_ATOM_COUNT>
8

> <PUBCHEM_ATOM_DEF_STEREO_COUNT>
0

> <PUBCHEM_ATOM_UDEF_STEREO_COUNT>
0

> <PUBCHEM_BOND_DEF_STEREO_COUNT>
0

> <PUBCHEM_BOND_UDEF_STEREO_COUNT>
0

> <PUBCHEM_ISOTOPIC_ATOM_COUNT>
0

> <PUBCHEM_COMPONENT_COUNT>
1

> <PUBCHEM_CACTVS_TAUTO_COUNT>
1

> <PUBCHEM_CONFORMER_ID>
00001CAF00000001

> <PUBCHEM_MMFF94_ENERGY>
9.0933

> <PUBCHEM_FEATURE_SELFOVERLAP>
5.074

> <PUBCHEM_SHAPE_FINGERPRINT>
10857977 72 18339630209309121448
12897270 3 18409169878949032846
12932764 1 17417802937926567241
20201158 50 18334012809014525995
21040471 1 18122626317064756064
23552333 60 18342458088986508730
23552423 10 18116721703073395558
29004967 10 18408606950270013936
5460574 1 9295291638067811617

> <PUBCHEM_SHAPE_MULTIPOLES>
152.9
4.18
1.47
0.59
2.45
0.16
0
0.74
0
-0.5
0
-0.01
0.02
0

> <PUBCHEM_SHAPE_SELFOVERLAP>
283.376

> <PUBCHEM_SHAPE_VOLUME>
97.3

> <PUBCHEM_COORDINATE_TYPE>
2
5
10

$$$$
