143220
  -OEChem-11012400573D

 46 47  0     1  0  0  0  0  0999 V2000
   -0.4961    0.4294    0.3034 C   0  0  1  0  0  0  0  0  0  0  0  0
   -1.9176    0.1299   -0.1690 C   0  0  0  0  0  0  0  0  0  0  0  0
    1.9975    0.1319   -0.2385 C   0  0  0  0  0  0  0  0  0  0  0  0
    0.5567   -0.1196   -0.6790 C   0  0  0  0  0  0  0  0  0  0  0  0
   -2.1321   -1.3825   -0.3170 C   0  0  0  0  0  0  0  0  0  0  0  0
   -2.9476    0.7363    0.7934 C   0  0  0  0  0  0  0  0  0  0  0  0
    2.2982   -0.6013    1.0758 C   0  0  0  0  0  0  0  0  0  0  0  0
    2.9819   -0.2906   -1.3374 C   0  0  0  0  0  0  0  0  0  0  0  0
   -0.2662    1.9444    0.4857 C   0  0  0  0  0  0  0  0  0  0  0  0
   -3.5630   -1.7104   -0.7375 C   0  0  0  0  0  0  0  0  0  0  0  0
   -4.3772    0.4048    0.3713 C   0  0  0  0  0  0  0  0  0  0  0  0
   -4.5841   -1.0987    0.2167 C   0  0  0  0  0  0  0  0  0  0  0  0
    3.7496   -0.4084    1.5096 C   0  0  0  0  0  0  0  0  0  0  0  0
    4.4321   -0.0983   -0.8996 C   0  0  0  0  0  0  0  0  0  0  0  0
    4.7248   -0.8212    0.4116 C   0  0  0  0  0  0  0  0  0  0  0  0
   -0.4567    2.7542   -0.7894 C   0  0  0  0  0  0  0  0  0  0  0  0
   -0.3649   -0.0474    1.2818 H   0  0  0  0  0  0  0  0  0  0  0  0
   -2.0774    0.5688   -1.1625 H   0  0  0  0  0  0  0  0  0  0  0  0
    2.1740    1.2019   -0.0916 H   0  0  0  0  0  0  0  0  0  0  0  0
    0.4455   -1.2047   -0.7794 H   0  0  0  0  0  0  0  0  0  0  0  0
    0.3915    0.2860   -1.6841 H   0  0  0  0  0  0  0  0  0  0  0  0
   -1.9048   -1.8917    0.6280 H   0  0  0  0  0  0  0  0  0  0  0  0
   -1.4764   -1.8081   -1.0822 H   0  0  0  0  0  0  0  0  0  0  0  0
   -2.8791    1.8275    0.8235 H   0  0  0  0  0  0  0  0  0  0  0  0
   -2.7755    0.3691    1.8130 H   0  0  0  0  0  0  0  0  0  0  0  0
    2.0940   -1.6738    0.9650 H   0  0  0  0  0  0  0  0  0  0  0  0
    1.6618   -0.2346    1.8871 H   0  0  0  0  0  0  0  0  0  0  0  0
    2.8006    0.2926   -2.2482 H   0  0  0  0  0  0  0  0  0  0  0  0
    2.8214   -1.3447   -1.5978 H   0  0  0  0  0  0  0  0  0  0  0  0
   -0.9348    2.3403    1.2578 H   0  0  0  0  0  0  0  0  0  0  0  0
    0.7249    2.1502    0.9004 H   0  0  0  0  0  0  0  0  0  0  0  0
   -3.6973   -2.7975   -0.7722 H   0  0  0  0  0  0  0  0  0  0  0  0
   -3.7412   -1.3341   -1.7525 H   0  0  0  0  0  0  0  0  0  0  0  0
   -4.6024    0.9036   -0.5796 H   0  0  0  0  0  0  0  0  0  0  0  0
   -5.0816    0.7986    1.1128 H   0  0  0  0  0  0  0  0  0  0  0  0
   -5.5973   -1.2959   -0.1511 H   0  0  0  0  0  0  0  0  0  0  0  0
   -4.5006   -1.5811    1.1983 H   0  0  0  0  0  0  0  0  0  0  0  0
    3.9449   -0.9947    2.4147 H   0  0  0  0  0  0  0  0  0  0  0  0
    3.9162    0.6445    1.7690 H   0  0  0  0  0  0  0  0  0  0  0  0
    4.6388    0.9724   -0.7805 H   0  0  0  0  0  0  0  0  0  0  0  0
    5.1047   -0.4678   -1.6818 H   0  0  0  0  0  0  0  0  0  0  0  0
    5.7512   -0.6068    0.7299 H   0  0  0  0  0  0  0  0  0  0  0  0
    4.6586   -1.9046    0.2535 H   0  0  0  0  0  0  0  0  0  0  0  0
   -1.4707    2.6739   -1.1890 H   0  0  0  0  0  0  0  0  0  0  0  0
   -0.2865    3.8144   -0.5711 H   0  0  0  0  0  0  0  0  0  0  0  0
    0.2552    2.4752   -1.5703 H   0  0  0  0  0  0  0  0  0  0  0  0
  1  2  1  0  0  0  0
  1  4  1  0  0  0  0
  1  9  1  0  0  0  0
  1 17  1  0  0  0  0
  2  5  1  0  0  0  0
  2  6  1  0  0  0  0
  2 18  1  0  0  0  0
  3  4  1  0  0  0  0
  3  7  1  0  0  0  0
  3  8  1  0  0  0  0
  3 19  1  0  0  0  0
  4 20  1  0  0  0  0
  4 21  1  0  0  0  0
  5 10  1  0  0  0  0
  5 22  1  0  0  0  0
  5 23  1  0  0  0  0
  6 11  1  0  0  0  0
  6 24  1  0  0  0  0
  6 25  1  0  0  0  0
  7 13  1  0  0  0  0
  7 26  1  0  0  0  0
  7 27  1  0  0  0  0
  8 14  1  0  0  0  0
  8 28  1  0  0  0  0
  8 29  1  0  0  0  0
  9 16  1  0  0  0  0
  9 30  1  0  0  0  0
  9 31  1  0  0  0  0
 10 12  1  0  0  0  0
 10 32  1  0  0  0  0
 10 33  1  0  0  0  0
 11 12  1  0  0  0  0
 11 34  1  0  0  0  0
 11 35  1  0  0  0  0
 12 36  1  0  0  0  0
 12 37  1  0  0  0  0
 13 15  1  0  0  0  0
 13 38  1  0  0  0  0
 13 39  1  0  0  0  0
 14 15  1  0  0  0  0
 14 40  1  0  0  0  0
 14 41  1  0  0  0  0
 15 42  1  0  0  0  0
 15 43  1  0  0  0  0
 16 44  1  0  0  0  0
 16 45  1  0  0  0  0
 16 46  1  0  0  0  0
M  END
> <PUBCHEM_COMPOUND_CID>
143220

> <PUBCHEM_CONFORMER_RMSD>
0.8

> <PUBCHEM_CONFORMER_DIVERSEORDER>
1
6
4
2
5
3
7

> <PUBCHEM_MMFF94_PARTIAL_CHARGES>
0

> <PUBCHEM_EFFECTIVE_ROTOR_COUNT>
6.4

> <PUBCHEM_PHARMACOPHORE_FEATURES>
3
1 16 hydrophobe
6 2 5 6 10 11 12 rings
6 3 7 8 13 14 15 rings

> <PUBCHEM_HEAVY_ATOM_COUNT>
16

> <PUBCHEM_ATOM_DEF_STEREO_COUNT>
0

> <PUBCHEM_ATOM_UDEF_STEREO_COUNT>
1

> <PUBCHEM_BOND_DEF_STEREO_COUNT>
0

> <PUBCHEM_BOND_UDEF_STEREO_COUNT>
0

> <PUBCHEM_ISOTOPIC_ATOM_COUNT>
0

> <PUBCHEM_COMPONENT_COUNT>
1

> <PUBCHEM_CACTVS_TAUTO_COUNT>
1

> <PUBCHEM_CONFORMER_ID>
00022F7400000001

> <PUBCHEM_MMFF94_ENERGY>
20.1019

> <PUBCHEM_FEATURE_SELFOVERLAP>
15.223

> <PUBCHEM_SHAPE_FINGERPRINT>
10989021 7 18410293656989622028
11046707 91 18411418414608672011
11132069 177 18202283589175860919
11543360 7 15936412294508764091
11578080 2 17896296134580365228
12119455 92 12967131596888286825
12236239 1 18040720255621786318
12507560 40 16702305650219267555
12553582 1 18335136505428909923
13583140 156 17912893164534015026
13675066 3 17203610393281296391
13760787 5 17676209073769723535
14251757 17 13912593957452689038
14252887 29 17918000477027154326
14386348 63 17632301167936513022
15342168 16 15840685526955983560
15375358 24 17561083596492487463
15375462 189 18186518804215155739
17804303 29 18130788984078402017
1813 80 18408891749609745917
18175812 5 17346598577569913668
18186145 218 13334734617784481109
18222031 100 18343015627291537095
19141452 34 17846499253411453159
200 152 17458062647072904920
20279233 1 17203612583561857598
20281475 54 18412262809479372610
204376 136 11600007656590431861
20600515 1 18271810163181120060
20671657 53 18335135453415097605
21029758 27 18334300894098652045
21339142 126 18335699386673514549
22646028 1 18040996241419393506
22646028 28 18261108573653443762
22854114 59 16272208591523472230
22959321 94 18409445873537015138
2297311 6 18200887196982600204
23366157 5 18045781457752640501
23402539 116 18408321068815145678
23402655 69 14634584969497434262
23526113 38 13767932312462046204
23532345 42 18202283619135110973
23557571 272 18129670699122513364
23559900 14 17988090980575631526
26918003 58 16845573110445846722
449060 50 16630521864630929370
5104073 3 18200318852640049923
573450 72 18408318861175633755
5902787 121 18338233885392264207
602551 16 18202561808789472486
603831 33 17967532342160858544
7164475 11 17968653796803092636
7364860 26 17985268731695866649
81228 2 18267883695521045273
81539 233 10519723167206201581
8863177 126 17680722711638356283
90316 7 18337107861005664817

> <PUBCHEM_SHAPE_MULTIPOLES>
329.27
9.67
1.84
1.19
1.5
1.18
0.07
-4.18
0.78
-1.37
-0.33
1
-0.05
-0.62

> <PUBCHEM_SHAPE_SELFOVERLAP>
648.291

> <PUBCHEM_SHAPE_VOLUME>
193.1

> <PUBCHEM_COORDINATE_TYPE>
2
5
10

$$$$
