15409
  -OEChem-11012401263D

 35 36  0     1  0  0  0  0  0999 V2000
    0.6979    1.3465   -1.7217 O   0  0  0  0  0  0  0  0  0  0  0  0
   -1.1167    2.2421    0.1703 N   0  0  0  0  0  0  0  0  0  0  0  0
   -0.5329    0.9098    0.3220 C   0  0  1  0  0  0  0  0  0  0  0  0
   -1.5740   -0.1633    0.0772 C   0  0  0  0  0  0  0  0  0  0  0  0
    0.6707    0.8040   -0.6178 C   0  0  0  0  0  0  0  0  0  0  0  0
    1.8658    0.0216   -0.1883 C   0  0  0  0  0  0  0  0  0  0  0  0
   -0.1067    3.2727    0.4078 C   0  0  0  0  0  0  0  0  0  0  0  0
   -2.2456    2.4125    1.0842 C   0  0  0  0  0  0  0  0  0  0  0  0
   -2.3469   -0.6061    1.1355 C   0  0  0  0  0  0  0  0  0  0  0  0
   -1.7277   -0.6749   -1.1987 C   0  0  0  0  0  0  0  0  0  0  0  0
   -3.3056   -1.5939    0.9104 C   0  0  0  0  0  0  0  0  0  0  0  0
   -2.6865   -1.6626   -1.4239 C   0  0  0  0  0  0  0  0  0  0  0  0
    1.6848   -1.0473    0.6600 C   0  0  0  0  0  0  0  0  0  0  0  0
    3.1043    0.3977   -0.6570 C   0  0  0  0  0  0  0  0  0  0  0  0
   -3.4755   -2.1221   -0.3692 C   0  0  0  0  0  0  0  0  0  0  0  0
    2.8023   -1.7792    1.0614 C   0  0  0  0  0  0  0  0  0  0  0  0
    4.2217   -0.3345   -0.2557 C   0  0  0  0  0  0  0  0  0  0  0  0
    4.0706   -1.4229    0.6036 C   0  0  0  0  0  0  0  0  0  0  0  0
   -0.1527    0.8077    1.3493 H   0  0  0  0  0  0  0  0  0  0  0  0
    0.6808    3.3034   -0.3499 H   0  0  0  0  0  0  0  0  0  0  0  0
    0.3631    3.1705    1.3935 H   0  0  0  0  0  0  0  0  0  0  0  0
   -0.5679    4.2673    0.3668 H   0  0  0  0  0  0  0  0  0  0  0  0
   -2.5855    3.4561    1.0670 H   0  0  0  0  0  0  0  0  0  0  0  0
   -1.9920    2.1797    2.1249 H   0  0  0  0  0  0  0  0  0  0  0  0
   -3.1267    1.8444    0.7715 H   0  0  0  0  0  0  0  0  0  0  0  0
   -2.2131   -0.2222    2.1423 H   0  0  0  0  0  0  0  0  0  0  0  0
   -1.1466   -0.3324   -2.0474 H   0  0  0  0  0  0  0  0  0  0  0  0
   -3.9166   -1.9553    1.7324 H   0  0  0  0  0  0  0  0  0  0  0  0
   -2.8217   -2.0717   -2.4209 H   0  0  0  0  0  0  0  0  0  0  0  0
    0.7151   -1.3628    1.0253 H   0  0  0  0  0  0  0  0  0  0  0  0
    3.2378    1.2461   -1.3212 H   0  0  0  0  0  0  0  0  0  0  0  0
   -4.2218   -2.8914   -0.5445 H   0  0  0  0  0  0  0  0  0  0  0  0
    2.6848   -2.6288    1.7279 H   0  0  0  0  0  0  0  0  0  0  0  0
    5.2098   -0.0564   -0.6110 H   0  0  0  0  0  0  0  0  0  0  0  0
    4.9406   -1.9931    0.9158 H   0  0  0  0  0  0  0  0  0  0  0  0
  1  5  2  0  0  0  0
  2  3  1  0  0  0  0
  2  7  1  0  0  0  0
  2  8  1  0  0  0  0
  3  4  1  0  0  0  0
  3  5  1  0  0  0  0
  3 19  1  0  0  0  0
  4  9  2  0  0  0  0
  4 10  1  0  0  0  0
  5  6  1  0  0  0  0
  6 13  2  0  0  0  0
  6 14  1  0  0  0  0
  7 20  1  0  0  0  0
  7 21  1  0  0  0  0
  7 22  1  0  0  0  0
  8 23  1  0  0  0  0
  8 24  1  0  0  0  0
  8 25  1  0  0  0  0
  9 11  1  0  0  0  0
  9 26  1  0  0  0  0
 10 12  2  0  0  0  0
 10 27  1  0  0  0  0
 11 15  2  0  0  0  0
 11 28  1  0  0  0  0
 12 15  1  0  0  0  0
 12 29  1  0  0  0  0
 13 16  1  0  0  0  0
 13 30  1  0  0  0  0
 14 17  2  0  0  0  0
 14 31  1  0  0  0  0
 15 32  1  0  0  0  0
 16 18  2  0  0  0  0
 16 33  1  0  0  0  0
 17 18  1  0  0  0  0
 17 34  1  0  0  0  0
 18 35  1  0  0  0  0
M  END
> <PUBCHEM_COMPOUND_CID>
15409

> <PUBCHEM_CONFORMER_RMSD>
0.6

> <PUBCHEM_CONFORMER_DIVERSEORDER>
7
14
6
19
8
22
10
23
5
13
16
12
9
15
11
25
20
21
17
3
1
2
24
4
18

> <PUBCHEM_MMFF94_PARTIAL_CHARGES>
28
1 -0.57
10 -0.15
11 -0.15
12 -0.15
13 -0.15
14 -0.15
15 -0.15
16 -0.15
17 -0.15
18 -0.15
2 -0.81
26 0.15
27 0.15
28 0.15
29 0.15
3 0.47
30 0.15
31 0.15
32 0.15
33 0.15
34 0.15
35 0.15
4 -0.14
5 0.42
6 0.09
7 0.27
8 0.27
9 -0.15

> <PUBCHEM_EFFECTIVE_ROTOR_COUNT>
4

> <PUBCHEM_PHARMACOPHORE_FEATURES>
4
1 1 acceptor
1 2 cation
6 4 9 10 11 12 15 rings
6 6 13 14 16 17 18 rings

> <PUBCHEM_HEAVY_ATOM_COUNT>
18

> <PUBCHEM_ATOM_DEF_STEREO_COUNT>
0

> <PUBCHEM_ATOM_UDEF_STEREO_COUNT>
1

> <PUBCHEM_BOND_DEF_STEREO_COUNT>
0

> <PUBCHEM_BOND_UDEF_STEREO_COUNT>
0

> <PUBCHEM_ISOTOPIC_ATOM_COUNT>
0

> <PUBCHEM_COMPONENT_COUNT>
1

> <PUBCHEM_CACTVS_TAUTO_COUNT>
2

> <PUBCHEM_CONFORMER_ID>
00003C3100000007

> <PUBCHEM_MMFF94_ENERGY>
65.2826

> <PUBCHEM_FEATURE_SELFOVERLAP>
20.297

> <PUBCHEM_SHAPE_FINGERPRINT>
10616163 171 18339644417362136378
10618630 7 18408322202670940686
11265709 11 18341331179941562843
11357001 24 18339645529694914497
11578080 2 18262219110309963869
11725454 13 14044359332789860139
12403259 327 14620251774609667999
12506688 2 18115873073365259547
12553582 1 18341332291932391342
12633257 1 16630531755883116211
12788726 201 18339361860111228473
12824470 246 18040713671062524811
13004483 165 18270101475046315851
13538477 17 18265335010672795228
13583140 156 17058623220124817970
14178342 30 18120921820886845554
14289901 80 18273205392540673834
14787075 74 18050852410096682932
15375462 189 18338241590653354987
15906896 17 18123747561079506253
16945 1 17976832986091897056
200 152 18260261971138034250
20291156 8 18410011069600330054
20361792 2 18271518814285644575
20442098 301 18267586814881655130
20626108 58 17415545782705902583
20671657 53 17603583062443307862
20871998 184 18200318714663025461
21250096 35 18410287051551323895
21296965 67 18341608265324488463
21731228 192 17621046360745969217
21731516 1 18341047514215143511
22112679 90 18200051636469594329
23388829 49 18409735096571398372
23402539 116 18334292063714729618
23419403 2 18049405362014764837
23500284 5 18335421253091605011
23559900 14 18339349804328179328
23598288 3 18339930328865406133
23598294 1 18343026549309039632
23728640 28 18195805159401754923
312423 11 18334867091300595806
34934 24 18409454661066762521
7097593 13 17974850571470617210
7471813 234 18198894989012952437
7970288 3 18341050825657151870
81228 2 18270676459508780097
90316 7 18272658934813451473

> <PUBCHEM_SHAPE_MULTIPOLES>
359.58
6.7
2.91
1.3
4.12
2.22
-0.22
-4.77
0.58
-1.76
0.53
-0.42
-0.16
-1.24

> <PUBCHEM_SHAPE_SELFOVERLAP>
768.638

> <PUBCHEM_SHAPE_VOLUME>
199.7

> <PUBCHEM_COORDINATE_TYPE>
2
5
10

$$$$
