404277
  -OEChem-11012400303D

 30 31  0     0  0  0  0  0  0999 V2000
   -2.9073    0.2967    0.4991 O   0  0  0  0  0  0  0  0  0  0  0  0
    1.5690   -2.9332    0.1994 O   0  5  0  0  0  0  0  0  0  0  0  0
   -0.3360    2.1767   -0.5665 O   0  0  0  0  0  0  0  0  0  0  0  0
   -2.7171    0.1118   -1.8007 O   0  0  0  0  0  0  0  0  0  0  0  0
    1.0641   -1.5995    0.0680 N   0  0  0  0  0  0  0  0  0  0  0  0
    0.0744    0.9836   -0.3475 N   0  3  0  0  0  0  0  0  0  0  0  0
    1.9717   -0.5046    0.1310 C   0  0  0  0  0  0  0  0  0  0  0  0
    1.4943    0.7987   -0.0676 C   0  0  0  0  0  0  0  0  0  0  0  0
   -0.3128   -1.3926   -0.1573 C   0  0  0  0  0  0  0  0  0  0  0  0
   -0.8398   -0.1647   -0.3806 C   0  0  0  0  0  0  0  0  0  0  0  0
    3.3484   -0.6562    0.3894 C   0  0  0  0  0  0  0  0  0  0  0  0
    2.3471    1.9107   -0.0108 C   0  0  0  0  0  0  0  0  0  0  0  0
   -1.2021   -2.6298   -0.1175 C   0  0  0  0  0  0  0  0  0  0  0  0
   -2.2592    0.0947   -0.6733 C   0  0  0  0  0  0  0  0  0  0  0  0
    4.2031    0.4488    0.4467 C   0  0  0  0  0  0  0  0  0  0  0  0
    3.7027    1.7302    0.2473 C   0  0  0  0  0  0  0  0  0  0  0  0
   -4.3086    0.5630    0.3794 C   0  0  0  0  0  0  0  0  0  0  0  0
   -4.8917    0.7658    1.7615 C   0  0  0  0  0  0  0  0  0  0  0  0
    3.7889   -1.6362    0.5558 H   0  0  0  0  0  0  0  0  0  0  0  0
    1.9787    2.9209   -0.1644 H   0  0  0  0  0  0  0  0  0  0  0  0
   -2.2629   -2.3998   -0.2548 H   0  0  0  0  0  0  0  0  0  0  0  0
   -1.1166   -3.1347    0.8511 H   0  0  0  0  0  0  0  0  0  0  0  0
   -0.9268   -3.3285   -0.9150 H   0  0  0  0  0  0  0  0  0  0  0  0
    5.2606    0.3045    0.6487 H   0  0  0  0  0  0  0  0  0  0  0  0
    4.3674    2.5877    0.2924 H   0  0  0  0  0  0  0  0  0  0  0  0
   -4.4587    1.4665   -0.2221 H   0  0  0  0  0  0  0  0  0  0  0  0
   -4.8010   -0.2852   -0.1094 H   0  0  0  0  0  0  0  0  0  0  0  0
   -5.9643    0.9718    1.7072 H   0  0  0  0  0  0  0  0  0  0  0  0
   -4.7331   -0.1232    2.3808 H   0  0  0  0  0  0  0  0  0  0  0  0
   -4.3966    1.5997    2.2700 H   0  0  0  0  0  0  0  0  0  0  0  0
  1 14  1  0  0  0  0
  1 17  1  0  0  0  0
  2  5  1  0  0  0  0
  3  6  2  0  0  0  0
  4 14  2  0  0  0  0
  5  7  1  0  0  0  0
  5  9  1  0  0  0  0
  6  8  1  0  0  0  0
  6 10  1  0  0  0  0
  7  8  1  0  0  0  0
  7 11  2  0  0  0  0
  8 12  2  0  0  0  0
  9 10  2  0  0  0  0
  9 13  1  0  0  0  0
 10 14  1  0  0  0  0
 11 15  1  0  0  0  0
 11 19  1  0  0  0  0
 12 16  1  0  0  0  0
 12 20  1  0  0  0  0
 13 21  1  0  0  0  0
 13 22  1  0  0  0  0
 13 23  1  0  0  0  0
 15 16  2  0  0  0  0
 15 24  1  0  0  0  0
 16 25  1  0  0  0  0
 17 18  1  0  0  0  0
 17 26  1  0  0  0  0
 17 27  1  0  0  0  0
 18 28  1  0  0  0  0
 18 29  1  0  0  0  0
 18 30  1  0  0  0  0
M  CHG  2   2  -1   6   1
M  END
> <PUBCHEM_COMPOUND_CID>
404277

> <PUBCHEM_CONFORMER_RMSD>
0.6

> <PUBCHEM_CONFORMER_DIVERSEORDER>
2
3
6
1
5
4

> <PUBCHEM_MMFF94_PARTIAL_CHARGES>
21
1 -0.43
10 -0.02
11 -0.15
12 -0.15
13 0.14
14 0.71
15 -0.15
16 -0.15
17 0.28
19 0.15
2 -0.86
20 0.15
24 0.15
25 0.15
3 -0.63
4 -0.57
5 -0.08
6 0.7
7 -0.03
8 -0.03
9 -0.17

> <PUBCHEM_EFFECTIVE_ROTOR_COUNT>
3

> <PUBCHEM_PHARMACOPHORE_FEATURES>
4
1 2 anion
1 4 acceptor
6 5 6 7 8 9 10 rings
6 7 8 11 12 15 16 rings

> <PUBCHEM_HEAVY_ATOM_COUNT>
18

> <PUBCHEM_ATOM_DEF_STEREO_COUNT>
0

> <PUBCHEM_ATOM_UDEF_STEREO_COUNT>
0

> <PUBCHEM_BOND_DEF_STEREO_COUNT>
0

> <PUBCHEM_BOND_UDEF_STEREO_COUNT>
0

> <PUBCHEM_ISOTOPIC_ATOM_COUNT>
0

> <PUBCHEM_COMPONENT_COUNT>
1

> <PUBCHEM_CACTVS_TAUTO_COUNT>
1

> <PUBCHEM_CONFORMER_ID>
00062B3500000002

> <PUBCHEM_MMFF94_ENERGY>
60.2035

> <PUBCHEM_FEATURE_SELFOVERLAP>
20.319

> <PUBCHEM_SHAPE_FINGERPRINT>
10382601 240 18338242569789776266
10465860 228 18272097041347872049
10493431 412 18339645653995836416
10967382 1 18409439281062818230
10980938 120 18408319982030157519
11132069 177 18264472023036252888
11471102 20 18409439272077355308
11471102 22 18261968344775660801
12236239 1 17918268736969477741
12390115 104 18052271870886461808
12644460 14 18334575694411569434
13140716 1 18337103583560674930
13583140 156 16588564487887917164
13897977 150 18337943597495992750
14178342 30 18123740109247704128
14252887 29 18114191791447984713
14790565 3 18264499540839815524
15196674 1 18337949116708283534
15209294 21 18131635577882921353
15309172 13 18408318891345763279
16945 1 18337097987170821774
17844478 74 17676202459683735205
18186145 218 18412258458856915028
18219364 16 18260818315521126557
19784866 9 18342743992079770001
20157964 124 18197218041341177841
204376 136 18408885173998666399
20510252 161 17909263925173266930
20645477 70 18190723281130176007
20739085 24 18192168017702420465
21041028 32 17981889640210242994
21501502 16 18192425497060416566
22182313 1 18117832205659593652
23184049 59 18407761438760843081
2334 1 18048025556953155934
23493267 7 17168408368766523885
23559900 14 16299224592898069819
25 1 18410570699902506806
2748010 2 18264764553237749558
335352 9 18410852132135390134
350125 39 17976541929222328117
4340502 62 18341065064306083811
458136 41 18408891728398503926
474 4 18342458161948250513
5104073 3 18192418883248780912
58807428 26 18335969952850031722
602551 16 16081099198634851921
633830 44 18202005464411077444
7364860 26 18341891827940622414
77492 1 17774710988192947415
81228 2 17540803327861811130

> <PUBCHEM_SHAPE_MULTIPOLES>
336.99
7.8
2.43
1.02
4.29
1.43
0
-3.55
3.01
-0.93
0.05
1.26
-0.22
-0.54

> <PUBCHEM_SHAPE_SELFOVERLAP>
709.494

> <PUBCHEM_SHAPE_VOLUME>
189.6

> <PUBCHEM_COORDINATE_TYPE>
2
5
10

$$$$
