74970
  -OEChem-11012401113D

  9  9  0     0  0  0  0  0  0999 V2000
    1.0988   -1.4714   -0.0001 Cl  0  0  0  0  0  0  0  0  0  0  0  0
    1.0944    1.4743    0.0000 Cl  0  0  0  0  0  0  0  0  0  0  0  0
    0.1353   -0.0002   -0.0004 C   0  0  0  0  0  0  0  0  0  0  0  0
   -1.1637   -0.0015    0.7506 C   0  0  0  0  0  0  0  0  0  0  0  0
   -1.1647   -0.0012   -0.7500 C   0  0  0  0  0  0  0  0  0  0  0  0
   -1.4803    0.9057    1.2518 H   0  0  0  0  0  0  0  0  0  0  0  0
   -1.4787   -0.9095    1.2515 H   0  0  0  0  0  0  0  0  0  0  0  0
   -1.4801   -0.9091   -1.2509 H   0  0  0  0  0  0  0  0  0  0  0  0
   -1.4819    0.9062   -1.2506 H   0  0  0  0  0  0  0  0  0  0  0  0
  1  3  1  0  0  0  0
  2  3  1  0  0  0  0
  3  4  1  0  0  0  0
  3  5  1  0  0  0  0
  4  5  1  0  0  0  0
  4  6  1  0  0  0  0
  4  7  1  0  0  0  0
  5  8  1  0  0  0  0
  5  9  1  0  0  0  0
M  END
> <PUBCHEM_COMPOUND_CID>
74970

> <PUBCHEM_CONFORMER_RMSD>
0.4

> <PUBCHEM_CONFORMER_DIVERSEORDER>
1

> <PUBCHEM_MMFF94_PARTIAL_CHARGES>
9
1 -0.23
2 -0.23
3 0.45
4 -0.2
5 -0.2
6 0.1
7 0.1
8 0.1
9 0.1

> <PUBCHEM_EFFECTIVE_ROTOR_COUNT>
0.6

> <PUBCHEM_PHARMACOPHORE_FEATURES>
0

> <PUBCHEM_HEAVY_ATOM_COUNT>
5

> <PUBCHEM_ATOM_DEF_STEREO_COUNT>
0

> <PUBCHEM_ATOM_UDEF_STEREO_COUNT>
0

> <PUBCHEM_BOND_DEF_STEREO_COUNT>
0

> <PUBCHEM_BOND_UDEF_STEREO_COUNT>
0

> <PUBCHEM_ISOTOPIC_ATOM_COUNT>
0

> <PUBCHEM_COMPONENT_COUNT>
1

> <PUBCHEM_CACTVS_TAUTO_COUNT>
1

> <PUBCHEM_CONFORMER_ID>
000124DA00000001

> <PUBCHEM_MMFF94_ENERGY>
6.5471

> <PUBCHEM_FEATURE_SELFOVERLAP>
0

> <PUBCHEM_SHAPE_FINGERPRINT>
139733 1 9222070760633017474
20096714 4 18129114478918614488
21015797 1 10809606113412786305
29004967 10 18265055721459859587
5943 1 12162489037474180995

> <PUBCHEM_SHAPE_MULTIPOLES>
106.64
1.66
1.55
0.85
0.12
0.01
0
0
0
-0.98
0
0.24
0
0

> <PUBCHEM_SHAPE_SELFOVERLAP>
182.337

> <PUBCHEM_SHAPE_VOLUME>
74.5

> <PUBCHEM_COORDINATE_TYPE>
2
5
10

$$$$
