80471
  -OEChem-11012401173D

 32 31  0     0  0  0  0  0  0999 V2000
    0.7752    2.1064   -0.3053 O   0  0  0  0  0  0  0  0  0  0  0  0
   -2.3700   -0.5013   -0.3810 O   0  0  0  0  0  0  0  0  0  0  0  0
    1.7829   -1.5553   -0.4281 O   0  0  0  0  0  0  0  0  0  0  0  0
   -1.2662    1.8152    0.7286 O   0  0  0  0  0  0  0  0  0  0  0  0
   -1.1783   -1.9232    0.9900 O   0  0  0  0  0  0  0  0  0  0  0  0
    1.7476   -0.2382    1.4653 O   0  0  0  0  0  0  0  0  0  0  0  0
   -0.0548   -0.0982   -0.1656 C   0  0  0  0  0  0  0  0  0  0  0  0
   -0.2814    1.3712    0.1528 C   0  0  0  0  0  0  0  0  0  0  0  0
   -1.2405   -0.9619    0.2346 C   0  0  0  0  0  0  0  0  0  0  0  0
    1.2532   -0.6162    0.4111 C   0  0  0  0  0  0  0  0  0  0  0  0
    0.6910    3.5164   -0.0753 C   0  0  0  0  0  0  0  0  0  0  0  0
   -3.5681   -1.2301   -0.0958 C   0  0  0  0  0  0  0  0  0  0  0  0
    3.0255   -2.1272   -0.0076 C   0  0  0  0  0  0  0  0  0  0  0  0
    1.9287    4.1825   -0.6376 C   0  0  0  0  0  0  0  0  0  0  0  0
   -4.7201   -0.5988   -0.8483 C   0  0  0  0  0  0  0  0  0  0  0  0
    3.4752   -3.1413   -1.0377 C   0  0  0  0  0  0  0  0  0  0  0  0
    0.0176   -0.1620   -1.2609 H   0  0  0  0  0  0  0  0  0  0  0  0
   -0.2013    3.9147   -0.5710 H   0  0  0  0  0  0  0  0  0  0  0  0
    0.6249    3.7072    1.0016 H   0  0  0  0  0  0  0  0  0  0  0  0
   -3.4459   -2.2720   -0.4121 H   0  0  0  0  0  0  0  0  0  0  0  0
   -3.7674   -1.1976    0.9811 H   0  0  0  0  0  0  0  0  0  0  0  0
    3.7781   -1.3364    0.0865 H   0  0  0  0  0  0  0  0  0  0  0  0
    2.8912   -2.6192    0.9622 H   0  0  0  0  0  0  0  0  0  0  0  0
    1.8976    5.2639   -0.4783 H   0  0  0  0  0  0  0  0  0  0  0  0
    2.8309    3.7810   -0.1644 H   0  0  0  0  0  0  0  0  0  0  0  0
    2.0184    3.9855   -1.7110 H   0  0  0  0  0  0  0  0  0  0  0  0
   -5.6545   -1.1320   -0.6522 H   0  0  0  0  0  0  0  0  0  0  0  0
   -4.8427    0.4493   -0.5560 H   0  0  0  0  0  0  0  0  0  0  0  0
   -4.5272   -0.6076   -1.9261 H   0  0  0  0  0  0  0  0  0  0  0  0
    4.4247   -3.5994   -0.7470 H   0  0  0  0  0  0  0  0  0  0  0  0
    2.7240   -3.9292   -1.1561 H   0  0  0  0  0  0  0  0  0  0  0  0
    3.5962   -2.6677   -2.0175 H   0  0  0  0  0  0  0  0  0  0  0  0
  1  8  1  0  0  0  0
  1 11  1  0  0  0  0
  2  9  1  0  0  0  0
  2 12  1  0  0  0  0
  3 10  1  0  0  0  0
  3 13  1  0  0  0  0
  4  8  2  0  0  0  0
  5  9  2  0  0  0  0
  6 10  2  0  0  0  0
  7  8  1  0  0  0  0
  7  9  1  0  0  0  0
  7 10  1  0  0  0  0
  7 17  1  0  0  0  0
 11 14  1  0  0  0  0
 11 18  1  0  0  0  0
 11 19  1  0  0  0  0
 12 15  1  0  0  0  0
 12 20  1  0  0  0  0
 12 21  1  0  0  0  0
 13 16  1  0  0  0  0
 13 22  1  0  0  0  0
 13 23  1  0  0  0  0
 14 24  1  0  0  0  0
 14 25  1  0  0  0  0
 14 26  1  0  0  0  0
 15 27  1  0  0  0  0
 15 28  1  0  0  0  0
 15 29  1  0  0  0  0
 16 30  1  0  0  0  0
 16 31  1  0  0  0  0
 16 32  1  0  0  0  0
M  END
> <PUBCHEM_COMPOUND_CID>
80471

> <PUBCHEM_CONFORMER_RMSD>
0.8

> <PUBCHEM_CONFORMER_DIVERSEORDER>
1
13
6
27
17
9
7
26
11
19
15
4
8
3
23
10
29
31
32
22
2
25
18
14
5
30
24
16
28
12
20
21

> <PUBCHEM_MMFF94_PARTIAL_CHARGES>
13
1 -0.43
10 0.66
11 0.28
12 0.28
13 0.28
2 -0.43
3 -0.43
4 -0.57
5 -0.57
6 -0.57
7 0.18
8 0.66
9 0.66

> <PUBCHEM_EFFECTIVE_ROTOR_COUNT>
9

> <PUBCHEM_PHARMACOPHORE_FEATURES>
4
1 4 acceptor
1 5 acceptor
1 6 acceptor
1 7 anion

> <PUBCHEM_HEAVY_ATOM_COUNT>
16

> <PUBCHEM_ATOM_DEF_STEREO_COUNT>
0

> <PUBCHEM_ATOM_UDEF_STEREO_COUNT>
0

> <PUBCHEM_BOND_DEF_STEREO_COUNT>
0

> <PUBCHEM_BOND_UDEF_STEREO_COUNT>
0

> <PUBCHEM_ISOTOPIC_ATOM_COUNT>
0

> <PUBCHEM_COMPONENT_COUNT>
1

> <PUBCHEM_CACTVS_TAUTO_COUNT>
1

> <PUBCHEM_CONFORMER_ID>
00013A5700000001

> <PUBCHEM_MMFF94_ENERGY>
16.0833

> <PUBCHEM_FEATURE_SELFOVERLAP>
20.298

> <PUBCHEM_SHAPE_FINGERPRINT>
11833330 49 18120369861358796480
13464514 151 18192433189384130765
14178000 22 17331953336017661392
14178000 29 18343579629665492039
14508225 48 18267861683892411062
14648413 74 18191303986436298171
15042514 8 17906462017342615987
15490181 7 16825018049786298233
15848700 24 18270104743627470855
16945 1 18265909118592321761
17539 30 17980189786511904646
18915476 22 18048333415877172939
20600515 1 18265308682328014675
20645477 70 18264756839840859671
20671657 53 18341334405293457127
20711985 344 18048031865959641418
20871999 31 18190463757488683039
21426921 1 17906737999489133038
21524375 3 17324350200416339113
22112679 90 18124058761245213252
23114952 82 18262510515725056453
23402539 116 18196928881633986967
23419403 2 17462803797131132324
23526113 38 18260547848598758963
23557571 272 18264763273590741738
2748010 2 18267846316330678968
3071541 12 18337393854514401877
3071541 250 18410018736280132999
3084891 72 17836087045246796440
3250762 1 17973170809540027683
532947 4 18124323954734316532
7364860 26 18266457787811203685
81228 2 18267021652587261370
81539 233 17973717275361104381

> <PUBCHEM_SHAPE_MULTIPOLES>
294.06
5.8
4.74
0.96
5.67
5.28
-0.09
-5.27
2
-5.76
1.23
-0.18
-0.23
0.21

> <PUBCHEM_SHAPE_SELFOVERLAP>
565.268

> <PUBCHEM_SHAPE_VOLUME>
179.3

> <PUBCHEM_COORDINATE_TYPE>
2
5
10

$$$$
