17971084
  -OEChem-11012401033D

 24 26  0     0  0  0  0  0  0999 V2000
   -1.5836    3.1295   -0.0012 Cl  0  0  0  0  0  0  0  0  0  0  0  0
   -1.5826   -3.1297    0.0003 Cl  0  0  0  0  0  0  0  0  0  0  0  0
    0.7935    1.4269    0.0002 O   0  0  0  0  0  0  0  0  0  0  0  0
    0.7936   -1.4268   -0.0007 O   0  0  0  0  0  0  0  0  0  0  0  0
   -3.9717    1.3637    0.0010 O   0  0  0  0  0  0  0  0  0  0  0  0
   -3.9721   -1.3636    0.0009 O   0  0  0  0  0  0  0  0  0  0  0  0
   -0.3682    0.6970    0.0000 C   0  0  0  0  0  0  0  0  0  0  0  0
   -0.3680   -0.6970   -0.0005 C   0  0  0  0  0  0  0  0  0  0  0  0
    1.9552    0.6971    0.0001 C   0  0  0  0  0  0  0  0  0  0  0  0
    1.9552   -0.6970   -0.0002 C   0  0  0  0  0  0  0  0  0  0  0  0
   -1.5732    1.3983    0.0003 C   0  0  0  0  0  0  0  0  0  0  0  0
   -1.5732   -1.3985   -0.0008 C   0  0  0  0  0  0  0  0  0  0  0  0
   -2.7798    0.6979    0.0000 C   0  0  0  0  0  0  0  0  0  0  0  0
   -2.7798   -0.6981   -0.0005 C   0  0  0  0  0  0  0  0  0  0  0  0
    3.1604    1.3985    0.0004 C   0  0  0  0  0  0  0  0  0  0  0  0
    3.1605   -1.3983   -0.0001 C   0  0  0  0  0  0  0  0  0  0  0  0
    4.3670    0.6981    0.0005 C   0  0  0  0  0  0  0  0  0  0  0  0
    4.3670   -0.6979    0.0003 C   0  0  0  0  0  0  0  0  0  0  0  0
    3.1679    2.4848    0.0006 H   0  0  0  0  0  0  0  0  0  0  0  0
    3.1682   -2.4847   -0.0003 H   0  0  0  0  0  0  0  0  0  0  0  0
    5.3083    1.2400    0.0007 H   0  0  0  0  0  0  0  0  0  0  0  0
    5.3085   -1.2396    0.0003 H   0  0  0  0  0  0  0  0  0  0  0  0
   -3.7887    2.3191    0.0015 H   0  0  0  0  0  0  0  0  0  0  0  0
   -3.7893   -2.3191    0.0007 H   0  0  0  0  0  0  0  0  0  0  0  0
  1 11  1  0  0  0  0
  2 12  1  0  0  0  0
  3  7  1  0  0  0  0
  3  9  1  0  0  0  0
  4  8  1  0  0  0  0
  4 10  1  0  0  0  0
  5 13  1  0  0  0  0
  5 23  1  0  0  0  0
  6 14  1  0  0  0  0
  6 24  1  0  0  0  0
  7  8  1  0  0  0  0
  7 11  2  0  0  0  0
  8 12  2  0  0  0  0
  9 10  1  0  0  0  0
  9 15  2  0  0  0  0
 10 16  2  0  0  0  0
 11 13  1  0  0  0  0
 12 14  1  0  0  0  0
 13 14  2  0  0  0  0
 15 17  1  0  0  0  0
 15 19  1  0  0  0  0
 16 18  1  0  0  0  0
 16 20  1  0  0  0  0
 17 18  2  0  0  0  0
 17 21  1  0  0  0  0
 18 22  1  0  0  0  0
M  END
> <PUBCHEM_COMPOUND_CID>
17971084

> <PUBCHEM_CONFORMER_RMSD>
0.6

> <PUBCHEM_CONFORMER_DIVERSEORDER>
1

> <PUBCHEM_MMFF94_PARTIAL_CHARGES>
24
1 -0.18
10 0.08
11 0.18
12 0.18
13 0.08
14 0.08
15 -0.15
16 -0.15
17 -0.15
18 -0.15
19 0.15
2 -0.18
20 0.15
21 0.15
22 0.15
23 0.45
24 0.45
3 -0.17
4 -0.17
5 -0.53
6 -0.53
7 0.08
8 0.08
9 0.08

> <PUBCHEM_EFFECTIVE_ROTOR_COUNT>
0.4

> <PUBCHEM_PHARMACOPHORE_FEATURES>
7
1 3 acceptor
1 4 acceptor
1 5 donor
1 6 donor
6 3 4 7 8 9 10 rings
6 7 8 11 12 13 14 rings
6 9 10 15 16 17 18 rings

> <PUBCHEM_HEAVY_ATOM_COUNT>
18

> <PUBCHEM_ATOM_DEF_STEREO_COUNT>
0

> <PUBCHEM_ATOM_UDEF_STEREO_COUNT>
0

> <PUBCHEM_BOND_DEF_STEREO_COUNT>
0

> <PUBCHEM_BOND_UDEF_STEREO_COUNT>
0

> <PUBCHEM_ISOTOPIC_ATOM_COUNT>
0

> <PUBCHEM_COMPONENT_COUNT>
1

> <PUBCHEM_CACTVS_TAUTO_COUNT>
4

> <PUBCHEM_CONFORMER_ID>
0112378C00000001

> <PUBCHEM_MMFF94_ENERGY>
51.5256

> <PUBCHEM_FEATURE_SELFOVERLAP>
35.603

> <PUBCHEM_SHAPE_FINGERPRINT>
10319926 262 18269531928919706906
10411042 1 17906172106813603439
10608611 8 18412541011886416424
10616163 171 18339645641517395702
10967382 1 18338799047227365254
11132069 177 18411978061790362544
11578080 2 16914803997712346051
12173636 292 18338794507494705389
12403259 226 18413383246267351880
13140716 1 18266462194452755554
13221675 6 18410854352258798954
13380535 76 18341894052242947934
138480 1 16681472885870463271
14144814 61 18410292497622219570
14790565 3 18196380225754135665
15042514 8 18409452513704609155
15196674 1 18410575089163761548
15309172 13 18339370664741262339
15442244 35 18265330604241961050
15536298 74 18342176670229228036
16945 1 18410575089074090758
17492 89 18409729526099951714
17804303 29 18413111658347190740
18186145 218 18114458981416307110
19591789 44 18122065303719585631
200 152 17988916782448381461
20510252 161 18343022164126442033
21029758 11 18341606079560798101
21267235 1 18410302440229273826
21501502 16 18410575084995407776
2334 1 17978511163042579534
23402539 116 18271800250945214359
23463225 33 18408604764564228820
23557571 272 18272099335050325302
23559900 14 18342454834065832344
238 59 16454566731117956301
2748010 2 18052531368050755889
335352 9 18338798888397952284
34934 24 18338791350709508194
350125 39 18265900150743123856
4214541 1 18410855451944461060
474 4 17168996758554947428
5104073 3 18410855460439379642
54173680 148 18265616661426803379
69090 78 18412259510765115263
7364860 26 18196371412333141742
8809292 202 18335140950741426802
9709674 26 18341618118117135454

> <PUBCHEM_SHAPE_MULTIPOLES>
350.69
7.36
2.87
0.6
3.91
0
0
0
0
-2.1
0
0.03
0
0

> <PUBCHEM_SHAPE_SELFOVERLAP>
771.479

> <PUBCHEM_SHAPE_VOLUME>
189.4

> <PUBCHEM_COORDINATE_TYPE>
2
5
10

$$$$
