74029
  -OEChem-11012400463D

 30 31  0     0  0  0  0  0  0999 V2000
   -1.8414    2.7515    0.1097 O   0  0  0  0  0  0  0  0  0  0  0  0
    2.6867   -2.8941    0.1201 O   0  5  0  0  0  0  0  0  0  0  0  0
    0.7201   -2.0154   -0.3032 O   0  0  0  0  0  0  0  0  0  0  0  0
   -0.2660    0.4743    0.5516 N   0  0  0  0  0  0  0  0  0  0  0  0
    0.3692    0.4306   -0.5275 N   0  0  0  0  0  0  0  0  0  0  0  0
    1.9485   -1.9013   -0.0815 N   0  3  0  0  0  0  0  0  0  0  0  0
   -3.6049   -1.0066    0.0236 C   0  0  0  0  0  0  0  0  0  0  0  0
   -1.6395    0.3707    0.3012 C   0  0  0  0  0  0  0  0  0  0  0  0
   -2.2372   -0.8893    0.2715 C   0  0  0  0  0  0  0  0  0  0  0  0
   -2.4093    1.5132    0.0830 C   0  0  0  0  0  0  0  0  0  0  0  0
   -4.3748    0.1358   -0.1944 C   0  0  0  0  0  0  0  0  0  0  0  0
    1.7481    0.5348   -0.2766 C   0  0  0  0  0  0  0  0  0  0  0  0
   -3.7769    1.3958   -0.1648 C   0  0  0  0  0  0  0  0  0  0  0  0
    2.5245   -0.6007   -0.0575 C   0  0  0  0  0  0  0  0  0  0  0  0
   -4.2448   -2.3532   -0.0073 C   0  0  0  0  0  0  0  0  0  0  0  0
    2.3309    1.7998   -0.2503 C   0  0  0  0  0  0  0  0  0  0  0  0
    3.8912   -0.4706    0.1893 C   0  0  0  0  0  0  0  0  0  0  0  0
    3.6976    1.9299   -0.0034 C   0  0  0  0  0  0  0  0  0  0  0  0
    4.4778    0.7947    0.2164 C   0  0  0  0  0  0  0  0  0  0  0  0
   -1.6517   -1.7836    0.4604 H   0  0  0  0  0  0  0  0  0  0  0  0
   -5.4410    0.0579   -0.3901 H   0  0  0  0  0  0  0  0  0  0  0  0
   -4.3887    2.2774   -0.3367 H   0  0  0  0  0  0  0  0  0  0  0  0
   -3.7766   -3.0272    0.7183 H   0  0  0  0  0  0  0  0  0  0  0  0
   -5.3079   -2.2949    0.2498 H   0  0  0  0  0  0  0  0  0  0  0  0
   -4.1510   -2.7907   -1.0062 H   0  0  0  0  0  0  0  0  0  0  0  0
    1.7318    2.6905   -0.4212 H   0  0  0  0  0  0  0  0  0  0  0  0
    4.5333   -1.3299    0.3651 H   0  0  0  0  0  0  0  0  0  0  0  0
    4.1544    2.9150    0.0175 H   0  0  0  0  0  0  0  0  0  0  0  0
    5.5420    0.8967    0.4085 H   0  0  0  0  0  0  0  0  0  0  0  0
   -2.5275    3.4191   -0.0622 H   0  0  0  0  0  0  0  0  0  0  0  0
  1 10  1  0  0  0  0
  1 30  1  0  0  0  0
  2  6  1  0  0  0  0
  3  6  2  0  0  0  0
  4  5  2  0  0  0  0
  4  8  1  0  0  0  0
  5 12  1  0  0  0  0
  6 14  1  0  0  0  0
  7  9  2  0  0  0  0
  7 11  1  0  0  0  0
  7 15  1  0  0  0  0
  8  9  1  0  0  0  0
  8 10  2  0  0  0  0
  9 20  1  0  0  0  0
 10 13  1  0  0  0  0
 11 13  2  0  0  0  0
 11 21  1  0  0  0  0
 12 14  1  0  0  0  0
 12 16  2  0  0  0  0
 13 22  1  0  0  0  0
 14 17  2  0  0  0  0
 15 23  1  0  0  0  0
 15 24  1  0  0  0  0
 15 25  1  0  0  0  0
 16 18  1  0  0  0  0
 16 26  1  0  0  0  0
 17 19  1  0  0  0  0
 17 27  1  0  0  0  0
 18 19  2  0  0  0  0
 18 28  1  0  0  0  0
 19 29  1  0  0  0  0
M  CHG  2   2  -1   6   1
M  END
> <PUBCHEM_COMPOUND_CID>
74029

> <PUBCHEM_CONFORMER_RMSD>
0.6

> <PUBCHEM_CONFORMER_DIVERSEORDER>
1
5
3
6
2
4

> <PUBCHEM_MMFF94_PARTIAL_CHARGES>
27
1 -0.53
10 0.08
11 -0.15
12 0.18
13 -0.15
14 0.13
15 0.14
16 -0.15
17 -0.15
18 -0.15
19 -0.15
2 -0.52
20 0.15
21 0.15
22 0.15
26 0.15
27 0.15
28 0.15
29 0.15
3 -0.52
30 0.45
4 -0.18
5 -0.18
6 0.91
7 -0.14
8 0.18
9 -0.15

> <PUBCHEM_EFFECTIVE_ROTOR_COUNT>
3

> <PUBCHEM_PHARMACOPHORE_FEATURES>
6
1 1 donor
1 2 acceptor
1 2 anion
1 3 acceptor
6 12 14 16 17 18 19 rings
6 7 8 9 10 11 13 rings

> <PUBCHEM_HEAVY_ATOM_COUNT>
19

> <PUBCHEM_ATOM_DEF_STEREO_COUNT>
0

> <PUBCHEM_ATOM_UDEF_STEREO_COUNT>
0

> <PUBCHEM_BOND_DEF_STEREO_COUNT>
0

> <PUBCHEM_BOND_UDEF_STEREO_COUNT>
0

> <PUBCHEM_ISOTOPIC_ATOM_COUNT>
0

> <PUBCHEM_COMPONENT_COUNT>
1

> <PUBCHEM_CACTVS_TAUTO_COUNT>
3

> <PUBCHEM_CONFORMER_ID>
0001212D00000001

> <PUBCHEM_MMFF94_ENERGY>
60.9318

> <PUBCHEM_FEATURE_SELFOVERLAP>
30.528

> <PUBCHEM_SHAPE_FINGERPRINT>
10608611 8 18337390444052107437
10616163 171 18412546526529485511
11370993 70 18409163324649811874
12107183 9 17763183544619839457
12403259 226 18411978083270967424
12839892 36 18338782494851097074
13167823 11 18411417332060733054
14178342 30 18266449915505357192
14289901 80 18411983550558158953
14787075 74 17914614101393359448
15196674 1 18410575106143209638
15375358 24 18260830414354354523
15375462 6 18411419522546970493
15442244 35 18122627145766629976
15536298 74 18341050722687692870
15927050 60 14521709767309801014
17349148 13 18040433338546919824
17492 89 18410292484648575819
18681886 176 18338796836163662056
19050596 39 18411983559195650441
200 152 18272366499238346365
20645477 56 18187364282151292653
20645477 70 18271526411824380511
21267235 1 18410583902341960767
21501502 16 18340491058473871857
21618674 54 18410009931707945887
21673915 165 18411135878606455118
21709351 56 18335134315196069060
221490 88 18410019814364923178
22393880 68 18411426076941247782
23402539 116 18261384589810954813
23557571 272 18271816734813600205
23559900 14 18268986501573100202
2871803 45 18410572924484712543
33824 294 18409166623664678162
3545911 37 18409450267341533853
4214541 1 18409729543300270125
4280585 95 17694232075790595574
4409770 3 13874849274387309581
474229 33 18267584791872709998
5104073 3 18411419505356325281
5283173 99 18187911860495798765
58051976 100 18411139100069063829
58051976 378 18413387631122551364
6333272 397 18338797931042367968
7364860 26 18340770334569615310
77779 3 18410576192828191649
9709674 26 18408610257500827083

> <PUBCHEM_SHAPE_MULTIPOLES>
358.46
9.36
2.73
0.64
1.08
0.75
0
0.3
0.09
0.06
-0.03
0.01
-0.03
-0.03

> <PUBCHEM_SHAPE_SELFOVERLAP>
776.559

> <PUBCHEM_SHAPE_VOLUME>
196.8

> <PUBCHEM_COORDINATE_TYPE>
2
5
10

$$$$
