138669
  -OEChem-11012401063D

 60 63  0     0  0  0  0  0  0999 V2000
    2.8661    2.7441    0.9800 O   0  0  0  0  0  0  0  0  0  0  0  0
   -3.2093    1.9233    1.6106 O   0  0  0  0  0  0  0  0  0  0  0  0
    3.2390    0.4905    0.4542 N   0  0  0  0  0  0  0  0  0  0  0  0
   -3.3327    0.3111   -0.0933 N   0  0  0  0  0  0  0  0  0  0  0  0
    1.1953    1.2220    1.4146 N   0  0  0  0  0  0  0  0  0  0  0  0
   -1.4153    1.7436    0.1811 N   0  0  0  0  0  0  0  0  0  0  0  0
    0.2603    2.1867    1.9271 C   0  0  0  0  0  0  0  0  0  0  0  0
   -0.6228    2.7610    0.8321 C   0  0  0  0  0  0  0  0  0  0  0  0
    2.4721    1.5738    0.9621 C   0  0  0  0  0  0  0  0  0  0  0  0
   -2.6883    1.3861    0.6283 C   0  0  0  0  0  0  0  0  0  0  0  0
    4.2145    0.7309   -0.5835 C   0  0  0  0  0  0  0  0  0  0  0  0
    3.1595   -0.8394    0.9984 C   0  0  0  0  0  0  0  0  0  0  0  0
   -2.5903   -0.7029   -0.6993 C   0  0  0  0  0  0  0  0  0  0  0  0
   -4.7930    0.2332   -0.1056 C   0  0  0  0  0  0  0  0  0  0  0  0
    5.3987   -0.0058   -0.6116 C   0  0  0  0  0  0  0  0  0  0  0  0
    2.8546   -1.9164    0.1660 C   0  0  0  0  0  0  0  0  0  0  0  0
   -2.7509   -0.9670   -2.0596 C   0  0  0  0  0  0  0  0  0  0  0  0
   -5.4251   -1.0103   -0.1152 C   0  0  0  0  0  0  0  0  0  0  0  0
    3.9724    1.6991   -1.5580 C   0  0  0  0  0  0  0  0  0  0  0  0
    3.3881   -1.0517    2.3580 C   0  0  0  0  0  0  0  0  0  0  0  0
   -1.6869   -1.4522    0.0546 C   0  0  0  0  0  0  0  0  0  0  0  0
   -5.5541    1.4023   -0.1069 C   0  0  0  0  0  0  0  0  0  0  0  0
    6.3408    0.2259   -1.6138 C   0  0  0  0  0  0  0  0  0  0  0  0
    2.7779   -3.2056    0.6931 C   0  0  0  0  0  0  0  0  0  0  0  0
   -2.0086   -1.9804   -2.6658 C   0  0  0  0  0  0  0  0  0  0  0  0
   -6.8179   -1.0848   -0.1266 C   0  0  0  0  0  0  0  0  0  0  0  0
    4.9145    1.9308   -2.5604 C   0  0  0  0  0  0  0  0  0  0  0  0
    3.3115   -2.3409    2.8850 C   0  0  0  0  0  0  0  0  0  0  0  0
   -0.9444   -2.4654   -0.5518 C   0  0  0  0  0  0  0  0  0  0  0  0
   -6.9469    1.3277   -0.1182 C   0  0  0  0  0  0  0  0  0  0  0  0
    6.0987    1.1941   -2.5881 C   0  0  0  0  0  0  0  0  0  0  0  0
    3.0064   -3.4179    2.0525 C   0  0  0  0  0  0  0  0  0  0  0  0
   -1.1053   -2.7296   -1.9120 C   0  0  0  0  0  0  0  0  0  0  0  0
   -7.5788    0.0840   -0.1281 C   0  0  0  0  0  0  0  0  0  0  0  0
    0.8078    2.9939    2.4250 H   0  0  0  0  0  0  0  0  0  0  0  0
   -0.3454    1.6736    2.6819 H   0  0  0  0  0  0  0  0  0  0  0  0
   -0.0145    3.2353    0.0543 H   0  0  0  0  0  0  0  0  0  0  0  0
   -1.2879    3.5233    1.2516 H   0  0  0  0  0  0  0  0  0  0  0  0
    0.8874    0.2584    1.3321 H   0  0  0  0  0  0  0  0  0  0  0  0
   -1.0325    1.2997   -0.6472 H   0  0  0  0  0  0  0  0  0  0  0  0
    5.6356   -0.7515    0.1420 H   0  0  0  0  0  0  0  0  0  0  0  0
    2.6631   -1.7678   -0.8937 H   0  0  0  0  0  0  0  0  0  0  0  0
   -3.4434   -0.3873   -2.6650 H   0  0  0  0  0  0  0  0  0  0  0  0
   -4.8652   -1.9411   -0.0944 H   0  0  0  0  0  0  0  0  0  0  0  0
    3.0487    2.2710   -1.5773 H   0  0  0  0  0  0  0  0  0  0  0  0
    3.6316   -0.2229    3.0177 H   0  0  0  0  0  0  0  0  0  0  0  0
   -1.5541   -1.2646    1.1172 H   0  0  0  0  0  0  0  0  0  0  0  0
   -5.0901    2.3845   -0.1247 H   0  0  0  0  0  0  0  0  0  0  0  0
    7.2653   -0.3438   -1.6329 H   0  0  0  0  0  0  0  0  0  0  0  0
    2.5373   -4.0435    0.0455 H   0  0  0  0  0  0  0  0  0  0  0  0
   -2.1324   -2.1850   -3.7252 H   0  0  0  0  0  0  0  0  0  0  0  0
   -7.3103   -2.0529   -0.1300 H   0  0  0  0  0  0  0  0  0  0  0  0
    4.7238    2.6807   -3.3226 H   0  0  0  0  0  0  0  0  0  0  0  0
    3.4903   -2.5065    3.9434 H   0  0  0  0  0  0  0  0  0  0  0  0
   -0.2484   -3.0543    0.0372 H   0  0  0  0  0  0  0  0  0  0  0  0
   -7.5398    2.2377   -0.1249 H   0  0  0  0  0  0  0  0  0  0  0  0
    6.8321    1.3744   -3.3686 H   0  0  0  0  0  0  0  0  0  0  0  0
    2.9461   -4.4216    2.4630 H   0  0  0  0  0  0  0  0  0  0  0  0
   -0.5279   -3.5195   -2.3834 H   0  0  0  0  0  0  0  0  0  0  0  0
   -8.6632    0.0261   -0.1372 H   0  0  0  0  0  0  0  0  0  0  0  0
  1  9  2  0  0  0  0
  2 10  2  0  0  0  0
  3  9  1  0  0  0  0
  3 11  1  0  0  0  0
  3 12  1  0  0  0  0
  4 10  1  0  0  0  0
  4 13  1  0  0  0  0
  4 14  1  0  0  0  0
  5  7  1  0  0  0  0
  5  9  1  0  0  0  0
  5 39  1  0  0  0  0
  6  8  1  0  0  0  0
  6 10  1  0  0  0  0
  6 40  1  0  0  0  0
  7  8  1  0  0  0  0
  7 35  1  0  0  0  0
  7 36  1  0  0  0  0
  8 37  1  0  0  0  0
  8 38  1  0  0  0  0
 11 15  2  0  0  0  0
 11 19  1  0  0  0  0
 12 16  2  0  0  0  0
 12 20  1  0  0  0  0
 13 17  2  0  0  0  0
 13 21  1  0  0  0  0
 14 18  2  0  0  0  0
 14 22  1  0  0  0  0
 15 23  1  0  0  0  0
 15 41  1  0  0  0  0
 16 24  1  0  0  0  0
 16 42  1  0  0  0  0
 17 25  1  0  0  0  0
 17 43  1  0  0  0  0
 18 26  1  0  0  0  0
 18 44  1  0  0  0  0
 19 27  2  0  0  0  0
 19 45  1  0  0  0  0
 20 28  2  0  0  0  0
 20 46  1  0  0  0  0
 21 29  2  0  0  0  0
 21 47  1  0  0  0  0
 22 30  2  0  0  0  0
 22 48  1  0  0  0  0
 23 31  2  0  0  0  0
 23 49  1  0  0  0  0
 24 32  2  0  0  0  0
 24 50  1  0  0  0  0
 25 33  2  0  0  0  0
 25 51  1  0  0  0  0
 26 34  2  0  0  0  0
 26 52  1  0  0  0  0
 27 31  1  0  0  0  0
 27 53  1  0  0  0  0
 28 32  1  0  0  0  0
 28 54  1  0  0  0  0
 29 33  1  0  0  0  0
 29 55  1  0  0  0  0
 30 34  1  0  0  0  0
 30 56  1  0  0  0  0
 31 57  1  0  0  0  0
 32 58  1  0  0  0  0
 33 59  1  0  0  0  0
 34 60  1  0  0  0  0
M  END
> <PUBCHEM_COMPOUND_CID>
138669

> <PUBCHEM_CONFORMER_RMSD>
1

> <PUBCHEM_CONFORMER_DIVERSEORDER>
1
2
34
16
21
31
38
26
42
30
71
22
59
80
6
10
78
7
32
25
12
39
53
63
36
74
41
72
18
58
13
23
24
61
15
8
45
48
73
33
19
76
55
47
60
54
52
28
57
17
11
46
79
51
65
9
56
43
62
14
29
49
37
50
67
69
5
40
68
75
77
64
66
35
3
4
20
70
44
27

> <PUBCHEM_MMFF94_PARTIAL_CHARGES>
56
1 -0.57
10 0.69
11 0.12
12 0.12
13 0.12
14 0.12
15 -0.15
16 -0.15
17 -0.15
18 -0.15
19 -0.15
2 -0.57
20 -0.15
21 -0.15
22 -0.15
23 -0.15
24 -0.15
25 -0.15
26 -0.15
27 -0.15
28 -0.15
29 -0.15
3 -0.29
30 -0.15
31 -0.15
32 -0.15
33 -0.15
34 -0.15
39 0.37
4 -0.29
40 0.37
41 0.15
42 0.15
43 0.15
44 0.15
45 0.15
46 0.15
47 0.15
48 0.15
49 0.15
5 -0.73
50 0.15
51 0.15
52 0.15
53 0.15
54 0.15
55 0.15
56 0.15
57 0.15
58 0.15
59 0.15
6 -0.73
60 0.15
7 0.3
8 0.3
9 0.69

> <PUBCHEM_EFFECTIVE_ROTOR_COUNT>
11

> <PUBCHEM_PHARMACOPHORE_FEATURES>
8
1 1 acceptor
1 2 acceptor
1 5 donor
1 6 donor
6 11 15 19 23 27 31 rings
6 12 16 20 24 28 32 rings
6 13 17 21 25 29 33 rings
6 14 18 22 26 30 34 rings

> <PUBCHEM_HEAVY_ATOM_COUNT>
34

> <PUBCHEM_ATOM_DEF_STEREO_COUNT>
0

> <PUBCHEM_ATOM_UDEF_STEREO_COUNT>
0

> <PUBCHEM_BOND_DEF_STEREO_COUNT>
0

> <PUBCHEM_BOND_UDEF_STEREO_COUNT>
0

> <PUBCHEM_ISOTOPIC_ATOM_COUNT>
0

> <PUBCHEM_COMPONENT_COUNT>
1

> <PUBCHEM_CACTVS_TAUTO_COUNT>
3

> <PUBCHEM_CONFORMER_ID>
00021DAD00000001

> <PUBCHEM_MMFF94_ENERGY>
152.709

> <PUBCHEM_FEATURE_SELFOVERLAP>
40.599

> <PUBCHEM_SHAPE_FINGERPRINT>
10369192 42 16516262850219788420
12422481 6 18128817435603009793
12553582 1 18129928044629758104
12788726 201 18202007577334572520
13402501 40 17131563781580552004
14114211 68 18187660115061080214
15001296 14 18200023087668997012
15264996 154 18267868272320774983
15264996 19 18116158955401006547
15274700 259 18046322178189858133
15406563 42 16951139493808623338
15537594 2 18413385449347853547
19319366 153 18333731321343070986
20465049 17 18272094936845785750
21792965 302 18192995052795527892
23559900 14 16630524085071070345
3004659 81 18334571296301449490
3383291 50 17561088029283904655
34797466 226 16588021308412712425
394071 54 16443070508273239829
4093350 32 16877662357497447285
4098825 35 17458620060560579597
4173938 77 18265899232174608581
46194498 28 17240756238601441266
474144 1 18336259047024930554
513532 50 16200421469130783854
5252454 2 18114452474609951838
5776283 40 18058178396317558940
6138700 20 18060426811401362461
6823239 73 17346597500023615792
86090 222 15769510763119084540

> <PUBCHEM_SHAPE_MULTIPOLES>
668.04
16.81
3.59
2.58
16.35
1.56
-0.43
-4.31
-5.6
-2.94
1.07
-3.51
0.52
-4.45

> <PUBCHEM_SHAPE_SELFOVERLAP>
1443.018

> <PUBCHEM_SHAPE_VOLUME>
362.2

> <PUBCHEM_COORDINATE_TYPE>
2
5
10

$$$$
