139145
  -OEChem-11012400333D

 28 29  0     0  0  0  0  0  0999 V2000
    0.8029   -1.6202   -0.6578 S   0  0  0  0  0  0  0  0  0  0  0  0
   -0.7850   -1.6155    0.6526 S   0  0  0  0  0  0  0  0  0  0  0  0
    1.6129   -2.7639   -0.2870 O   0  0  0  0  0  0  0  0  0  0  0  0
    0.2425   -1.5060   -1.9898 O   0  0  0  0  0  0  0  0  0  0  0  0
   -0.1998   -1.5015    1.9801 O   0  0  0  0  0  0  0  0  0  0  0  0
   -1.5771   -2.7852    0.3023 O   0  0  0  0  0  0  0  0  0  0  0  0
    1.7304   -0.1543   -0.3374 C   0  0  0  0  0  0  0  0  0  0  0  0
   -1.7228   -0.1767    0.3381 C   0  0  0  0  0  0  0  0  0  0  0  0
    2.7544   -0.1885    0.5960 C   0  0  0  0  0  0  0  0  0  0  0  0
   -2.7624   -0.2110   -0.5913 C   0  0  0  0  0  0  0  0  0  0  0  0
    1.4208    1.0093   -1.0240 C   0  0  0  0  0  0  0  0  0  0  0  0
   -1.4321    1.0074    1.0160 C   0  0  0  0  0  0  0  0  0  0  0  0
    3.4874    0.9708    0.8497 C   0  0  0  0  0  0  0  0  0  0  0  0
   -3.5113    0.9385   -0.8430 C   0  0  0  0  0  0  0  0  0  0  0  0
    2.1541    2.1684   -0.7703 C   0  0  0  0  0  0  0  0  0  0  0  0
   -2.1812    2.1569    0.7643 C   0  0  0  0  0  0  0  0  0  0  0  0
    3.1874    2.1491    0.1665 C   0  0  0  0  0  0  0  0  0  0  0  0
   -3.2208    2.1224   -0.1652 C   0  0  0  0  0  0  0  0  0  0  0  0
    2.9983   -1.0940    1.1430 H   0  0  0  0  0  0  0  0  0  0  0  0
   -3.0013   -1.1205   -1.1352 H   0  0  0  0  0  0  0  0  0  0  0  0
    0.6173    1.0467   -1.7533 H   0  0  0  0  0  0  0  0  0  0  0  0
   -0.6246    1.0591    1.7409 H   0  0  0  0  0  0  0  0  0  0  0  0
    4.2907    0.9565    1.5806 H   0  0  0  0  0  0  0  0  0  0  0  0
   -4.3195    0.9124   -1.5679 H   0  0  0  0  0  0  0  0  0  0  0  0
    1.9193    3.0866   -1.3008 H   0  0  0  0  0  0  0  0  0  0  0  0
   -1.9539    3.0793    1.2907 H   0  0  0  0  0  0  0  0  0  0  0  0
    3.7575    3.0520    0.3647 H   0  0  0  0  0  0  0  0  0  0  0  0
   -3.8032    3.0177   -0.3618 H   0  0  0  0  0  0  0  0  0  0  0  0
  1  2  1  0  0  0  0
  1  3  2  0  0  0  0
  1  4  2  0  0  0  0
  1  7  1  0  0  0  0
  2  5  2  0  0  0  0
  2  6  2  0  0  0  0
  2  8  1  0  0  0  0
  7  9  2  0  0  0  0
  7 11  1  0  0  0  0
  8 10  2  0  0  0  0
  8 12  1  0  0  0  0
  9 13  1  0  0  0  0
  9 19  1  0  0  0  0
 10 14  1  0  0  0  0
 10 20  1  0  0  0  0
 11 15  2  0  0  0  0
 11 21  1  0  0  0  0
 12 16  2  0  0  0  0
 12 22  1  0  0  0  0
 13 17  2  0  0  0  0
 13 23  1  0  0  0  0
 14 18  2  0  0  0  0
 14 24  1  0  0  0  0
 15 17  1  0  0  0  0
 15 25  1  0  0  0  0
 16 18  1  0  0  0  0
 16 26  1  0  0  0  0
 17 27  1  0  0  0  0
 18 28  1  0  0  0  0
M  END
> <PUBCHEM_COMPOUND_CID>
139145

> <PUBCHEM_CONFORMER_RMSD>
0.6

> <PUBCHEM_CONFORMER_DIVERSEORDER>
1
3
4
6
2
5

> <PUBCHEM_MMFF94_PARTIAL_CHARGES>
28
1 1.31
10 -0.15
11 -0.15
12 -0.15
13 -0.15
14 -0.15
15 -0.15
16 -0.15
17 -0.15
18 -0.15
19 0.15
2 1.31
20 0.15
21 0.15
22 0.15
23 0.15
24 0.15
25 0.15
26 0.15
27 0.15
28 0.15
3 -0.65
4 -0.65
5 -0.65
6 -0.65
7 -0.01
8 -0.01
9 -0.15

> <PUBCHEM_EFFECTIVE_ROTOR_COUNT>
3

> <PUBCHEM_PHARMACOPHORE_FEATURES>
2
6 7 9 11 13 15 17 rings
6 8 10 12 14 16 18 rings

> <PUBCHEM_HEAVY_ATOM_COUNT>
18

> <PUBCHEM_ATOM_DEF_STEREO_COUNT>
0

> <PUBCHEM_ATOM_UDEF_STEREO_COUNT>
0

> <PUBCHEM_BOND_DEF_STEREO_COUNT>
0

> <PUBCHEM_BOND_UDEF_STEREO_COUNT>
0

> <PUBCHEM_ISOTOPIC_ATOM_COUNT>
0

> <PUBCHEM_COMPONENT_COUNT>
1

> <PUBCHEM_CACTVS_TAUTO_COUNT>
1

> <PUBCHEM_CONFORMER_ID>
00021F8900000001

> <PUBCHEM_MMFF94_ENERGY>
24.7098

> <PUBCHEM_FEATURE_SELFOVERLAP>
10.149

> <PUBCHEM_SHAPE_FINGERPRINT>
11370993 70 18338504300786392393
12011746 2 18265051341194351134
12077114 3 18268988855500099416
12654903 92 17195173608786079205
13134695 92 17978511932021372814
14250199 8 18126568920922483789
14251751 93 17609250031641860140
14251757 17 17690896376491367684
14713325 29 16452417564280294566
15276787 5 15719386218083270308
15848702 105 18197759184927453535
15852999 172 18410852161593440960
16945 1 18410864264816516770
17492 54 17911503613416515837
18186145 218 18267591212848934589
18981168 100 18194433093169859619
192875 21 18338499924241104693
20510252 161 18052828236432933112
21041028 32 16316975968021691203
21296965 12 18198354033339341766
21524375 3 18410569591405357473
21947302 44 18341336582678137967
22749437 52 18410852165904570209
23559900 14 18343295986220621480
2748010 2 18266200420438478759
4340502 62 18260831471855286509
474 4 18337110051686769265
49207404 50 18119281435395364961
5262128 65 17557153804627556149
5939293 188 17834391220380248996
7364860 26 18127971901674594164
7832392 63 17477208228346853297
81228 2 17607561130236577315
84936 182 18200586978162435721
9981440 41 18340195397204242026

> <PUBCHEM_SHAPE_MULTIPOLES>
354.65
5.53
3.09
1.33
0.11
0.82
-0.01
-3.86
0
-0.03
0
-0.01
0.31
0.1

> <PUBCHEM_SHAPE_SELFOVERLAP>
733.413

> <PUBCHEM_SHAPE_VOLUME>
201.7

> <PUBCHEM_COORDINATE_TYPE>
2
5
10

$$$$
