68210
  -OEChem-11012401113D

 25 25  0     0  0  0  0  0  0999 V2000
   -0.8972   -1.8980   -0.3192 O   0  0  0  0  0  0  0  0  0  0  0  0
   -2.9871   -0.0991   -0.1716 O   0  0  0  0  0  0  0  0  0  0  0  0
    2.1422   -1.5308    1.0567 O   0  0  0  0  0  0  0  0  0  0  0  0
    2.3411   -1.4127   -1.2045 O   0  0  0  0  0  0  0  0  0  0  0  0
    3.3131    1.0927    0.1072 O   0  0  0  0  0  0  0  0  0  0  0  0
    0.6766   -0.1074   -0.0869 C   0  0  0  0  0  0  0  0  0  0  0  0
   -0.6380   -0.5671   -0.1675 C   0  0  0  0  0  0  0  0  0  0  0  0
    0.9304    1.2554    0.0683 C   0  0  0  0  0  0  0  0  0  0  0  0
   -1.6985    0.3360   -0.0929 C   0  0  0  0  0  0  0  0  0  0  0  0
   -0.1302    2.1584    0.1428 C   0  0  0  0  0  0  0  0  0  0  0  0
   -1.4446    1.6988    0.0621 C   0  0  0  0  0  0  0  0  0  0  0  0
    1.7806   -1.0589   -0.1657 C   0  0  0  0  0  0  0  0  0  0  0  0
    2.2913    1.7696    0.1565 C   0  0  0  0  0  0  0  0  0  0  0  0
   -1.6687   -2.5264    0.7013 C   0  0  0  0  0  0  0  0  0  0  0  0
   -4.0113    0.8897   -0.0867 C   0  0  0  0  0  0  0  0  0  0  0  0
   -2.2170    2.4572    0.1273 H   0  0  0  0  0  0  0  0  0  0  0  0
    0.0493    3.2239    0.2637 H   0  0  0  0  0  0  0  0  0  0  0  0
    2.3761    2.8636    0.2781 H   0  0  0  0  0  0  0  0  0  0  0  0
   -2.7200   -2.5705    0.4033 H   0  0  0  0  0  0  0  0  0  0  0  0
   -1.5667   -2.0222    1.6688 H   0  0  0  0  0  0  0  0  0  0  0  0
   -1.3063   -3.5526    0.8131 H   0  0  0  0  0  0  0  0  0  0  0  0
   -3.9628    1.5941   -0.9239 H   0  0  0  0  0  0  0  0  0  0  0  0
   -4.0049    1.3951    0.8851 H   0  0  0  0  0  0  0  0  0  0  0  0
   -4.9704    0.3673   -0.1663 H   0  0  0  0  0  0  0  0  0  0  0  0
    2.8848   -2.1691    0.9969 H   0  0  0  0  0  0  0  0  0  0  0  0
  1  7  1  0  0  0  0
  1 14  1  0  0  0  0
  2  9  1  0  0  0  0
  2 15  1  0  0  0  0
  3 12  1  0  0  0  0
  3 25  1  0  0  0  0
  4 12  2  0  0  0  0
  5 13  2  0  0  0  0
  6  7  1  0  0  0  0
  6  8  2  0  0  0  0
  6 12  1  0  0  0  0
  7  9  2  0  0  0  0
  8 10  1  0  0  0  0
  8 13  1  0  0  0  0
  9 11  1  0  0  0  0
 10 11  2  0  0  0  0
 10 17  1  0  0  0  0
 11 16  1  0  0  0  0
 13 18  1  0  0  0  0
 14 19  1  0  0  0  0
 14 20  1  0  0  0  0
 14 21  1  0  0  0  0
 15 22  1  0  0  0  0
 15 23  1  0  0  0  0
 15 24  1  0  0  0  0
M  END
> <PUBCHEM_COMPOUND_CID>
68210

> <PUBCHEM_CONFORMER_RMSD>
0.6

> <PUBCHEM_CONFORMER_DIVERSEORDER>
3
7
6
8
1
5
4
9
2

> <PUBCHEM_MMFF94_PARTIAL_CHARGES>
19
1 -0.36
10 -0.15
11 -0.15
12 0.63
13 0.42
14 0.28
15 0.28
16 0.15
17 0.15
18 0.06
2 -0.36
25 0.5
3 -0.65
4 -0.57
5 -0.57
6 0.09
7 0.08
8 0.09
9 0.08

> <PUBCHEM_EFFECTIVE_ROTOR_COUNT>
4

> <PUBCHEM_PHARMACOPHORE_FEATURES>
7
1 1 acceptor
1 2 acceptor
1 3 acceptor
1 4 acceptor
1 5 acceptor
3 3 4 12 anion
6 6 7 8 9 10 11 rings

> <PUBCHEM_HEAVY_ATOM_COUNT>
15

> <PUBCHEM_ATOM_DEF_STEREO_COUNT>
0

> <PUBCHEM_ATOM_UDEF_STEREO_COUNT>
0

> <PUBCHEM_BOND_DEF_STEREO_COUNT>
0

> <PUBCHEM_BOND_UDEF_STEREO_COUNT>
0

> <PUBCHEM_ISOTOPIC_ATOM_COUNT>
0

> <PUBCHEM_COMPONENT_COUNT>
1

> <PUBCHEM_CACTVS_TAUTO_COUNT>
1

> <PUBCHEM_CONFORMER_ID>
00010A7200000003

> <PUBCHEM_MMFF94_ENERGY>
66.9657

> <PUBCHEM_FEATURE_SELFOVERLAP>
35.588

> <PUBCHEM_SHAPE_FINGERPRINT>
10967382 1 18411136922383695757
11132069 177 18267860756417293424
11206711 2 18121223073776374173
11680986 33 18411427227697128938
12382932 28 18339922735231429456
12423570 1 13802595953962192828
12524768 44 18341897393663999319
12730499 353 17971179350002270829
13140716 1 18410292527370882579
13380535 21 18338529645430077983
13380535 76 18340762732044880822
14115302 16 18041574554681978982
14617773 55 17560529378434620841
15219456 202 18341339988550358222
161256 15 18339645542558944692
16945 1 17690842263649829797
18186145 218 18336826390735034037
193761 8 18194402418792986973
20511035 2 18270397312272143887
20588541 1 18340205288292689709
20645476 183 17749970885251045135
20645477 70 18341605972297327469
21501502 16 18338226184537144415
22344851 341 18335984271917458026
2334 1 18338799047433385903
23552423 10 18261675998851751348
23559900 14 18340491071949793110
2748010 2 18340214101554895335
5084963 1 17844526608795941489
528886 8 18341325707958269872
53812653 166 18270677696206231824
63268167 104 18343584040670497937
7364860 26 18201719531479709804
8809292 202 18335986449534429130

> <PUBCHEM_SHAPE_MULTIPOLES>
279.35
4.7
2.61
0.77
1.68
0.63
-0.01
-0.82
-0.11
-0.03
0.34
-0.23
0.28
0.32

> <PUBCHEM_SHAPE_SELFOVERLAP>
590.202

> <PUBCHEM_SHAPE_VOLUME>
156.9

> <PUBCHEM_COORDINATE_TYPE>
2
5
10

$$$$
