143037
  -OEChem-11012400393D

 22 22  0     0  0  0  0  0  0999 V2000
    2.3474   -0.0991    0.1036 S   0  0  0  0  0  0  0  0  0  0  0  0
    2.9527    1.0927    0.6813 O   0  0  0  0  0  0  0  0  0  0  0  0
    2.6272   -1.4056    0.6828 O   0  0  0  0  0  0  0  0  0  0  0  0
    2.7129   -0.1494   -1.5648 N   0  0  0  0  0  0  0  0  0  0  0  0
   -3.5450    0.6962   -0.0444 N   0  0  0  0  0  0  0  0  0  0  0  0
    0.6169    0.1285    0.0584 C   0  0  0  0  0  0  0  0  0  0  0  0
   -1.6148   -0.7959    0.0097 C   0  0  0  0  0  0  0  0  0  0  0  0
   -0.2322   -0.9782    0.0438 C   0  0  0  0  0  0  0  0  0  0  0  0
   -2.1481    0.4928   -0.0098 C   0  0  0  0  0  0  0  0  0  0  0  0
    0.0833    1.4172    0.0388 C   0  0  0  0  0  0  0  0  0  0  0  0
   -1.2991    1.5994    0.0047 C   0  0  0  0  0  0  0  0  0  0  0  0
   -2.5011   -1.9987   -0.0041 C   0  0  0  0  0  0  0  0  0  0  0  0
    0.1789   -1.9843    0.0527 H   0  0  0  0  0  0  0  0  0  0  0  0
    0.7258    2.2932    0.0433 H   0  0  0  0  0  0  0  0  0  0  0  0
   -1.7016    2.6091   -0.0117 H   0  0  0  0  0  0  0  0  0  0  0  0
   -1.9247   -2.9302    0.0148 H   0  0  0  0  0  0  0  0  0  0  0  0
   -3.1540   -2.0049    0.8751 H   0  0  0  0  0  0  0  0  0  0  0  0
   -3.1121   -2.0153   -0.9127 H   0  0  0  0  0  0  0  0  0  0  0  0
    3.2124    0.6527   -1.9678 H   0  0  0  0  0  0  0  0  0  0  0  0
    2.9879   -1.0545   -1.9655 H   0  0  0  0  0  0  0  0  0  0  0  0
   -3.9130    1.6385   -0.0586 H   0  0  0  0  0  0  0  0  0  0  0  0
   -4.1851   -0.0854   -0.0567 H   0  0  0  0  0  0  0  0  0  0  0  0
  1  2  2  0  0  0  0
  1  3  2  0  0  0  0
  1  4  1  0  0  0  0
  1  6  1  0  0  0  0
  4 19  1  0  0  0  0
  4 20  1  0  0  0  0
  5  9  1  0  0  0  0
  5 21  1  0  0  0  0
  5 22  1  0  0  0  0
  6  8  2  0  0  0  0
  6 10  1  0  0  0  0
  7  8  1  0  0  0  0
  7  9  2  0  0  0  0
  7 12  1  0  0  0  0
  8 13  1  0  0  0  0
  9 11  1  0  0  0  0
 10 11  2  0  0  0  0
 10 14  1  0  0  0  0
 11 15  1  0  0  0  0
 12 16  1  0  0  0  0
 12 17  1  0  0  0  0
 12 18  1  0  0  0  0
M  END
> <PUBCHEM_COMPOUND_CID>
143037

> <PUBCHEM_CONFORMER_RMSD>
0.4

> <PUBCHEM_CONFORMER_DIVERSEORDER>
1
2

> <PUBCHEM_MMFF94_PARTIAL_CHARGES>
19
1 1.45
10 -0.15
11 -0.15
12 0.14
13 0.15
14 0.15
15 0.15
19 0.42
2 -0.65
20 0.42
21 0.4
22 0.4
3 -0.65
4 -0.98
5 -0.9
6 -0.01
7 -0.14
8 -0.15
9 0.1

> <PUBCHEM_EFFECTIVE_ROTOR_COUNT>
1

> <PUBCHEM_PHARMACOPHORE_FEATURES>
6
1 2 acceptor
1 3 acceptor
1 4 donor
1 5 cation
1 5 donor
6 6 7 8 9 10 11 rings

> <PUBCHEM_HEAVY_ATOM_COUNT>
12

> <PUBCHEM_ATOM_DEF_STEREO_COUNT>
0

> <PUBCHEM_ATOM_UDEF_STEREO_COUNT>
0

> <PUBCHEM_BOND_DEF_STEREO_COUNT>
0

> <PUBCHEM_BOND_UDEF_STEREO_COUNT>
0

> <PUBCHEM_ISOTOPIC_ATOM_COUNT>
0

> <PUBCHEM_COMPONENT_COUNT>
1

> <PUBCHEM_CACTVS_TAUTO_COUNT>
1

> <PUBCHEM_CONFORMER_ID>
00022EBD00000001

> <PUBCHEM_MMFF94_ENERGY>
22.5261

> <PUBCHEM_FEATURE_SELFOVERLAP>
30.463

> <PUBCHEM_SHAPE_FINGERPRINT>
10857977 72 18268982245012518696
12524768 44 18272654536619032836
12716758 59 18339365171214450287
12932764 1 18408611352711673586
13296908 3 18272092737722231998
14325111 11 18411133623859342537
15219456 202 17917434258803808012
15775835 57 18335141968727400856
16945 1 18340772541956017105
20201158 50 18060421274782186462
20645464 45 18131063835899024544
20645476 183 17895492378652821303
20715346 28 17917153900112464374
20871998 184 18201720703884598999
20871998 22 18198071484758171455
22802520 49 18129959878964480974
23402539 116 18199732679550597181
23402655 69 18051109425815262533
23463225 33 18262515888291325858
23552423 10 18189339141750596909
23559900 14 18341894066024395214
2748010 2 18267861873082104605
3248919 1 17418094299706951378
369184 2 18410568470439888417
5084963 1 17750235794565002220
6333449 129 18342171198003121009
8030462 33 18259989279527491662

> <PUBCHEM_SHAPE_MULTIPOLES>
229.1
4.94
1.77
0.82
0.69
0.22
0.21
0.43
0.08
-0.8
-0.14
0.62
0.05
0.03

> <PUBCHEM_SHAPE_SELFOVERLAP>
462.934

> <PUBCHEM_SHAPE_VOLUME>
135.3

> <PUBCHEM_COORDINATE_TYPE>
2
5
10

$$$$
