136773
  -OEChem-11012400303D

 29 30  0     0  0  0  0  0  0999 V2000
    2.3101   -1.1075    0.1954 O   0  0  0  0  0  0  0  0  0  0  0  0
   -1.0749   -0.2279    0.0475 O   0  0  0  0  0  0  0  0  0  0  0  0
    0.0884   -1.0935    0.2038 O   0  0  0  0  0  0  0  0  0  0  0  0
   -2.1831   -2.2157    0.4207 O   0  0  0  0  0  0  0  0  0  0  0  0
    1.1844    0.9018   -0.1784 O   0  0  0  0  0  0  0  0  0  0  0  0
   -3.4074   -0.2033    0.0564 C   0  0  0  0  0  0  0  0  0  0  0  0
   -4.5693   -0.7863   -0.4495 C   0  0  0  0  0  0  0  0  0  0  0  0
   -3.4060    1.1418    0.4260 C   0  0  0  0  0  0  0  0  0  0  0  0
    3.5101   -0.4050    0.0582 C   0  0  0  0  0  0  0  0  0  0  0  0
   -5.7296   -0.0242   -0.5861 C   0  0  0  0  0  0  0  0  0  0  0  0
   -4.5664    1.9038    0.2895 C   0  0  0  0  0  0  0  0  0  0  0  0
   -5.7282    1.3207   -0.2166 C   0  0  0  0  0  0  0  0  0  0  0  0
    4.0829    0.1511    1.1803 C   0  0  0  0  0  0  0  0  0  0  0  0
    4.0725   -0.2958   -1.1940 C   0  0  0  0  0  0  0  0  0  0  0  0
    5.2804    0.8530    1.0431 C   0  0  0  0  0  0  0  0  0  0  0  0
    5.2702    0.4061   -1.3312 C   0  0  0  0  0  0  0  0  0  0  0  0
    5.8741    0.9804   -0.2126 C   0  0  0  0  0  0  0  0  0  0  0  0
   -2.1979   -0.9979    0.1991 C   0  0  0  0  0  0  0  0  0  0  0  0
    1.1897   -0.3016    0.0483 C   0  0  0  0  0  0  0  0  0  0  0  0
   -4.5870   -1.8322   -0.7447 H   0  0  0  0  0  0  0  0  0  0  0  0
   -2.5197    1.6201    0.8347 H   0  0  0  0  0  0  0  0  0  0  0  0
   -6.6341   -0.4779   -0.9806 H   0  0  0  0  0  0  0  0  0  0  0  0
   -4.5666    2.9504    0.5798 H   0  0  0  0  0  0  0  0  0  0  0  0
   -6.6318    1.9138   -0.3223 H   0  0  0  0  0  0  0  0  0  0  0  0
    3.6212    0.0513    2.1576 H   0  0  0  0  0  0  0  0  0  0  0  0
    3.6030   -0.7433   -2.0643 H   0  0  0  0  0  0  0  0  0  0  0  0
    5.7507    1.3001    1.9141 H   0  0  0  0  0  0  0  0  0  0  0  0
    5.7325    0.5053   -2.3089 H   0  0  0  0  0  0  0  0  0  0  0  0
    6.8066    1.5268   -0.3195 H   0  0  0  0  0  0  0  0  0  0  0  0
  1  9  1  0  0  0  0
  1 19  1  0  0  0  0
  2  3  1  0  0  0  0
  2 18  1  0  0  0  0
  3 19  1  0  0  0  0
  4 18  2  0  0  0  0
  5 19  2  0  0  0  0
  6  7  2  0  0  0  0
  6  8  1  0  0  0  0
  6 18  1  0  0  0  0
  7 10  1  0  0  0  0
  7 20  1  0  0  0  0
  8 11  2  0  0  0  0
  8 21  1  0  0  0  0
  9 13  2  0  0  0  0
  9 14  1  0  0  0  0
 10 12  2  0  0  0  0
 10 22  1  0  0  0  0
 11 12  1  0  0  0  0
 11 23  1  0  0  0  0
 12 24  1  0  0  0  0
 13 15  1  0  0  0  0
 13 25  1  0  0  0  0
 14 16  2  0  0  0  0
 14 26  1  0  0  0  0
 15 17  2  0  0  0  0
 15 27  1  0  0  0  0
 16 17  1  0  0  0  0
 16 28  1  0  0  0  0
 17 29  1  0  0  0  0
M  END
> <PUBCHEM_COMPOUND_CID>
136773

> <PUBCHEM_CONFORMER_RMSD>
0.8

> <PUBCHEM_CONFORMER_DIVERSEORDER>
1
96
89
104
64
106
120
17
31
15
25
56
109
57
12
99
13
122
52
87
98
55
4
100
34
10
108
133
6
44
2
77
94
80
95
63
30
51
88
28
70
42
111
54
101
72
107
83
117
74
37
14
60
27
86
16
49
102
45
50
130
82
73
11
62
65
91
128
115
129
23
3
35
114
126
41
103
48
118
7
32
97
58
69
90
38
33
18
24
84
85
22
124
59
125
61
5
127
78
112
20
123
9
43
68
47
39
40
67
53
21
93
79
29
119
81
75
8
121
92
36
110
132
66
26
131
19
105
71
113
46
116
76

> <PUBCHEM_MMFF94_PARTIAL_CHARGES>
29
1 -0.23
10 -0.15
11 -0.15
12 -0.15
13 -0.15
14 -0.15
15 -0.15
16 -0.15
17 -0.15
18 0.63
19 0.87
2 -0.15
20 0.15
21 0.15
22 0.15
23 0.15
24 0.15
25 0.15
26 0.15
27 0.15
28 0.15
29 0.15
3 -0.15
4 -0.57
5 -0.57
6 0.09
7 -0.15
8 -0.15
9 0.08

> <PUBCHEM_EFFECTIVE_ROTOR_COUNT>
6

> <PUBCHEM_PHARMACOPHORE_FEATURES>
3
1 4 acceptor
6 6 7 8 10 11 12 rings
6 9 13 14 15 16 17 rings

> <PUBCHEM_HEAVY_ATOM_COUNT>
19

> <PUBCHEM_ATOM_DEF_STEREO_COUNT>
0

> <PUBCHEM_ATOM_UDEF_STEREO_COUNT>
0

> <PUBCHEM_BOND_DEF_STEREO_COUNT>
0

> <PUBCHEM_BOND_UDEF_STEREO_COUNT>
0

> <PUBCHEM_ISOTOPIC_ATOM_COUNT>
0

> <PUBCHEM_COMPONENT_COUNT>
1

> <PUBCHEM_CACTVS_TAUTO_COUNT>
1

> <PUBCHEM_CONFORMER_ID>
0002164500000001

> <PUBCHEM_MMFF94_ENERGY>
55.5245

> <PUBCHEM_FEATURE_SELFOVERLAP>
15.223

> <PUBCHEM_SHAPE_FINGERPRINT>
10014705 185 18412544318921323291
10912923 1 17240764029519181042
11089746 13 18341323457616777504
11128504 68 13254790270017035842
117890 112 18335419067143018800
12166972 35 14261344782470984235
12236239 1 17821443569035671090
12596602 18 16805326595586846297
12616971 3 16443343208864022070
12916748 109 18411422804186632931
13073987 5 18335702715510610939
13167372 99 17458338603043345692
13288520 33 9871748001431629875
13533116 47 18341047402952637154
13631057 29 17604715616041054163
13668630 136 14692856899641830116
1420 363 8286200556483428749
14251718 22 17988924487350639591
14251764 18 17749110006886296621
14528608 73 18202843257826983174
14573314 32 17917716785905152876
15048467 5 18114183046968546348
15183329 4 17417818300834752506
15348495 7 13262691356079047173
15788980 27 12751241393478583507
1601671 61 18334859416019990564
16079462 125 17989196071381866112
17834072 33 17632856429914097390
17844677 252 16774085063415230896
18222031 100 12679459777112720978
18785283 64 12253056046805074078
19489759 90 18343864420335277633
200 152 13973967593009269299
20281389 69 18114177519018776965
20645477 56 18410575089443466435
20645477 70 16702312217720350102
21033648 29 17703498973951371586
21150785 3 16415474982577196172
21623969 137 14201114596406043568
22061861 79 16487260949940323340
221357 26 16917066646365468544
22289505 5 17775567538079870464
23035841 295 10303814293763508317
23402539 116 18342449349149879039
23559900 14 18130780205139226289
26918003 58 13045941304606441335
2767999 5 18186516601007845469
2916195 48 18342731935932535545
29717793 49 14261360145843405416
300161 21 18260826003470446586
3004659 81 18337674105879497098
312425 54 13045944577730788605
34797466 226 17561085847081776068
3545911 37 18342740719478161763
441001 317 18342175561985364545
465052 167 11312056569503878220
5104073 3 18334860459539016011
5283173 99 17988646242216320321
542803 24 17749108893883183444
59682541 35 18334870420485754873
59682541 52 17417530185722467374
7062679 6 18334297552250365317
7495541 125 11386374750731985302

> <PUBCHEM_SHAPE_MULTIPOLES>
361.66
16.62
1.52
0.98
1.44
0.01
0.09
-5.91
2.14
-1.62
-0.19
1.27
-0.06
0.12

> <PUBCHEM_SHAPE_SELFOVERLAP>
774.376

> <PUBCHEM_SHAPE_VOLUME>
197.3

> <PUBCHEM_COORDINATE_TYPE>
2
5
10

$$$$
