137153
  -OEChem-11012400423D

 18 19  0     0  0  0  0  0  0999 V2000
    1.7270   -1.0811    0.3794 N   0  0  0  0  0  0  0  0  0  0  0  0
    2.9840   -0.6359    0.2218 N   0  0  0  0  0  0  0  0  0  0  0  0
    3.1689    0.6190   -0.2189 N   0  0  0  0  0  0  0  0  0  0  0  0
   -0.4073    0.0038   -0.0008 C   0  0  0  0  0  0  0  0  0  0  0  0
    1.0287   -0.0064    0.0022 C   0  0  0  0  0  0  0  0  0  0  0  0
   -1.0973    1.1956    0.2205 C   0  0  0  0  0  0  0  0  0  0  0  0
   -1.1121   -1.1788   -0.2250 C   0  0  0  0  0  0  0  0  0  0  0  0
   -2.4922    1.2049    0.2173 C   0  0  0  0  0  0  0  0  0  0  0  0
   -2.5070   -1.1695   -0.2282 C   0  0  0  0  0  0  0  0  0  0  0  0
    1.9045    1.0262   -0.3612 C   0  0  0  0  0  0  0  0  0  0  0  0
   -3.1971    0.0223   -0.0071 C   0  0  0  0  0  0  0  0  0  0  0  0
   -0.5751    2.1309    0.4062 H   0  0  0  0  0  0  0  0  0  0  0  0
   -0.6018   -2.1215   -0.4077 H   0  0  0  0  0  0  0  0  0  0  0  0
   -3.0299    2.1324    0.3913 H   0  0  0  0  0  0  0  0  0  0  0  0
   -3.0561   -2.0899   -0.4045 H   0  0  0  0  0  0  0  0  0  0  0  0
    1.7056    2.0267   -0.7167 H   0  0  0  0  0  0  0  0  0  0  0  0
   -4.2832    0.0296   -0.0096 H   0  0  0  0  0  0  0  0  0  0  0  0
    3.7756   -1.2337    0.4314 H   0  0  0  0  0  0  0  0  0  0  0  0
  1  2  1  0  0  0  0
  1  5  2  0  0  0  0
  2  3  1  0  0  0  0
  2 18  1  0  0  0  0
  3 10  2  0  0  0  0
  4  5  1  0  0  0  0
  4  6  2  0  0  0  0
  4  7  1  0  0  0  0
  5 10  1  0  0  0  0
  6  8  1  0  0  0  0
  6 12  1  0  0  0  0
  7  9  2  0  0  0  0
  7 13  1  0  0  0  0
  8 11  2  0  0  0  0
  8 14  1  0  0  0  0
  9 11  1  0  0  0  0
  9 15  1  0  0  0  0
 10 16  1  0  0  0  0
 11 17  1  0  0  0  0
M  END
> <PUBCHEM_COMPOUND_CID>
137153

> <PUBCHEM_CONFORMER_RMSD>
0.4

> <PUBCHEM_CONFORMER_DIVERSEORDER>
2
1
3

> <PUBCHEM_MMFF94_PARTIAL_CHARGES>
18
1 -0.71
10 0.14
11 -0.15
12 0.15
13 0.15
14 0.15
15 0.15
16 0.15
17 0.15
18 0.27
2 0.57
3 -0.71
4 0.05
5 0.23
6 -0.15
7 -0.15
8 -0.15
9 -0.15

> <PUBCHEM_EFFECTIVE_ROTOR_COUNT>
1

> <PUBCHEM_PHARMACOPHORE_FEATURES>
4
1 1 acceptor
1 3 acceptor
5 1 2 3 5 10 rings
6 4 6 7 8 9 11 rings

> <PUBCHEM_HEAVY_ATOM_COUNT>
11

> <PUBCHEM_ATOM_DEF_STEREO_COUNT>
0

> <PUBCHEM_ATOM_UDEF_STEREO_COUNT>
0

> <PUBCHEM_BOND_DEF_STEREO_COUNT>
0

> <PUBCHEM_BOND_UDEF_STEREO_COUNT>
0

> <PUBCHEM_ISOTOPIC_ATOM_COUNT>
0

> <PUBCHEM_COMPONENT_COUNT>
1

> <PUBCHEM_CACTVS_TAUTO_COUNT>
3

> <PUBCHEM_CONFORMER_ID>
000217C100000002

> <PUBCHEM_MMFF94_ENERGY>
21.5142

> <PUBCHEM_FEATURE_SELFOVERLAP>
20.346

> <PUBCHEM_SHAPE_FINGERPRINT>
12897270 3 18411136978054558428
12932764 1 17489300914599837887
13024252 1 15719392832949714345
14144814 61 18409729547362810648
14325111 11 18410856542523360321
15669948 3 18272365420827132351
15775835 57 18409174289738280737
16945 1 18413387648545045897
20871998 184 18059297681457762135
23402539 116 18131059421231937125
23463225 33 18337389331708240778
23552423 10 18334012830241182639
3248919 1 17775569706230992741
369184 2 18333449841870341529
5084963 1 18408038489952796481
57096353 35 18265334086943298534
8030462 33 18408044039008228054

> <PUBCHEM_SHAPE_MULTIPOLES>
211.43
5.1
1.39
0.64
1.3
0.01
-0.01
0.08
-0.05
-0.4
0.01
-0.01
0.01
-0.36

> <PUBCHEM_SHAPE_SELFOVERLAP>
460.752

> <PUBCHEM_SHAPE_VOLUME>
114.7

> <PUBCHEM_COORDINATE_TYPE>
2
5
10

$$$$
