141840
  -OEChem-11012400303D

 44 49  0     0  0  0  0  0  0999 V2000
    0.2930   -0.7224   -0.9777 C   0  0  0  0  0  0  0  0  0  0  0  0
   -0.2928    0.7223   -0.9778 C   0  0  0  0  0  0  0  0  0  0  0  0
   -0.2985   -1.5416    0.1756 C   0  0  0  0  0  0  0  0  0  0  0  0
    1.8110   -0.6311   -1.0155 C   0  0  0  0  0  0  0  0  0  0  0  0
   -1.8108    0.6311   -1.0158 C   0  0  0  0  0  0  0  0  0  0  0  0
    0.2985    1.5415    0.1758 C   0  0  0  0  0  0  0  0  0  0  0  0
   -1.6677   -1.3501    0.5007 C   0  0  0  0  0  0  0  0  0  0  0  0
    2.4713    0.3758   -0.2750 C   0  0  0  0  0  0  0  0  0  0  0  0
   -2.4712   -0.3756   -0.2752 C   0  0  0  0  0  0  0  0  0  0  0  0
    1.6677    1.3500    0.5011 C   0  0  0  0  0  0  0  0  0  0  0  0
    0.4547   -2.4978    0.8798 C   0  0  0  0  0  0  0  0  0  0  0  0
    2.5452   -1.5540   -1.7804 C   0  0  0  0  0  0  0  0  0  0  0  0
   -2.5448    1.5543   -1.7806 C   0  0  0  0  0  0  0  0  0  0  0  0
   -0.4548    2.4976    0.8799 C   0  0  0  0  0  0  0  0  0  0  0  0
   -2.2106   -2.0957    1.5642 C   0  0  0  0  0  0  0  0  0  0  0  0
    3.8757    0.4206   -0.3402 C   0  0  0  0  0  0  0  0  0  0  0  0
   -3.8757   -0.4201   -0.3402 C   0  0  0  0  0  0  0  0  0  0  0  0
    2.2103    2.0952    1.5649 C   0  0  0  0  0  0  0  0  0  0  0  0
   -0.1134   -3.2299    1.9202 C   0  0  0  0  0  0  0  0  0  0  0  0
    3.9341   -1.4902   -1.8192 C   0  0  0  0  0  0  0  0  0  0  0  0
   -3.9338    1.4908   -1.8192 C   0  0  0  0  0  0  0  0  0  0  0  0
    0.1130    3.2293    1.9207 C   0  0  0  0  0  0  0  0  0  0  0  0
   -1.4416   -3.0242    2.2668 C   0  0  0  0  0  0  0  0  0  0  0  0
    4.5983   -0.5034   -1.1005 C   0  0  0  0  0  0  0  0  0  0  0  0
   -4.5982    0.5042   -1.1003 C   0  0  0  0  0  0  0  0  0  0  0  0
    1.4412    3.0236    2.2676 C   0  0  0  0  0  0  0  0  0  0  0  0
   -0.0371   -1.2180   -1.9039 H   0  0  0  0  0  0  0  0  0  0  0  0
    0.0375    1.2180   -1.9039 H   0  0  0  0  0  0  0  0  0  0  0  0
    1.4956   -2.6893    0.6380 H   0  0  0  0  0  0  0  0  0  0  0  0
    2.0340   -2.3294   -2.3454 H   0  0  0  0  0  0  0  0  0  0  0  0
   -2.0334    2.3296   -2.3456 H   0  0  0  0  0  0  0  0  0  0  0  0
   -1.4956    2.6892    0.6380 H   0  0  0  0  0  0  0  0  0  0  0  0
   -3.2438   -1.9632    1.8753 H   0  0  0  0  0  0  0  0  0  0  0  0
    4.4402    1.1864    0.1858 H   0  0  0  0  0  0  0  0  0  0  0  0
   -4.4403   -1.1858    0.1859 H   0  0  0  0  0  0  0  0  0  0  0  0
    3.2435    1.9626    1.8762 H   0  0  0  0  0  0  0  0  0  0  0  0
    0.4836   -3.9586    2.4607 H   0  0  0  0  0  0  0  0  0  0  0  0
    4.4965   -2.2064   -2.4105 H   0  0  0  0  0  0  0  0  0  0  0  0
   -4.4961    2.2072   -2.4104 H   0  0  0  0  0  0  0  0  0  0  0  0
   -0.4841    3.9578    2.4612 H   0  0  0  0  0  0  0  0  0  0  0  0
   -1.8845   -3.5881    3.0826 H   0  0  0  0  0  0  0  0  0  0  0  0
    5.6825   -0.4452   -1.1339 H   0  0  0  0  0  0  0  0  0  0  0  0
   -5.6825    0.4463   -1.1334 H   0  0  0  0  0  0  0  0  0  0  0  0
    1.8839    3.5873    3.0836 H   0  0  0  0  0  0  0  0  0  0  0  0
  1  2  1  0  0  0  0
  1  3  1  0  0  0  0
  1  4  1  0  0  0  0
  1 27  1  0  0  0  0
  2  5  1  0  0  0  0
  2  6  1  0  0  0  0
  2 28  1  0  0  0  0
  3  7  1  0  0  0  0
  3 11  2  0  0  0  0
  4  8  1  0  0  0  0
  4 12  2  0  0  0  0
  5  9  1  0  0  0  0
  5 13  2  0  0  0  0
  6 10  1  0  0  0  0
  6 14  2  0  0  0  0
  7  9  1  0  0  0  0
  7 15  2  0  0  0  0
  8 10  1  0  0  0  0
  8 16  2  0  0  0  0
  9 17  2  0  0  0  0
 10 18  2  0  0  0  0
 11 19  1  0  0  0  0
 11 29  1  0  0  0  0
 12 20  1  0  0  0  0
 12 30  1  0  0  0  0
 13 21  1  0  0  0  0
 13 31  1  0  0  0  0
 14 22  1  0  0  0  0
 14 32  1  0  0  0  0
 15 23  1  0  0  0  0
 15 33  1  0  0  0  0
 16 24  1  0  0  0  0
 16 34  1  0  0  0  0
 17 25  1  0  0  0  0
 17 35  1  0  0  0  0
 18 26  1  0  0  0  0
 18 36  1  0  0  0  0
 19 23  2  0  0  0  0
 19 37  1  0  0  0  0
 20 24  2  0  0  0  0
 20 38  1  0  0  0  0
 21 25  2  0  0  0  0
 21 39  1  0  0  0  0
 22 26  2  0  0  0  0
 22 40  1  0  0  0  0
 23 41  1  0  0  0  0
 24 42  1  0  0  0  0
 25 43  1  0  0  0  0
 26 44  1  0  0  0  0
M  END
> <PUBCHEM_COMPOUND_CID>
141840

> <PUBCHEM_CONFORMER_RMSD>
0.6

> <PUBCHEM_CONFORMER_DIVERSEORDER>
1
2

> <PUBCHEM_MMFF94_PARTIAL_CHARGES>
38
1 0.29
11 -0.15
12 -0.15
13 -0.15
14 -0.15
15 -0.15
16 -0.15
17 -0.15
18 -0.15
19 -0.15
2 0.29
20 -0.15
21 -0.15
22 -0.15
23 -0.15
24 -0.15
25 -0.15
26 -0.15
29 0.15
3 -0.14
30 0.15
31 0.15
32 0.15
33 0.15
34 0.15
35 0.15
36 0.15
37 0.15
38 0.15
39 0.15
4 -0.14
40 0.15
41 0.15
42 0.15
43 0.15
44 0.15
5 -0.14
6 -0.14

> <PUBCHEM_EFFECTIVE_ROTOR_COUNT>
0

> <PUBCHEM_PHARMACOPHORE_FEATURES>
6
6 1 2 3 5 7 9 rings
6 1 2 4 6 8 10 rings
6 3 7 11 15 19 23 rings
6 4 8 12 16 20 24 rings
6 5 9 13 17 21 25 rings
6 6 10 14 18 22 26 rings

> <PUBCHEM_HEAVY_ATOM_COUNT>
26

> <PUBCHEM_ATOM_DEF_STEREO_COUNT>
0

> <PUBCHEM_ATOM_UDEF_STEREO_COUNT>
0

> <PUBCHEM_BOND_DEF_STEREO_COUNT>
0

> <PUBCHEM_BOND_UDEF_STEREO_COUNT>
0

> <PUBCHEM_ISOTOPIC_ATOM_COUNT>
0

> <PUBCHEM_COMPONENT_COUNT>
1

> <PUBCHEM_CACTVS_TAUTO_COUNT>
1

> <PUBCHEM_CONFORMER_ID>
00022A1000000001

> <PUBCHEM_MMFF94_ENERGY>
94.1578

> <PUBCHEM_FEATURE_SELFOVERLAP>
30.6

> <PUBCHEM_SHAPE_FINGERPRINT>
10165383 225 18041567932069170965
10906281 52 18201155542287186800
1100329 8 17329710916396122266
11370993 70 17821729390461516662
11578080 2 18047775958897136241
11582403 64 17044789310230587709
12156800 1 12840973331874288218
12293681 160 18267583498702646561
12403259 226 18120668086497705731
12714826 92 17971499478735040034
12716301 132 17968651752045173451
12788726 201 18270967821916710392
131258 38 17328358908121541162
131258 43 17620175547495260807
13134695 92 17917996083317899692
13294875 104 18119780604651481539
133893 2 17201654473865203640
13911987 19 18058467524777740044
14028597 1 18122343471560793257
14787075 74 18411418431561772885
14817 1 10969244653204863466
14856354 85 16238971759972043568
16945 1 17917421042968106684
17357779 13 18131361773743967140
1813 80 16773810159954891204
20600515 1 17968924426887582956
20642791 239 16526656185275772735
20832881 197 18271242712291908969
22393880 68 18266998653886678791
22956985 138 16736886283773592211
23175994 123 18202013130764040340
23352939 185 16630520705227181580
23419403 2 18198073662242825961
23526113 38 18413388760704198762
23558518 356 17982192036458040020
23559900 14 18261684701347355430
2748010 2 18194683893490122887
3380486 145 18128831909142189310
3380486 77 15956657189873401429
376196 1 17480250925035138441
394222 165 16879071836793851530
469060 322 17099226053743709211
513532 50 17556539293908569045
5265222 85 17967824881485468526
57527295 17 18270392781213743223
57527585 103 17759848824859133950
5845 1 12115170828918943068
6438718 38 16984939400469113768
70251023 43 17487629528514794518
7226269 152 18410286978916291896
81228 2 18126590941378182784
84936 182 18045486535554384231
9981440 41 16908590734787146281

> <PUBCHEM_SHAPE_MULTIPOLES>
535.07
6.59
3.73
2.32
0
0
-0.64
0
4.55
0
-3.45
0
0
2.99

> <PUBCHEM_SHAPE_SELFOVERLAP>
1232.885

> <PUBCHEM_SHAPE_VOLUME>
253.8

> <PUBCHEM_COORDINATE_TYPE>
2
5
10

$$$$
