140165
  -OEChem-11012401243D

 19 19  0     0  0  0  0  0  0999 V2000
    1.2559   -0.3290    1.6556 F   0  0  0  0  0  0  0  0  0  0  0  0
    1.9021   -0.8580   -1.5790 O   0  5  0  0  0  0  0  0  0  0  0  0
    0.7538    2.2113   -0.2614 O   0  5  0  0  0  0  0  0  0  0  0  0
    1.6403   -2.2663    0.0838 O   0  0  0  0  0  0  0  0  0  0  0  0
    2.7004    1.3473    0.2735 O   0  0  0  0  0  0  0  0  0  0  0  0
    1.5136   -1.1505   -0.4391 N   0  3  0  0  0  0  0  0  0  0  0  0
    1.4759    1.2720    0.0999 N   0  3  0  0  0  0  0  0  0  0  0  0
    0.8420   -0.0695    0.3805 C   0  0  0  0  0  0  0  0  0  0  0  0
   -0.6339   -0.0472    0.1655 C   0  0  0  0  0  0  0  0  0  0  0  0
   -1.1493    0.1780   -1.1109 C   0  0  0  0  0  0  0  0  0  0  0  0
   -1.4986   -0.2512    1.2408 C   0  0  0  0  0  0  0  0  0  0  0  0
   -2.5294    0.1989   -1.3120 C   0  0  0  0  0  0  0  0  0  0  0  0
   -2.8787   -0.2304    1.0396 C   0  0  0  0  0  0  0  0  0  0  0  0
   -3.3942   -0.0053   -0.2368 C   0  0  0  0  0  0  0  0  0  0  0  0
   -0.4990    0.3414   -1.9658 H   0  0  0  0  0  0  0  0  0  0  0  0
   -1.1135   -0.4275    2.2414 H   0  0  0  0  0  0  0  0  0  0  0  0
   -2.9309    0.3746   -2.3058 H   0  0  0  0  0  0  0  0  0  0  0  0
   -3.5522   -0.3892    1.8767 H   0  0  0  0  0  0  0  0  0  0  0  0
   -4.4687    0.0110   -0.3935 H   0  0  0  0  0  0  0  0  0  0  0  0
  1  8  1  0  0  0  0
  2  6  1  0  0  0  0
  3  7  1  0  0  0  0
  4  6  2  0  0  0  0
  5  7  2  0  0  0  0
  6  8  1  0  0  0  0
  7  8  1  0  0  0  0
  8  9  1  0  0  0  0
  9 10  2  0  0  0  0
  9 11  1  0  0  0  0
 10 12  1  0  0  0  0
 10 15  1  0  0  0  0
 11 13  2  0  0  0  0
 11 16  1  0  0  0  0
 12 14  2  0  0  0  0
 12 17  1  0  0  0  0
 13 14  1  0  0  0  0
 13 18  1  0  0  0  0
 14 19  1  0  0  0  0
M  CHG  4   2  -1   3  -1   6   1   7   1
M  END
> <PUBCHEM_COMPOUND_CID>
140165

> <PUBCHEM_CONFORMER_RMSD>
0.6

> <PUBCHEM_CONFORMER_DIVERSEORDER>
1
6
4
7
5
3
2
8

> <PUBCHEM_MMFF94_PARTIAL_CHARGES>
19
1 -0.34
10 -0.15
11 -0.15
12 -0.15
13 -0.15
14 -0.15
15 0.15
16 0.15
17 0.15
18 0.15
19 0.15
2 -0.52
3 -0.52
4 -0.52
5 -0.52
6 0.8
7 0.8
8 0.96
9 -0.14

> <PUBCHEM_EFFECTIVE_ROTOR_COUNT>
3

> <PUBCHEM_PHARMACOPHORE_FEATURES>
7
1 2 acceptor
1 2 anion
1 3 acceptor
1 3 anion
1 4 acceptor
1 5 acceptor
6 9 10 11 12 13 14 rings

> <PUBCHEM_HEAVY_ATOM_COUNT>
14

> <PUBCHEM_ATOM_DEF_STEREO_COUNT>
0

> <PUBCHEM_ATOM_UDEF_STEREO_COUNT>
0

> <PUBCHEM_BOND_DEF_STEREO_COUNT>
0

> <PUBCHEM_BOND_UDEF_STEREO_COUNT>
0

> <PUBCHEM_ISOTOPIC_ATOM_COUNT>
0

> <PUBCHEM_COMPONENT_COUNT>
1

> <PUBCHEM_CACTVS_TAUTO_COUNT>
1

> <PUBCHEM_CONFORMER_ID>
0002238500000001

> <PUBCHEM_MMFF94_ENERGY>
37.3343

> <PUBCHEM_FEATURE_SELFOVERLAP>
35.687

> <PUBCHEM_SHAPE_FINGERPRINT>
12326174 3 18408877430288773906
12423570 1 13913426210492775221
12524768 44 18186235152111927981
12932764 1 17894351073209711411
13538477 17 16845288367452353783
15219456 202 18113896069774622017
16945 1 18336837475676320673
20361792 2 18056763126318693094
20559304 39 16487255452471867815
20645464 45 17822004337530730353
20645476 183 17418092174273276557
21524375 3 17684932796677903048
22802520 49 18116148857747478597
23419403 2 15295850065830198980
23552423 10 17417815006869240815
2748010 2 16950556658720493035
3248919 1 18272359889441842451
5084963 1 17703793574675159691
528862 383 18202005434166821591
528886 8 18272370935728553592
77492 1 17489871539870664303
81228 2 17474384678186099280

> <PUBCHEM_SHAPE_MULTIPOLES>
247.4
4.27
1.52
1.36
1.9
0.11
0.1
0.05
0.16
-1.39
0.04
0.21
-0.19
0.57

> <PUBCHEM_SHAPE_SELFOVERLAP>
520.939

> <PUBCHEM_SHAPE_VOLUME>
138.5

> <PUBCHEM_COORDINATE_TYPE>
2
5
10

$$$$
