77552
  -OEChem-11012401193D

 18 19  0     0  0  0  0  0  0999 V2000
    1.8696   -1.8812   -0.0001 O   0  0  0  0  0  0  0  0  0  0  0  0
    3.9532    0.3525   -0.0009 O   0  0  0  0  0  0  0  0  0  0  0  0
    0.7287    0.3573    0.0003 C   0  0  0  0  0  0  0  0  0  0  0  0
   -0.7298    0.1837    0.0004 C   0  0  0  0  0  0  0  0  0  0  0  0
    1.7427   -0.6847    0.0006 C   0  0  0  0  0  0  0  0  0  0  0  0
    1.6441    1.3476    0.0002 C   0  0  0  0  0  0  0  0  0  0  0  0
    2.7512    0.3938   -0.0001 C   0  0  0  0  0  0  0  0  0  0  0  0
   -1.5649    1.3009    0.0001 C   0  0  0  0  0  0  0  0  0  0  0  0
   -1.2798   -1.0981    0.0002 C   0  0  0  0  0  0  0  0  0  0  0  0
   -2.9500    1.1364   -0.0002 C   0  0  0  0  0  0  0  0  0  0  0  0
   -2.6650   -1.2627   -0.0002 C   0  0  0  0  0  0  0  0  0  0  0  0
   -3.5000   -0.1454   -0.0005 C   0  0  0  0  0  0  0  0  0  0  0  0
    1.5521    2.4309    0.0000 H   0  0  0  0  0  0  0  0  0  0  0  0
   -1.1580    2.3090    0.0002 H   0  0  0  0  0  0  0  0  0  0  0  0
   -0.6627   -1.9912    0.0004 H   0  0  0  0  0  0  0  0  0  0  0  0
   -3.6005    2.0062   -0.0004 H   0  0  0  0  0  0  0  0  0  0  0  0
   -3.0938   -2.2607   -0.0004 H   0  0  0  0  0  0  0  0  0  0  0  0
   -4.5785   -0.2735   -0.0008 H   0  0  0  0  0  0  0  0  0  0  0  0
  1  5  2  0  0  0  0
  2  7  2  0  0  0  0
  3  4  1  0  0  0  0
  3  5  1  0  0  0  0
  3  6  2  0  0  0  0
  4  8  2  0  0  0  0
  4  9  1  0  0  0  0
  5  7  1  0  0  0  0
  6  7  1  0  0  0  0
  6 13  1  0  0  0  0
  8 10  1  0  0  0  0
  8 14  1  0  0  0  0
  9 11  2  0  0  0  0
  9 15  1  0  0  0  0
 10 12  2  0  0  0  0
 10 16  1  0  0  0  0
 11 12  1  0  0  0  0
 11 17  1  0  0  0  0
 12 18  1  0  0  0  0
M  END
> <PUBCHEM_COMPOUND_CID>
77552

> <PUBCHEM_CONFORMER_RMSD>
0.4

> <PUBCHEM_CONFORMER_DIVERSEORDER>
1
2

> <PUBCHEM_MMFF94_PARTIAL_CHARGES>
18
1 -0.57
10 -0.15
11 -0.15
12 -0.15
13 0.15
14 0.15
15 0.15
16 0.15
17 0.15
18 0.15
2 -0.57
3 -0.11
4 0.04
5 0.64
6 -0.22
7 0.64
8 -0.15
9 -0.15

> <PUBCHEM_EFFECTIVE_ROTOR_COUNT>
1

> <PUBCHEM_PHARMACOPHORE_FEATURES>
4
1 1 acceptor
1 2 acceptor
4 3 5 6 7 rings
6 4 8 9 10 11 12 rings

> <PUBCHEM_HEAVY_ATOM_COUNT>
12

> <PUBCHEM_ATOM_DEF_STEREO_COUNT>
0

> <PUBCHEM_ATOM_UDEF_STEREO_COUNT>
0

> <PUBCHEM_BOND_DEF_STEREO_COUNT>
0

> <PUBCHEM_BOND_UDEF_STEREO_COUNT>
0

> <PUBCHEM_ISOTOPIC_ATOM_COUNT>
0

> <PUBCHEM_COMPONENT_COUNT>
1

> <PUBCHEM_CACTVS_TAUTO_COUNT>
1

> <PUBCHEM_CONFORMER_ID>
00012EF000000001

> <PUBCHEM_MMFF94_ENERGY>
32.4908

> <PUBCHEM_FEATURE_SELFOVERLAP>
20.298

> <PUBCHEM_SHAPE_FINGERPRINT>
10608611 8 18411414016378038273
12897270 3 18410574032406653901
12932764 1 17561072622908834315
13380535 21 18338528455676800590
13380535 76 18409165519457403282
14144814 61 18410573959503038281
14325111 11 18410856521285926657
15442244 35 18123470479732734386
15775835 57 18410016507255494305
16945 1 18410856594200059461
200 152 18131059468286478381
20201158 50 18410573998152547043
20645477 70 18340200770356418263
20871998 184 18201443644276842903
21501502 16 18339078194442714187
23402539 116 18335409201339305039
23402655 69 18269825455189878445
23463225 33 18335417937577188914
23552423 10 18333733528692010063
23559900 14 18271522010289769968
2748010 2 18266459815035644151
3248919 1 17458072572573475403
3312278 4 18412266150932189601
369184 2 18342175562016954353
528886 8 18410288125097553458
53812653 166 18343578560191806704
6333449 129 18412260653590386877
69090 78 18341888589592991703
7364860 26 18270963427907041238
8809292 202 18188494699630280363

> <PUBCHEM_SHAPE_MULTIPOLES>
235.22
5.85
1.56
0.6
0.93
0.25
0
-0.21
0
-0.18
0
-0.05
-0.01
0

> <PUBCHEM_SHAPE_SELFOVERLAP>
515.495

> <PUBCHEM_SHAPE_VOLUME>
125.3

> <PUBCHEM_COORDINATE_TYPE>
2
5
10

$$$$
