519490
  -OEChem-11012400413D

 28 28  0     0  0  0  0  0  0999 V2000
   -2.4312    0.0951   -0.0001 Si  0  0  0  0  0  0  0  0  0  0  0  0
   -1.0898   -0.8975   -0.0002 O   0  0  0  0  0  0  0  0  0  0  0  0
   -3.9968   -0.9592   -0.0012 C   0  0  0  0  0  0  0  0  0  0  0  0
   -2.4808    1.1851    1.5310 C   0  0  0  0  0  0  0  0  0  0  0  0
   -2.4807    1.1871   -1.5294 C   0  0  0  0  0  0  0  0  0  0  0  0
    0.2628   -0.6859    0.0003 C   0  0  0  0  0  0  0  0  0  0  0  0
    0.7575    0.6140    0.0003 C   0  0  0  0  0  0  0  0  0  0  0  0
    2.1357    0.8291    0.0002 C   0  0  0  0  0  0  0  0  0  0  0  0
    1.1304   -1.7731   -0.0002 C   0  0  0  0  0  0  0  0  0  0  0  0
    3.0112   -0.2569   -0.0001 C   0  0  0  0  0  0  0  0  0  0  0  0
    2.5085   -1.5579   -0.0002 C   0  0  0  0  0  0  0  0  0  0  0  0
    2.6732    2.2201   -0.0003 C   0  0  0  0  0  0  0  0  0  0  0  0
   -4.0266   -1.5985    0.8859 H   0  0  0  0  0  0  0  0  0  0  0  0
   -4.8872   -0.3239   -0.0009 H   0  0  0  0  0  0  0  0  0  0  0  0
   -4.0262   -1.5973   -0.8891 H   0  0  0  0  0  0  0  0  0  0  0  0
   -2.4332    0.5733    2.4367 H   0  0  0  0  0  0  0  0  0  0  0  0
   -1.6445    1.8888    1.5487 H   0  0  0  0  0  0  0  0  0  0  0  0
   -3.4096    1.7630    1.5574 H   0  0  0  0  0  0  0  0  0  0  0  0
   -3.4099    1.7644   -1.5556 H   0  0  0  0  0  0  0  0  0  0  0  0
   -1.6451    1.8916   -1.5458 H   0  0  0  0  0  0  0  0  0  0  0  0
   -2.4322    0.5767   -2.4361 H   0  0  0  0  0  0  0  0  0  0  0  0
    0.1096    1.4831   -0.0015 H   0  0  0  0  0  0  0  0  0  0  0  0
    0.7433   -2.7882   -0.0006 H   0  0  0  0  0  0  0  0  0  0  0  0
    4.0871   -0.1035   -0.0022 H   0  0  0  0  0  0  0  0  0  0  0  0
    3.1901   -2.4036   -0.0010 H   0  0  0  0  0  0  0  0  0  0  0  0
    2.6580    2.6284   -1.0158 H   0  0  0  0  0  0  0  0  0  0  0  0
    2.0773    2.8683    0.6512 H   0  0  0  0  0  0  0  0  0  0  0  0
    3.7033    2.2523    0.3704 H   0  0  0  0  0  0  0  0  0  0  0  0
  1  2  1  0  0  0  0
  1  3  1  0  0  0  0
  1  4  1  0  0  0  0
  1  5  1  0  0  0  0
  2  6  1  0  0  0  0
  3 13  1  0  0  0  0
  3 14  1  0  0  0  0
  3 15  1  0  0  0  0
  4 16  1  0  0  0  0
  4 17  1  0  0  0  0
  4 18  1  0  0  0  0
  5 19  1  0  0  0  0
  5 20  1  0  0  0  0
  5 21  1  0  0  0  0
  6  7  1  0  0  0  0
  6  9  2  0  0  0  0
  7  8  2  0  0  0  0
  7 22  1  0  0  0  0
  8 10  1  0  0  0  0
  8 12  1  0  0  0  0
  9 11  1  0  0  0  0
  9 23  1  0  0  0  0
 10 11  2  0  0  0  0
 10 24  1  0  0  0  0
 11 25  1  0  0  0  0
 12 26  1  0  0  0  0
 12 27  1  0  0  0  0
 12 28  1  0  0  0  0
M  END
> <PUBCHEM_COMPOUND_CID>
519490

> <PUBCHEM_CONFORMER_RMSD>
0.6

> <PUBCHEM_CONFORMER_DIVERSEORDER>
1
2
4
3
6
5

> <PUBCHEM_MMFF94_PARTIAL_CHARGES>
16
1 0.54
10 -0.15
11 -0.15
12 0.14
2 -0.38
22 0.15
23 0.15
24 0.15
25 0.15
3 -0.08
4 -0.08
5 -0.08
6 0.08
7 -0.15
8 -0.14
9 -0.15

> <PUBCHEM_EFFECTIVE_ROTOR_COUNT>
2

> <PUBCHEM_PHARMACOPHORE_FEATURES>
1
6 6 7 8 9 10 11 rings

> <PUBCHEM_HEAVY_ATOM_COUNT>
12

> <PUBCHEM_ATOM_DEF_STEREO_COUNT>
0

> <PUBCHEM_ATOM_UDEF_STEREO_COUNT>
0

> <PUBCHEM_BOND_DEF_STEREO_COUNT>
0

> <PUBCHEM_BOND_UDEF_STEREO_COUNT>
0

> <PUBCHEM_ISOTOPIC_ATOM_COUNT>
0

> <PUBCHEM_COMPONENT_COUNT>
1

> <PUBCHEM_CACTVS_TAUTO_COUNT>
1

> <PUBCHEM_CONFORMER_ID>
0007ED4200000001

> <PUBCHEM_MMFF94_ENERGY>
24.0084

> <PUBCHEM_FEATURE_SELFOVERLAP>
5.074

> <PUBCHEM_SHAPE_FINGERPRINT>
10608611 8 18261103063321075485
12162725 195 18272092681945556091
124424 183 17604700046061282186
12916754 54 18409730655865520399
12932764 1 17968382234426317131
13294875 104 16304538446896147429
14144814 61 18341895147417260979
14325111 11 18410575097774801633
15219456 202 18261385637740699181
15442244 35 18198348346823708474
15775835 57 18341334512509241005
16945 1 18338516314078561382
17802600 8 18334569148706998757
17844478 74 17895486847014271725
18186145 218 18341335513225947934
19973954 147 18336543820214621653
200 152 18201708553706812279
20449540 30 18341611538506630669
20559304 39 18202284705856769632
20645477 70 18412257320807035543
20715346 28 17894914018425053677
21028194 46 18333730251368134693
21501502 16 18413113840111313067
21524375 3 18193556890314846232
21639500 275 18341320175919125284
21730867 7 18335139799515689230
22854114 111 18411419544016311328
230 275 18272642463676953960
23402655 69 18413101745636466461
25610 137 18270966859807034723
2748010 2 18337960120277469342
3248919 1 17988355962640671647
5084963 1 18334576845541633187
57812782 119 18186515510260101995
63268167 104 18410572847043231064
7364860 26 18343866628127848294
74978 22 18339642218253913103
7832392 63 17984712112202200649
8030462 33 17774995765667192585

> <PUBCHEM_SHAPE_MULTIPOLES>
259.3
6.13
1.96
1.03
1.77
0.27
0
0.22
0
-1.17
0
0.98
0.43
0

> <PUBCHEM_SHAPE_SELFOVERLAP>
501.8

> <PUBCHEM_SHAPE_VOLUME>
159.4

> <PUBCHEM_COORDINATE_TYPE>
2
5
10

$$$$
