80053
  -OEChem-11012401283D

 13 13  0     1  0  0  0  0  0999 V2000
    0.0014    1.4090   -0.4508 S   0  0  0  0  0  0  0  0  0  0  0  0
   -0.7433    0.1744    0.4918 C   0  0  2  0  0  0  0  0  0  0  0  0
    0.7486    0.1708    0.4898 C   0  0  1  0  0  0  0  0  0  0  0  0
   -1.4782   -0.8751   -0.2647 C   0  0  0  0  0  0  0  0  0  0  0  0
    1.4714   -0.8793   -0.2662 C   0  0  0  0  0  0  0  0  0  0  0  0
   -1.2539    0.4871    1.3928 H   0  0  0  0  0  0  0  0  0  0  0  0
    1.2637    0.4832    1.3882 H   0  0  0  0  0  0  0  0  0  0  0  0
   -2.5379   -0.6042   -0.3342 H   0  0  0  0  0  0  0  0  0  0  0  0
   -1.1223   -1.0392   -1.2873 H   0  0  0  0  0  0  0  0  0  0  0  0
   -1.4220   -1.8292    0.2702 H   0  0  0  0  0  0  0  0  0  0  0  0
    1.4118   -1.8338    0.2678 H   0  0  0  0  0  0  0  0  0  0  0  0
    1.1128   -1.0422   -1.2881 H   0  0  0  0  0  0  0  0  0  0  0  0
    2.5329   -0.6163   -0.3397 H   0  0  0  0  0  0  0  0  0  0  0  0
  1  2  1  0  0  0  0
  1  3  1  0  0  0  0
  2  3  1  0  0  0  0
  2  4  1  0  0  0  0
  2  6  1  0  0  0  0
  3  5  1  0  0  0  0
  3  7  1  0  0  0  0
  4  8  1  0  0  0  0
  4  9  1  0  0  0  0
  4 10  1  0  0  0  0
  5 11  1  0  0  0  0
  5 12  1  0  0  0  0
  5 13  1  0  0  0  0
M  END
> <PUBCHEM_COMPOUND_CID>
80053

> <PUBCHEM_CONFORMER_RMSD>
0.4

> <PUBCHEM_CONFORMER_DIVERSEORDER>
1

> <PUBCHEM_MMFF94_PARTIAL_CHARGES>
7
1 -0.28
2 -0.05
3 -0.05
4 0.09
5 0.09
6 0.1
7 0.1

> <PUBCHEM_EFFECTIVE_ROTOR_COUNT>
0.6

> <PUBCHEM_PHARMACOPHORE_FEATURES>
0

> <PUBCHEM_HEAVY_ATOM_COUNT>
5

> <PUBCHEM_ATOM_DEF_STEREO_COUNT>
2

> <PUBCHEM_ATOM_UDEF_STEREO_COUNT>
0

> <PUBCHEM_BOND_DEF_STEREO_COUNT>
0

> <PUBCHEM_BOND_UDEF_STEREO_COUNT>
0

> <PUBCHEM_ISOTOPIC_ATOM_COUNT>
0

> <PUBCHEM_COMPONENT_COUNT>
1

> <PUBCHEM_CACTVS_TAUTO_COUNT>
1

> <PUBCHEM_CONFORMER_ID>
000138B500000001

> <PUBCHEM_MMFF94_ENERGY>
10.6699

> <PUBCHEM_FEATURE_SELFOVERLAP>
0

> <PUBCHEM_SHAPE_FINGERPRINT>
139733 1 8862942779421103379
16714656 1 18048610217554717388
20096714 4 17179115718088028189
21015797 1 9222137800735232425
21040471 1 17471564434945019200
29004967 10 18262241130674945907
5943 1 11929766440577727032

> <PUBCHEM_SHAPE_MULTIPOLES>
106.75
1.69
1.39
0.8
0.01
0.37
-0.01
-0.72
0.13
0
0.26
0
0.05
0

> <PUBCHEM_SHAPE_SELFOVERLAP>
188.924

> <PUBCHEM_SHAPE_VOLUME>
71.9

> <PUBCHEM_COORDINATE_TYPE>
2
5
10

$$$$
