138670
  -OEChem-11012401133D

 15 14  0     0  0  0  0  0  0999 V2000
   -2.8586    1.1230    0.3865 O   0  5  0  0  0  0  0  0  0  0  0  0
    2.8662    1.1197    0.3768 O   0  5  0  0  0  0  0  0  0  0  0  0
   -2.8993   -1.0798    0.4025 O   0  0  0  0  0  0  0  0  0  0  0  0
    2.8820   -1.0830    0.4223 O   0  0  0  0  0  0  0  0  0  0  0  0
   -2.4159    0.0105    0.0504 N   0  3  0  0  0  0  0  0  0  0  0  0
    2.4210    0.0077    0.0427 N   0  3  0  0  0  0  0  0  0  0  0  0
    0.0025   -0.0556    0.0148 C   0  0  0  0  0  0  0  0  0  0  0  0
   -1.2482   -0.0206   -0.8460 C   0  0  0  0  0  0  0  0  0  0  0  0
    1.2502   -0.0220   -0.8501 C   0  0  0  0  0  0  0  0  0  0  0  0
    0.0025   -0.9563    0.6438 H   0  0  0  0  0  0  0  0  0  0  0  0
    0.0041    0.7974    0.7075 H   0  0  0  0  0  0  0  0  0  0  0  0
   -1.2905    0.8735   -1.4767 H   0  0  0  0  0  0  0  0  0  0  0  0
   -1.3363   -0.9074   -1.4819 H   0  0  0  0  0  0  0  0  0  0  0  0
    1.2917    0.8718   -1.4811 H   0  0  0  0  0  0  0  0  0  0  0  0
    1.3362   -0.9093   -1.4856 H   0  0  0  0  0  0  0  0  0  0  0  0
  1  5  1  0  0  0  0
  2  6  1  0  0  0  0
  3  5  2  0  0  0  0
  4  6  2  0  0  0  0
  5  8  1  0  0  0  0
  6  9  1  0  0  0  0
  7  8  1  0  0  0  0
  7  9  1  0  0  0  0
  7 10  1  0  0  0  0
  7 11  1  0  0  0  0
  8 12  1  0  0  0  0
  8 13  1  0  0  0  0
  9 14  1  0  0  0  0
  9 15  1  0  0  0  0
M  CHG  4   1  -1   2  -1   5   1   6   1
M  END
> <PUBCHEM_COMPOUND_CID>
138670

> <PUBCHEM_CONFORMER_RMSD>
0.6

> <PUBCHEM_CONFORMER_DIVERSEORDER>
1
12
7
6
5
8
13
4
10
14
2
9
11
3

> <PUBCHEM_MMFF94_PARTIAL_CHARGES>
8
1 -0.52
2 -0.52
3 -0.52
4 -0.52
5 0.8
6 0.8
8 0.24
9 0.24

> <PUBCHEM_EFFECTIVE_ROTOR_COUNT>
4

> <PUBCHEM_PHARMACOPHORE_FEATURES>
6
1 1 acceptor
1 1 anion
1 2 acceptor
1 2 anion
1 3 acceptor
1 4 acceptor

> <PUBCHEM_HEAVY_ATOM_COUNT>
9

> <PUBCHEM_ATOM_DEF_STEREO_COUNT>
0

> <PUBCHEM_ATOM_UDEF_STEREO_COUNT>
0

> <PUBCHEM_BOND_DEF_STEREO_COUNT>
0

> <PUBCHEM_BOND_UDEF_STEREO_COUNT>
0

> <PUBCHEM_ISOTOPIC_ATOM_COUNT>
0

> <PUBCHEM_COMPONENT_COUNT>
1

> <PUBCHEM_CACTVS_TAUTO_COUNT>
3

> <PUBCHEM_CONFORMER_ID>
00021DAE00000001

> <PUBCHEM_MMFF94_ENERGY>
6.9896

> <PUBCHEM_FEATURE_SELFOVERLAP>
30.606

> <PUBCHEM_SHAPE_FINGERPRINT>
10857977 72 18337388339686651553
12897270 3 8214145157147356942
12932764 1 17676202442440360854
14325111 11 18410573993746738470
14390081 3 13254795732999281567
3248919 1 17632859702679144383
5460574 1 9223235143367438311

> <PUBCHEM_SHAPE_MULTIPOLES>
151.78
5.38
1.02
0.8
0.02
0.03
0.17
0.05
-1.26
0
-0.19
0
-0.01
-0.01

> <PUBCHEM_SHAPE_SELFOVERLAP>
281.586

> <PUBCHEM_SHAPE_VOLUME>
96.1

> <PUBCHEM_COORDINATE_TYPE>
2
5
10

$$$$
