141207
  -OEChem-11012401113D

 22 21  0     1  0  0  0  0  0999 V2000
    0.4829   -0.5559   -0.6218 S   0  0  1  0  0  0  0  0  0  0  0  0
    0.6426   -1.8466    0.1024 O   0  0  0  0  0  0  0  0  0  0  0  0
   -1.0989    0.1806   -0.0106 C   0  0  0  0  0  0  0  0  0  0  0  0
   -1.1970    1.6155   -0.5373 C   0  0  0  0  0  0  0  0  0  0  0  0
   -2.2609   -0.6606   -0.5477 C   0  0  0  0  0  0  0  0  0  0  0  0
   -1.1011    0.1746    1.5210 C   0  0  0  0  0  0  0  0  0  0  0  0
    1.5319    0.6751    0.1811 C   0  0  0  0  0  0  0  0  0  0  0  0
    3.0005    0.4172   -0.0871 C   0  0  0  0  0  0  0  0  0  0  0  0
   -0.9303    1.6862   -1.5981 H   0  0  0  0  0  0  0  0  0  0  0  0
   -2.2274    1.9809   -0.4417 H   0  0  0  0  0  0  0  0  0  0  0  0
   -0.5874    2.3306    0.0225 H   0  0  0  0  0  0  0  0  0  0  0  0
   -2.2027   -1.6968   -0.1950 H   0  0  0  0  0  0  0  0  0  0  0  0
   -2.2622   -0.6863   -1.6437 H   0  0  0  0  0  0  0  0  0  0  0  0
   -3.2266   -0.2557   -0.2244 H   0  0  0  0  0  0  0  0  0  0  0  0
   -0.4689    0.9482    1.9653 H   0  0  0  0  0  0  0  0  0  0  0  0
   -2.1126    0.3848    1.8916 H   0  0  0  0  0  0  0  0  0  0  0  0
   -0.8081   -0.7940    1.9399 H   0  0  0  0  0  0  0  0  0  0  0  0
    1.3169    1.6715   -0.2046 H   0  0  0  0  0  0  0  0  0  0  0  0
    1.3990    0.6564    1.2627 H   0  0  0  0  0  0  0  0  0  0  0  0
    3.3088   -0.5616    0.2957 H   0  0  0  0  0  0  0  0  0  0  0  0
    3.2178    0.4399   -1.1604 H   0  0  0  0  0  0  0  0  0  0  0  0
    3.6173    1.1796    0.3994 H   0  0  0  0  0  0  0  0  0  0  0  0
  1  2  2  0  0  0  0
  1  3  1  0  0  0  0
  1  7  1  0  0  0  0
  3  4  1  0  0  0  0
  3  5  1  0  0  0  0
  3  6  1  0  0  0  0
  4  9  1  0  0  0  0
  4 10  1  0  0  0  0
  4 11  1  0  0  0  0
  5 12  1  0  0  0  0
  5 13  1  0  0  0  0
  5 14  1  0  0  0  0
  6 15  1  0  0  0  0
  6 16  1  0  0  0  0
  6 17  1  0  0  0  0
  7  8  1  0  0  0  0
  7 18  1  0  0  0  0
  7 19  1  0  0  0  0
  8 20  1  0  0  0  0
  8 21  1  0  0  0  0
  8 22  1  0  0  0  0
M  END
> <PUBCHEM_COMPOUND_CID>
141207

> <PUBCHEM_CONFORMER_RMSD>
0.4

> <PUBCHEM_CONFORMER_DIVERSEORDER>
1
2
3
4

> <PUBCHEM_MMFF94_PARTIAL_CHARGES>
4
1 0.11
2 -0.5
3 0.19
7 0.19

> <PUBCHEM_EFFECTIVE_ROTOR_COUNT>
2

> <PUBCHEM_PHARMACOPHORE_FEATURES>
2
1 2 acceptor
4 3 4 5 6 hydrophobe

> <PUBCHEM_HEAVY_ATOM_COUNT>
8

> <PUBCHEM_ATOM_DEF_STEREO_COUNT>
0

> <PUBCHEM_ATOM_UDEF_STEREO_COUNT>
1

> <PUBCHEM_BOND_DEF_STEREO_COUNT>
0

> <PUBCHEM_BOND_UDEF_STEREO_COUNT>
0

> <PUBCHEM_ISOTOPIC_ATOM_COUNT>
0

> <PUBCHEM_COMPONENT_COUNT>
1

> <PUBCHEM_CACTVS_TAUTO_COUNT>
1

> <PUBCHEM_CONFORMER_ID>
0002279700000001

> <PUBCHEM_MMFF94_ENERGY>
15.4181

> <PUBCHEM_FEATURE_SELFOVERLAP>
10.148

> <PUBCHEM_SHAPE_FINGERPRINT>
12897270 3 18411125953015986653
137420 1 16236710025639564681
16714656 1 18338795735955331692
21040471 1 18410853274401251910
24536 1 17096954406669871055
29004967 10 18261962933138031611
369184 2 18408882953611454600
5084963 1 18273214231198298700

> <PUBCHEM_SHAPE_MULTIPOLES>
162.62
3.26
1.44
1.05
2.01
0.15
-0.36
-0.32
0.24
-0.17
0.18
-0.41
-0.08
0.01

> <PUBCHEM_SHAPE_SELFOVERLAP>
280.577

> <PUBCHEM_SHAPE_VOLUME>
110

> <PUBCHEM_COORDINATE_TYPE>
2
5
10

$$$$
