3546441
  -OEChem-11012400583D

 22 23  0     0  0  0  0  0  0999 V2000
    1.5672   -0.0295    0.4733 N   0  0  0  0  0  0  0  0  0  0  0  0
    2.0836    1.1291    0.0656 N   0  0  0  0  0  0  0  0  0  0  0  0
    0.4134   -0.0124    1.3784 C   0  0  0  0  0  0  0  0  0  0  0  0
   -0.8784   -0.0069    0.6326 C   0  0  0  0  0  0  0  0  0  0  0  0
   -1.4930   -1.2122    0.2934 C   0  0  0  0  0  0  0  0  0  0  0  0
   -1.4716    1.2035    0.2741 C   0  0  0  0  0  0  0  0  0  0  0  0
    2.1755   -1.1369   -0.0029 C   0  0  0  0  0  0  0  0  0  0  0  0
   -2.7008   -1.2071   -0.4045 C   0  0  0  0  0  0  0  0  0  0  0  0
   -2.6794    1.2087   -0.4236 C   0  0  0  0  0  0  0  0  0  0  0  0
    3.1911   -0.6705   -0.8016 C   0  0  0  0  0  0  0  0  0  0  0  0
   -3.2940    0.0033   -0.7629 C   0  0  0  0  0  0  0  0  0  0  0  0
    3.0864    0.7310   -0.7217 C   0  0  0  0  0  0  0  0  0  0  0  0
    0.4964   -0.8908    2.0301 H   0  0  0  0  0  0  0  0  0  0  0  0
    0.5125    0.8687    2.0243 H   0  0  0  0  0  0  0  0  0  0  0  0
   -1.0415   -2.1624    0.5663 H   0  0  0  0  0  0  0  0  0  0  0  0
   -1.0028    2.1496    0.5318 H   0  0  0  0  0  0  0  0  0  0  0  0
    1.8578   -2.1395    0.2483 H   0  0  0  0  0  0  0  0  0  0  0  0
   -3.1792   -2.1456   -0.6689 H   0  0  0  0  0  0  0  0  0  0  0  0
   -3.1413    2.1511   -0.7030 H   0  0  0  0  0  0  0  0  0  0  0  0
    3.9028   -1.2604   -1.3600 H   0  0  0  0  0  0  0  0  0  0  0  0
   -4.2343    0.0073   -1.3063 H   0  0  0  0  0  0  0  0  0  0  0  0
    3.6990    1.4787   -1.2045 H   0  0  0  0  0  0  0  0  0  0  0  0
  1  2  1  0  0  0  0
  1  3  1  0  0  0  0
  1  7  1  0  0  0  0
  2 12  2  0  0  0  0
  3  4  1  0  0  0  0
  3 13  1  0  0  0  0
  3 14  1  0  0  0  0
  4  5  2  0  0  0  0
  4  6  1  0  0  0  0
  5  8  1  0  0  0  0
  5 15  1  0  0  0  0
  6  9  2  0  0  0  0
  6 16  1  0  0  0  0
  7 10  2  0  0  0  0
  7 17  1  0  0  0  0
  8 11  2  0  0  0  0
  8 18  1  0  0  0  0
  9 11  1  0  0  0  0
  9 19  1  0  0  0  0
 10 12  1  0  0  0  0
 10 20  1  0  0  0  0
 11 21  1  0  0  0  0
 12 22  1  0  0  0  0
M  END
> <PUBCHEM_COMPOUND_CID>
3546441

> <PUBCHEM_CONFORMER_RMSD>
0.6

> <PUBCHEM_CONFORMER_DIVERSEORDER>
1
6
3
2
4
5

> <PUBCHEM_MMFF94_PARTIAL_CHARGES>
20
1 0.31
10 -0.15
11 -0.15
12 0.14
15 0.15
16 0.15
17 0.15
18 0.15
19 0.15
2 -0.71
20 0.15
21 0.15
22 0.15
3 0.4
4 -0.14
5 -0.15
6 -0.15
7 -0.3
8 -0.15
9 -0.15

> <PUBCHEM_EFFECTIVE_ROTOR_COUNT>
2

> <PUBCHEM_PHARMACOPHORE_FEATURES>
3
1 2 acceptor
5 1 2 7 10 12 rings
6 4 5 6 8 9 11 rings

> <PUBCHEM_HEAVY_ATOM_COUNT>
12

> <PUBCHEM_ATOM_DEF_STEREO_COUNT>
0

> <PUBCHEM_ATOM_UDEF_STEREO_COUNT>
0

> <PUBCHEM_BOND_DEF_STEREO_COUNT>
0

> <PUBCHEM_BOND_UDEF_STEREO_COUNT>
0

> <PUBCHEM_ISOTOPIC_ATOM_COUNT>
0

> <PUBCHEM_COMPONENT_COUNT>
1

> <PUBCHEM_CACTVS_TAUTO_COUNT>
1

> <PUBCHEM_CONFORMER_ID>
00361D4900000001

> <PUBCHEM_MMFF94_ENERGY>
20.579

> <PUBCHEM_FEATURE_SELFOVERLAP>
15.223

> <PUBCHEM_SHAPE_FINGERPRINT>
11031198 65 16298386820808566611
11127187 94 18131914858125783223
12382932 28 8862939485265486063
12696612 119 8934990482381710658
12897270 3 18410856598394767546
12932764 1 18409733958288949074
13296908 3 15913324671891392080
13764800 53 15792027661628075201
14250199 8 18187936121995855396
15775835 57 17458341909946292509
16945 1 18410572872823513043
18186145 218 17821726117759350391
20201158 50 17917713474211256142
20279233 1 17489294296097465322
20281407 28 14333134052642952840
20361792 2 15626222420318438464
20645464 45 11746929867723678401
20645476 183 18113609071876657339
20653085 51 18113905918398518801
20711985 344 16486142669078500344
20871999 31 18337382864036230047
22169311 14 9079127647688772926
22802520 49 18412547612960766315
230 275 15068616076539328786
23402539 116 18187072980025138308
23402655 69 18335703793262565628
23552423 10 18262790757882810955
23559900 14 18059568028601307746
2748010 2 17257652751138113139
528716 315 18335144223595780791
549884 4 18113616768204603764
8030462 33 18040433282754588642
81228 2 15840443466377138386
93112 12 18410013221447192526

> <PUBCHEM_SHAPE_MULTIPOLES>
236.99
5.83
1.39
1.01
1.17
0.01
-0.14
0.02
2.22
-0.34
0.09
0.1
0
0

> <PUBCHEM_SHAPE_SELFOVERLAP>
506.776

> <PUBCHEM_SHAPE_VOLUME>
133.4

> <PUBCHEM_COORDINATE_TYPE>
2
5
10

$$$$
