136453
  -OEChem-11012400513D

 26 25  0     0  0  0  0  0  0999 V2000
    2.7233   -0.1642    1.0760 O   0  0  0  0  0  0  0  0  0  0  0  0
   -2.7233    0.1645    1.0759 O   0  0  0  0  0  0  0  0  0  0  0  0
    2.3773    0.8467   -0.9060 O   0  0  0  0  0  0  0  0  0  0  0  0
   -2.3775   -0.8465   -0.9061 O   0  0  0  0  0  0  0  0  0  0  0  0
    0.5705   -0.5517   -0.0163 C   0  0  0  0  0  0  0  0  0  0  0  0
   -0.5705    0.5515   -0.0163 C   0  0  0  0  0  0  0  0  0  0  0  0
    0.5109   -1.4316   -1.2974 C   0  0  0  0  0  0  0  0  0  0  0  0
    0.4714   -1.5525    1.1598 C   0  0  0  0  0  0  0  0  0  0  0  0
   -0.5107    1.4317   -1.2972 C   0  0  0  0  0  0  0  0  0  0  0  0
   -0.4714    1.5519    1.1601 C   0  0  0  0  0  0  0  0  0  0  0  0
    1.9675    0.1081   -0.0163 C   0  0  0  0  0  0  0  0  0  0  0  0
   -1.9675   -0.1080   -0.0162 C   0  0  0  0  0  0  0  0  0  0  0  0
    1.3567   -2.1324   -1.3087 H   0  0  0  0  0  0  0  0  0  0  0  0
   -0.3928   -2.0425   -1.3565 H   0  0  0  0  0  0  0  0  0  0  0  0
    0.6070   -0.8504   -2.2182 H   0  0  0  0  0  0  0  0  0  0  0  0
    1.2787   -2.2943    1.1315 H   0  0  0  0  0  0  0  0  0  0  0  0
    0.5324   -1.0420    2.1268 H   0  0  0  0  0  0  0  0  0  0  0  0
   -0.4756   -2.1028    1.1387 H   0  0  0  0  0  0  0  0  0  0  0  0
    0.3928    2.0429   -1.3561 H   0  0  0  0  0  0  0  0  0  0  0  0
   -0.6067    0.8506   -2.2182 H   0  0  0  0  0  0  0  0  0  0  0  0
   -1.3567    2.1323   -1.3086 H   0  0  0  0  0  0  0  0  0  0  0  0
    0.4757    2.1021    1.1393 H   0  0  0  0  0  0  0  0  0  0  0  0
   -1.2786    2.2938    1.1319 H   0  0  0  0  0  0  0  0  0  0  0  0
   -0.5325    1.0411    2.1269 H   0  0  0  0  0  0  0  0  0  0  0  0
    3.5940    0.2861    1.0403 H   0  0  0  0  0  0  0  0  0  0  0  0
   -3.5941   -0.2855    1.0402 H   0  0  0  0  0  0  0  0  0  0  0  0
  1 11  1  0  0  0  0
  1 25  1  0  0  0  0
  2 12  1  0  0  0  0
  2 26  1  0  0  0  0
  3 11  2  0  0  0  0
  4 12  2  0  0  0  0
  5  6  1  0  0  0  0
  5  7  1  0  0  0  0
  5  8  1  0  0  0  0
  5 11  1  0  0  0  0
  6  9  1  0  0  0  0
  6 10  1  0  0  0  0
  6 12  1  0  0  0  0
  7 13  1  0  0  0  0
  7 14  1  0  0  0  0
  7 15  1  0  0  0  0
  8 16  1  0  0  0  0
  8 17  1  0  0  0  0
  8 18  1  0  0  0  0
  9 19  1  0  0  0  0
  9 20  1  0  0  0  0
  9 21  1  0  0  0  0
 10 22  1  0  0  0  0
 10 23  1  0  0  0  0
 10 24  1  0  0  0  0
M  END
> <PUBCHEM_COMPOUND_CID>
136453

> <PUBCHEM_CONFORMER_RMSD>
0.6

> <PUBCHEM_CONFORMER_DIVERSEORDER>
1
7
3
5
2
6
4
8

> <PUBCHEM_MMFF94_PARTIAL_CHARGES>
10
1 -0.65
11 0.66
12 0.66
2 -0.65
25 0.5
26 0.5
3 -0.57
4 -0.57
5 0.06
6 0.06

> <PUBCHEM_EFFECTIVE_ROTOR_COUNT>
3

> <PUBCHEM_PHARMACOPHORE_FEATURES>
8
1 1 acceptor
1 2 acceptor
1 3 acceptor
1 4 acceptor
3 1 3 11 anion
3 2 4 12 anion
3 5 7 8 hydrophobe
3 6 9 10 hydrophobe

> <PUBCHEM_HEAVY_ATOM_COUNT>
12

> <PUBCHEM_ATOM_DEF_STEREO_COUNT>
0

> <PUBCHEM_ATOM_UDEF_STEREO_COUNT>
0

> <PUBCHEM_BOND_DEF_STEREO_COUNT>
0

> <PUBCHEM_BOND_UDEF_STEREO_COUNT>
0

> <PUBCHEM_ISOTOPIC_ATOM_COUNT>
0

> <PUBCHEM_COMPONENT_COUNT>
1

> <PUBCHEM_CACTVS_TAUTO_COUNT>
1

> <PUBCHEM_CONFORMER_ID>
0002150500000001

> <PUBCHEM_MMFF94_ENERGY>
39.4188

> <PUBCHEM_FEATURE_SELFOVERLAP>
40.737

> <PUBCHEM_SHAPE_FINGERPRINT>
10857977 72 17632002139444053947
12423570 1 14856389222461541198
12897270 3 17775290438825209332
13024252 1 17313649504241353650
16945 1 18410575114727850047
21922407 69 18191310381415534312
241688 4 17975998465519639572
24536 1 17626652813374297612
29004967 10 17676496037978337097
369184 2 17022904544770207785
5084963 1 18335980870493055434
528886 8 17632579344256838939
68250623 7 17341286699472907500

> <PUBCHEM_SHAPE_MULTIPOLES>
223.48
3.17
1.56
1.4
0
0
-0.04
0
0.4
0
-0.08
0
0
-0.26

> <PUBCHEM_SHAPE_SELFOVERLAP>
438.377

> <PUBCHEM_SHAPE_VOLUME>
135

> <PUBCHEM_COORDINATE_TYPE>
2
5
10

$$$$
