89394
  -OEChem-11012401103D

 24 24  0     1  0  0  0  0  0999 V2000
    2.2735    0.7795   -0.9037 O   0  0  0  0  0  0  0  0  0  0  0  0
    0.0612   -0.9557   -0.1864 N   0  0  2  0  0  0  0  0  0  0  0  0
    0.5042    0.2186    0.6002 C   0  0  2  0  0  0  0  0  0  0  0  0
   -0.2622    1.4807    0.1554 C   0  0  0  0  0  0  0  0  0  0  0  0
   -1.7708    1.2927    0.2483 C   0  0  0  0  0  0  0  0  0  0  0  0
   -2.1910    0.0434   -0.5101 C   0  0  0  0  0  0  0  0  0  0  0  0
   -1.3900   -1.1719   -0.0487 C   0  0  0  0  0  0  0  0  0  0  0  0
    2.0072    0.4960    0.4544 C   0  0  0  0  0  0  0  0  0  0  0  0
    0.7678   -2.1834    0.1906 C   0  0  0  0  0  0  0  0  0  0  0  0
    0.2965    0.0414    1.6647 H   0  0  0  0  0  0  0  0  0  0  0  0
   -0.0118    1.7454   -0.8801 H   0  0  0  0  0  0  0  0  0  0  0  0
    0.0297    2.3345    0.7790 H   0  0  0  0  0  0  0  0  0  0  0  0
   -2.2857    2.1706   -0.1570 H   0  0  0  0  0  0  0  0  0  0  0  0
   -2.0659    1.2027    1.3008 H   0  0  0  0  0  0  0  0  0  0  0  0
   -3.2610   -0.1388   -0.3594 H   0  0  0  0  0  0  0  0  0  0  0  0
   -2.0409    0.1975   -1.5862 H   0  0  0  0  0  0  0  0  0  0  0  0
   -1.6489   -1.4105    0.9915 H   0  0  0  0  0  0  0  0  0  0  0  0
   -1.6975   -2.0269   -0.6634 H   0  0  0  0  0  0  0  0  0  0  0  0
    2.6387   -0.3310    0.7903 H   0  0  0  0  0  0  0  0  0  0  0  0
    2.2916    1.3743    1.0441 H   0  0  0  0  0  0  0  0  0  0  0  0
    1.8265   -2.1374   -0.0810 H   0  0  0  0  0  0  0  0  0  0  0  0
    0.3653   -3.0444   -0.3561 H   0  0  0  0  0  0  0  0  0  0  0  0
    0.6856   -2.3933    1.2630 H   0  0  0  0  0  0  0  0  0  0  0  0
    2.0232   -0.0030   -1.4236 H   0  0  0  0  0  0  0  0  0  0  0  0
  1  8  1  0  0  0  0
  1 24  1  0  0  0  0
  2  3  1  0  0  0  0
  2  7  1  0  0  0  0
  2  9  1  0  0  0  0
  3  4  1  0  0  0  0
  3  8  1  0  0  0  0
  3 10  1  0  0  0  0
  4  5  1  0  0  0  0
  4 11  1  0  0  0  0
  4 12  1  0  0  0  0
  5  6  1  0  0  0  0
  5 13  1  0  0  0  0
  5 14  1  0  0  0  0
  6  7  1  0  0  0  0
  6 15  1  0  0  0  0
  6 16  1  0  0  0  0
  7 17  1  0  0  0  0
  7 18  1  0  0  0  0
  8 19  1  0  0  0  0
  8 20  1  0  0  0  0
  9 21  1  0  0  0  0
  9 22  1  0  0  0  0
  9 23  1  0  0  0  0
M  END
> <PUBCHEM_COMPOUND_CID>
89394

> <PUBCHEM_CONFORMER_RMSD>
0.4

> <PUBCHEM_CONFORMER_DIVERSEORDER>
2
3
4
9
14
6
16
5
8
10
13
15
17
12
11
1
7

> <PUBCHEM_MMFF94_PARTIAL_CHARGES>
7
1 -0.68
2 -0.81
24 0.4
3 0.27
7 0.27
8 0.28
9 0.27

> <PUBCHEM_EFFECTIVE_ROTOR_COUNT>
2.2

> <PUBCHEM_PHARMACOPHORE_FEATURES>
4
1 1 acceptor
1 1 donor
1 2 cation
6 2 3 4 5 6 7 rings

> <PUBCHEM_HEAVY_ATOM_COUNT>
9

> <PUBCHEM_ATOM_DEF_STEREO_COUNT>
0

> <PUBCHEM_ATOM_UDEF_STEREO_COUNT>
1

> <PUBCHEM_BOND_DEF_STEREO_COUNT>
0

> <PUBCHEM_BOND_UDEF_STEREO_COUNT>
0

> <PUBCHEM_ISOTOPIC_ATOM_COUNT>
0

> <PUBCHEM_COMPONENT_COUNT>
1

> <PUBCHEM_CACTVS_TAUTO_COUNT>
1

> <PUBCHEM_CONFORMER_ID>
00015D3200000002

> <PUBCHEM_MMFF94_ENERGY>
7.9596

> <PUBCHEM_FEATURE_SELFOVERLAP>
20.297

> <PUBCHEM_SHAPE_FINGERPRINT>
12423570 1 12933892767822740203
12716758 59 18267871755949545728
12897270 3 18411415124547860741
14128692 85 17912077257453660862
16714656 1 18339364196198825833
16945 1 18412538834184808713
18185500 45 18340757157372515873
21040471 1 18412257311741937729
23235685 24 18409443700389181769
23552423 10 18264205807682848899
241688 4 17185588018922678523
2748010 2 17834664273284405093
5084963 1 17677316312101583328

> <PUBCHEM_SHAPE_MULTIPOLES>
174.37
2.78
1.94
0.78
0.06
0.77
0.04
-0.64
0.39
0.19
-0.09
0.16
-0.1
-0.24

> <PUBCHEM_SHAPE_SELFOVERLAP>
333.284

> <PUBCHEM_SHAPE_VOLUME>
107.4

> <PUBCHEM_COORDINATE_TYPE>
2
5
10

$$$$
