138648
  -OEChem-11012401053D

 20 22  0     0  0  0  0  0  0999 V2000
    0.0001   -0.0001   -1.0002 C   0  0  0  0  0  0  0  0  0  0  0  0
    1.3970   -0.3239   -0.4311 C   0  0  0  0  0  0  0  0  0  0  0  0
   -0.9789   -1.0479   -0.4311 C   0  0  0  0  0  0  0  0  0  0  0  0
   -0.4180    1.3717   -0.4312 C   0  0  0  0  0  0  0  0  0  0  0  0
    1.7390    0.8818    0.3822 C   0  0  0  0  0  0  0  0  0  0  0  0
   -1.9352   -0.2379    0.3823 C   0  0  0  0  0  0  0  0  0  0  0  0
    1.1736   -1.5569    0.3823 C   0  0  0  0  0  0  0  0  0  0  0  0
   -0.1058   -1.9468    0.3822 C   0  0  0  0  0  0  0  0  0  0  0  0
    0.7616    1.7948    0.3823 C   0  0  0  0  0  0  0  0  0  0  0  0
   -1.6332    1.0651    0.3822 C   0  0  0  0  0  0  0  0  0  0  0  0
    0.0000    0.0000   -2.0975 H   0  0  0  0  0  0  0  0  0  0  0  0
    2.1275   -0.4932   -1.2282 H   0  0  0  0  0  0  0  0  0  0  0  0
   -1.4908   -1.5959   -1.2281 H   0  0  0  0  0  0  0  0  0  0  0  0
   -0.6366    2.0889   -1.2283 H   0  0  0  0  0  0  0  0  0  0  0  0
    2.6731    1.0008    0.9135 H   0  0  0  0  0  0  0  0  0  0  0  0
   -2.7770   -0.6601    0.9135 H   0  0  0  0  0  0  0  0  0  0  0  0
    1.9600   -2.0748    0.9136 H   0  0  0  0  0  0  0  0  0  0  0  0
   -0.4698   -2.8153    0.9135 H   0  0  0  0  0  0  0  0  0  0  0  0
    0.8167    2.7349    0.9135 H   0  0  0  0  0  0  0  0  0  0  0  0
   -2.2034    1.8146    0.9134 H   0  0  0  0  0  0  0  0  0  0  0  0
  1  2  1  0  0  0  0
  1  3  1  0  0  0  0
  1  4  1  0  0  0  0
  1 11  1  0  0  0  0
  2  5  1  0  0  0  0
  2  7  1  0  0  0  0
  2 12  1  0  0  0  0
  3  6  1  0  0  0  0
  3  8  1  0  0  0  0
  3 13  1  0  0  0  0
  4  9  1  0  0  0  0
  4 10  1  0  0  0  0
  4 14  1  0  0  0  0
  5  9  2  0  0  0  0
  5 15  1  0  0  0  0
  6 10  2  0  0  0  0
  6 16  1  0  0  0  0
  7  8  2  0  0  0  0
  7 17  1  0  0  0  0
  8 18  1  0  0  0  0
  9 19  1  0  0  0  0
 10 20  1  0  0  0  0
M  END
> <PUBCHEM_COMPOUND_CID>
138648

> <PUBCHEM_CONFORMER_RMSD>
0.4

> <PUBCHEM_CONFORMER_DIVERSEORDER>
1

> <PUBCHEM_MMFF94_PARTIAL_CHARGES>
15
10 -0.29
15 0.15
16 0.15
17 0.15
18 0.15
19 0.15
2 0.28
20 0.15
3 0.28
4 0.28
5 -0.29
6 -0.29
7 -0.29
8 -0.29
9 -0.29

> <PUBCHEM_EFFECTIVE_ROTOR_COUNT>
0

> <PUBCHEM_PHARMACOPHORE_FEATURES>
3
5 1 2 3 7 8 rings
5 1 2 4 5 9 rings
5 1 3 4 6 10 rings

> <PUBCHEM_HEAVY_ATOM_COUNT>
10

> <PUBCHEM_ATOM_DEF_STEREO_COUNT>
0

> <PUBCHEM_ATOM_UDEF_STEREO_COUNT>
0

> <PUBCHEM_BOND_DEF_STEREO_COUNT>
0

> <PUBCHEM_BOND_UDEF_STEREO_COUNT>
0

> <PUBCHEM_ISOTOPIC_ATOM_COUNT>
0

> <PUBCHEM_COMPONENT_COUNT>
1

> <PUBCHEM_CACTVS_TAUTO_COUNT>
1

> <PUBCHEM_CONFORMER_ID>
00021D9800000001

> <PUBCHEM_MMFF94_ENERGY>
22.8138

> <PUBCHEM_FEATURE_SELFOVERLAP>
16.57

> <PUBCHEM_SHAPE_FINGERPRINT>
12423570 1 14456370240603802557
13024252 1 13916486271775854176
16945 1 18270965776858078005
18185500 45 18122344579768012275
21040471 1 18265622163247916773
241688 4 18410575131907719355
2748010 2 18338234856017833061
5084963 1 18058454364191036993

> <PUBCHEM_SHAPE_MULTIPOLES>
205.8
2.07
2.07
0.86
0.28
0.18
-0.09
-0.18
0.3
-0.28
0.3
0
0
0

> <PUBCHEM_SHAPE_SELFOVERLAP>
465.187

> <PUBCHEM_SHAPE_VOLUME>
101.6

> <PUBCHEM_COORDINATE_TYPE>
2
5
10

$$$$
