71367025
  -OEChem-11012400453D

 37 40  0     0  0  0  0  0  0999 V2000
    1.6733   -2.5159   -0.1950 O   0  0  0  0  0  0  0  0  0  0  0  0
   -0.4879   -1.0949    1.2346 O   0  0  0  0  0  0  0  0  0  0  0  0
    4.1033   -3.4299   -0.0972 O   0  0  0  0  0  0  0  0  0  0  0  0
   -7.5354   -0.1188    1.1846 O   0  0  0  0  0  0  0  0  0  0  0  0
   -0.8130    0.4004   -0.5170 N   0  0  0  0  0  0  0  0  0  0  0  0
   -5.2373   -0.0881    1.3731 N   0  0  0  0  0  0  0  0  0  0  0  0
   -6.2550    0.2731   -0.6930 N   0  0  0  0  0  0  0  0  0  0  0  0
    4.2023    0.1503   -0.0135 C   0  0  0  0  0  0  0  0  0  0  0  0
    3.3786    1.2653    0.2714 C   0  0  0  0  0  0  0  0  0  0  0  0
    1.4251   -0.1839    0.2369 C   0  0  0  0  0  0  0  0  0  0  0  0
    3.6149   -1.1160   -0.1679 C   0  0  0  0  0  0  0  0  0  0  0  0
    1.9918    1.0813    0.3934 C   0  0  0  0  0  0  0  0  0  0  0  0
    2.2351   -1.2806   -0.0429 C   0  0  0  0  0  0  0  0  0  0  0  0
   -0.0176   -0.3326    0.3727 C   0  0  0  0  0  0  0  0  0  0  0  0
    5.5892    0.3346   -0.1358 C   0  0  0  0  0  0  0  0  0  0  0  0
    3.9657    2.5316    0.4258 C   0  0  0  0  0  0  0  0  0  0  0  0
   -2.1774    0.3652   -0.5428 C   0  0  0  0  0  0  0  0  0  0  0  0
   -4.3288    0.1074    0.4823 C   0  0  0  0  0  0  0  0  0  0  0  0
   -2.8685    0.1309    0.5852 C   0  0  0  0  0  0  0  0  0  0  0  0
    6.1557    1.5999    0.0209 C   0  0  0  0  0  0  0  0  0  0  0  0
    5.3456    2.6964    0.3011 C   0  0  0  0  0  0  0  0  0  0  0  0
   -4.9772    0.3376   -0.8335 C   0  0  0  0  0  0  0  0  0  0  0  0
   -2.8208    0.5903   -1.8304 C   0  0  0  0  0  0  0  0  0  0  0  0
   -4.1491    0.5855   -2.0125 C   0  0  0  0  0  0  0  0  0  0  0  0
    4.4207   -2.3004   -0.4647 C   0  0  0  0  0  0  0  0  0  0  0  0
   -6.4331    0.0112    0.6642 C   0  0  0  0  0  0  0  0  0  0  0  0
    1.3533    1.9347    0.6175 H   0  0  0  0  0  0  0  0  0  0  0  0
    6.2764   -0.4813   -0.3353 H   0  0  0  0  0  0  0  0  0  0  0  0
    3.3520    3.4028    0.6452 H   0  0  0  0  0  0  0  0  0  0  0  0
   -0.3456    0.8329   -1.3108 H   0  0  0  0  0  0  0  0  0  0  0  0
   -2.4549    0.0080    1.5762 H   0  0  0  0  0  0  0  0  0  0  0  0
    7.2302    1.7290   -0.0719 H   0  0  0  0  0  0  0  0  0  0  0  0
    5.7873    3.6810    0.4238 H   0  0  0  0  0  0  0  0  0  0  0  0
   -2.1797    0.7704   -2.6895 H   0  0  0  0  0  0  0  0  0  0  0  0
   -4.6128    0.7536   -2.9751 H   0  0  0  0  0  0  0  0  0  0  0  0
    5.3432   -2.1640   -1.0490 H   0  0  0  0  0  0  0  0  0  0  0  0
    0.7091   -2.4723   -0.0934 H   0  0  0  0  0  0  0  0  0  0  0  0
  1 13  1  0  0  0  0
  1 37  1  0  0  0  0
  2 14  2  0  0  0  0
  3 25  2  0  0  0  0
  4 26  2  0  0  0  0
  5 14  1  0  0  0  0
  5 17  1  0  0  0  0
  5 30  1  0  0  0  0
  6 18  2  0  0  0  0
  6 26  1  0  0  0  0
  7 22  2  0  0  0  0
  7 26  1  0  0  0  0
  8  9  1  0  0  0  0
  8 11  1  0  0  0  0
  8 15  2  0  0  0  0
  9 12  1  0  0  0  0
  9 16  2  0  0  0  0
 10 12  2  0  0  0  0
 10 13  1  0  0  0  0
 10 14  1  0  0  0  0
 11 13  2  0  0  0  0
 11 25  1  0  0  0  0
 12 27  1  0  0  0  0
 15 20  1  0  0  0  0
 15 28  1  0  0  0  0
 16 21  1  0  0  0  0
 16 29  1  0  0  0  0
 17 19  2  0  0  0  0
 17 23  1  0  0  0  0
 18 19  1  0  0  0  0
 18 22  1  0  0  0  0
 19 31  1  0  0  0  0
 20 21  2  0  0  0  0
 20 32  1  0  0  0  0
 21 33  1  0  0  0  0
 22 24  1  0  0  0  0
 23 24  2  0  0  0  0
 23 34  1  0  0  0  0
 24 35  1  0  0  0  0
 25 36  1  0  0  0  0
M  END
> <PUBCHEM_COMPOUND_CID>
71367025

> <PUBCHEM_CONFORMER_RMSD>
0.8

> <PUBCHEM_CONFORMER_DIVERSEORDER>
1
2
4
8
12
10
11
9
3
5
6
7

> <PUBCHEM_MMFF94_PARTIAL_CHARGES>
35
1 -0.53
10 0.09
11 0.09
12 -0.15
13 0.08
14 0.54
15 -0.15
16 -0.15
17 0.11
18 0.44
19 -0.14
2 -0.57
20 -0.15
21 -0.15
22 0.44
23 -0.15
24 -0.14
25 0.42
26 0.99
27 0.15
28 0.15
29 0.15
3 -0.57
30 0.37
31 0.15
32 0.15
33 0.15
34 0.15
35 0.15
36 0.06
37 0.45
4 -0.57
5 -0.54
6 -0.66
7 -0.66

> <PUBCHEM_EFFECTIVE_ROTOR_COUNT>
4

> <PUBCHEM_PHARMACOPHORE_FEATURES>
13
1 1 donor
1 2 acceptor
1 3 acceptor
1 4 acceptor
1 5 donor
1 6 acceptor
1 6 donor
1 7 acceptor
1 7 donor
5 6 7 18 22 26 rings
6 17 18 19 22 23 24 rings
6 8 9 10 11 12 13 rings
6 8 9 15 16 20 21 rings

> <PUBCHEM_HEAVY_ATOM_COUNT>
26

> <PUBCHEM_ATOM_DEF_STEREO_COUNT>
0

> <PUBCHEM_ATOM_UDEF_STEREO_COUNT>
0

> <PUBCHEM_BOND_DEF_STEREO_COUNT>
0

> <PUBCHEM_BOND_UDEF_STEREO_COUNT>
0

> <PUBCHEM_ISOTOPIC_ATOM_COUNT>
0

> <PUBCHEM_COMPONENT_COUNT>
1

> <PUBCHEM_CACTVS_TAUTO_COUNT>
23

> <PUBCHEM_CONFORMER_ID>
0440F97100000001

> <PUBCHEM_MMFF94_ENERGY>
91.7936

> <PUBCHEM_FEATURE_SELFOVERLAP>
66.309

> <PUBCHEM_SHAPE_FINGERPRINT>
10 15 17531244019620907560
10165383 225 18335989761761596052
10299344 5 17847061095447765959
10411042 1 18052261688215595038
10554248 39 17131267931754769237
10595046 47 18273494589625917753
10638233 991 17917711327039104481
10693767 8 17917436368398201038
10835480 77 18334851689484926229
11497681 19 18198334260212491767
11646440 116 18186802503954076124
12107183 9 17624989235149297673
12236239 1 17346600776551042496
12403259 415 18040713641029168389
12616971 3 17846208930517016375
12730499 353 18407761443583194642
12788726 201 16845302604984123499
13009979 54 17415844583680671634
13402501 40 18040149643183452141
13533116 47 18272652324879726074
13782708 43 17822572677304774027
13955234 65 18411974746518916842
14170010 4 18412823574022304162
14341114 176 18409733945852602285
14461889 52 18261956369995844674
15081414 286 18335138700337150772
15183329 4 16917348139134068305
15238133 3 16056597630071612667
15475509 35 16806153368834200154
15537594 2 17846213371376167165
1577012 14 17418374688790314957
17844677 252 18340207380179048949
18335252 98 18338239375115161099
19427546 62 18337675342787386714
19489759 90 15502371227912301429
1979834 28 18187928421568062164
20157964 124 18412266142600776354
20645477 70 18410855413458950234
21033648 29 17749382650851383285
21033650 10 15195022547281204507
21623969 137 18334577953390033481
21792964 463 18196401206200268545
220451 1 17846777421057312215
22122407 14 17988659518582725049
22149856 69 17969242091917788033
22224240 67 18187082893084029331
2303208 19 17967820410023346187
23081809 10 17489299781419315079
23522609 53 17560818644703656753
23557571 272 17385724673016620341
23559900 14 17024027064617273499
23569914 152 17037783995796983535
25147074 1 17702956837610017712
255183 451 17843414990595044230
2747138 104 17458922487411023329
3004659 81 15554445223325951153
3178227 256 18409444800697342928
335352 9 18413394246648638334
3383291 50 16878520037651516003
34797466 226 17313396624898417951
3545911 37 18334576862695245556
4073 2 18262524800528079899
42630746 31 18342175566591529014
4340502 62 17967811661233025770
5104073 3 17604701158774713081
54076057 127 18272097105994408094
542803 24 17489586770854692637
6025842 7 18342457028636203038
6669772 16 18260543425025375146
70251023 43 17843979048607602070
8272917 22 18343867715007807990

> <PUBCHEM_SHAPE_MULTIPOLES>
496.65
17.77
2.34
1.19
17.94
1.12
-0.35
-4.3
1.7
-6.2
0
2.16
-0.14
1.07

> <PUBCHEM_SHAPE_SELFOVERLAP>
1126.128

> <PUBCHEM_SHAPE_VOLUME>
258.7

> <PUBCHEM_COORDINATE_TYPE>
2
5
10

$$$$
