139665
  -OEChem-11012400573D

 23 23  0     0  0  0  0  0  0999 V2000
    1.2821   -1.1621    0.0034 S   0  0  0  0  0  0  0  0  0  0  0  0
    1.6159   -1.7400   -1.2738 O   0  0  0  0  0  0  0  0  0  0  0  0
    1.6397   -1.6988    1.2932 O   0  0  0  0  0  0  0  0  0  0  0  0
   -0.3429   -0.5236    0.0012 C   0  0  0  0  0  0  0  0  0  0  0  0
   -2.9397    0.4959   -0.0006 C   0  0  0  0  0  0  0  0  0  0  0  0
   -0.9911   -0.2636    1.2087 C   0  0  0  0  0  0  0  0  0  0  0  0
   -0.9932   -0.2738   -1.2073 C   0  0  0  0  0  0  0  0  0  0  0  0
   -2.2895    0.2461    1.2078 C   0  0  0  0  0  0  0  0  0  0  0  0
   -2.2916    0.2360   -1.2082 C   0  0  0  0  0  0  0  0  0  0  0  0
   -4.3278    1.0414   -0.0018 C   0  0  0  0  0  0  0  0  0  0  0  0
    2.4007    0.2149   -0.0031 C   0  0  0  0  0  0  0  0  0  0  0  0
    3.1577    1.1465   -0.0072 C   0  0  0  0  0  0  0  0  0  0  0  0
    4.0796    2.2813   -0.0123 C   0  0  0  0  0  0  0  0  0  0  0  0
   -0.5016   -0.4468    2.1611 H   0  0  0  0  0  0  0  0  0  0  0  0
   -0.5052   -0.4645   -2.1590 H   0  0  0  0  0  0  0  0  0  0  0  0
   -2.7830    0.4471    2.1551 H   0  0  0  0  0  0  0  0  0  0  0  0
   -2.7868    0.4293   -2.1561 H   0  0  0  0  0  0  0  0  0  0  0  0
   -4.8866    0.6974   -0.8789 H   0  0  0  0  0  0  0  0  0  0  0  0
   -4.8835    0.7099    0.8819 H   0  0  0  0  0  0  0  0  0  0  0  0
   -4.3014    2.1355   -0.0095 H   0  0  0  0  0  0  0  0  0  0  0  0
    4.2952    2.6121    1.0081 H   0  0  0  0  0  0  0  0  0  0  0  0
    5.0268    2.0112   -0.4889 H   0  0  0  0  0  0  0  0  0  0  0  0
    3.6528    3.1268   -0.5602 H   0  0  0  0  0  0  0  0  0  0  0  0
  1  2  2  0  0  0  0
  1  3  2  0  0  0  0
  1  4  1  0  0  0  0
  1 11  1  0  0  0  0
  4  6  2  0  0  0  0
  4  7  1  0  0  0  0
  5  8  2  0  0  0  0
  5  9  1  0  0  0  0
  5 10  1  0  0  0  0
  6  8  1  0  0  0  0
  6 14  1  0  0  0  0
  7  9  2  0  0  0  0
  7 15  1  0  0  0  0
  8 16  1  0  0  0  0
  9 17  1  0  0  0  0
 10 18  1  0  0  0  0
 10 19  1  0  0  0  0
 10 20  1  0  0  0  0
 11 12  3  0  0  0  0
 12 13  1  0  0  0  0
 13 21  1  0  0  0  0
 13 22  1  0  0  0  0
 13 23  1  0  0  0  0
M  END
> <PUBCHEM_COMPOUND_CID>
139665

> <PUBCHEM_CONFORMER_RMSD>
0.4

> <PUBCHEM_CONFORMER_DIVERSEORDER>
1

> <PUBCHEM_MMFF94_PARTIAL_CHARGES>
17
1 1.39
10 0.14
11 -0.08
12 -0.2
13 0.2
14 0.15
15 0.15
16 0.15
17 0.15
2 -0.65
3 -0.65
4 -0.01
5 -0.14
6 -0.15
7 -0.15
8 -0.15
9 -0.15

> <PUBCHEM_EFFECTIVE_ROTOR_COUNT>
1

> <PUBCHEM_PHARMACOPHORE_FEATURES>
4
1 13 hydrophobe
1 2 acceptor
1 3 acceptor
6 4 5 6 7 8 9 rings

> <PUBCHEM_HEAVY_ATOM_COUNT>
13

> <PUBCHEM_ATOM_DEF_STEREO_COUNT>
0

> <PUBCHEM_ATOM_UDEF_STEREO_COUNT>
0

> <PUBCHEM_BOND_DEF_STEREO_COUNT>
0

> <PUBCHEM_BOND_UDEF_STEREO_COUNT>
0

> <PUBCHEM_ISOTOPIC_ATOM_COUNT>
0

> <PUBCHEM_COMPONENT_COUNT>
1

> <PUBCHEM_CACTVS_TAUTO_COUNT>
1

> <PUBCHEM_CONFORMER_ID>
0002219100000001

> <PUBCHEM_MMFF94_ENERGY>
18.9622

> <PUBCHEM_FEATURE_SELFOVERLAP>
20.311

> <PUBCHEM_SHAPE_FINGERPRINT>
10465860 71 15339119065133984089
10857977 72 16298396738220427279
11031198 65 18272938223472213308
11132069 177 16443068275217221409
11543360 7 18271515430341824525
122479 349 18119249704245540040
12616999 72 17775560927544706263
12932764 1 17968663700929280599
13571099 52 18260552250892250978
14115302 16 16988838333226190342
14993402 34 17060338517992516873
15342168 16 18335707194776606252
15775835 57 18343300405124809732
170605 34 18411984667423644394
1813 80 17699013877687450342
18186145 218 18115311047272509205
19765921 60 18341887532561506234
19786989 88 18340196410679470895
20645464 45 17603585231433304081
20645476 183 17489582377087182221
20871999 31 16343130463301774589
21499 59 18272370923007097572
21524375 3 18339076124721956772
21618674 25 17967812747648612081
2255824 54 17986959552729984958
22926399 37 18202285831233640385
23552423 10 17273700845201105831
23557571 272 17604732043620424171
23559900 14 16588590781683140635
25 1 18341332275211237208
27216 239 17826233179389350664
2748010 2 15142916545749880051
3248919 1 18059564738155276783
474 4 18411420648087027240
8030462 33 16558466400939172867
90316 7 14418123015661762567

> <PUBCHEM_SHAPE_MULTIPOLES>
259.64
6.8
1.73
1.26
0.45
0.13
0
5.1
-0.01
2.08
-0.01
-0.44
-0.34
-0.01

> <PUBCHEM_SHAPE_SELFOVERLAP>
518.958

> <PUBCHEM_SHAPE_VOLUME>
152.5

> <PUBCHEM_COORDINATE_TYPE>
2
5
10

$$$$
