16683296
  -OEChem-10312420592D

 69 74  0     0  0  0  0  0  0999 V2000
    6.7588   -0.0805    0.0000 Sn  0  0  0  0  0  0  0  0  0  0  0  0
    4.8191    0.2615    0.0000 Sn  0  0  0  0  0  0  0  0  0  0  0  0
    5.7588   -0.0805    0.0000 O   0  0  0  0  0  0  0  0  0  0  0  0
    6.7588   -1.0805    0.0000 C   0  0  0  0  0  0  0  0  0  0  0  0
    7.4016    0.6855    0.0000 C   0  0  0  0  0  0  0  0  0  0  0  0
    7.7588   -0.0805    0.0000 C   0  0  0  0  0  0  0  0  0  0  0  0
    4.4771   -0.6782    0.0000 C   0  0  0  0  0  0  0  0  0  0  0  0
    3.8794    0.6035    0.0000 C   0  0  0  0  0  0  0  0  0  0  0  0
    5.1611    1.2012    0.0000 C   0  0  0  0  0  0  0  0  0  0  0  0
    5.8928   -1.5805    0.0000 C   0  0  0  0  0  0  0  0  0  0  0  0
    7.0595    1.6252    0.0000 C   0  0  0  0  0  0  0  0  0  0  0  0
    8.2588   -0.9466    0.0000 C   0  0  0  0  0  0  0  0  0  0  0  0
    5.1198   -1.4442    0.0000 C   0  0  0  0  0  0  0  0  0  0  0  0
    3.1133   -0.0393    0.0000 C   0  0  0  0  0  0  0  0  0  0  0  0
    4.5183    1.9672    0.0000 C   0  0  0  0  0  0  0  0  0  0  0  0
    7.6248   -1.5805    0.0000 C   0  0  0  0  0  0  0  0  0  0  0  0
    8.3864    0.5118    0.0000 C   0  0  0  0  0  0  0  0  0  0  0  0
    8.2588    0.7855    0.0000 C   0  0  0  0  0  0  0  0  0  0  0  0
    3.4922   -0.8519    0.0000 C   0  0  0  0  0  0  0  0  0  0  0  0
    3.7057    1.5883    0.0000 C   0  0  0  0  0  0  0  0  0  0  0  0
    6.1459    1.3748    0.0000 C   0  0  0  0  0  0  0  0  0  0  0  0
    5.8928   -2.5806    0.0000 C   0  0  0  0  0  0  0  0  0  0  0  0
    7.7023    2.3912    0.0000 C   0  0  0  0  0  0  0  0  0  0  0  0
    9.2588   -0.9466    0.0000 C   0  0  0  0  0  0  0  0  0  0  0  0
    4.7778   -2.3839    0.0000 C   0  0  0  0  0  0  0  0  0  0  0  0
    2.1736    0.3027    0.0000 C   0  0  0  0  0  0  0  0  0  0  0  0
    4.8603    2.9069    0.0000 C   0  0  0  0  0  0  0  0  0  0  0  0
    7.6248   -2.5806    0.0000 C   0  0  0  0  0  0  0  0  0  0  0  0
    9.0292    1.2779    0.0000 C   0  0  0  0  0  0  0  0  0  0  0  0
    9.2588    0.7855    0.0000 C   0  0  0  0  0  0  0  0  0  0  0  0
    3.1502   -1.7916    0.0000 C   0  0  0  0  0  0  0  0  0  0  0  0
    2.7660    1.9303    0.0000 C   0  0  0  0  0  0  0  0  0  0  0  0
    6.4879    2.3145    0.0000 C   0  0  0  0  0  0  0  0  0  0  0  0
    6.7588   -3.0806    0.0000 C   0  0  0  0  0  0  0  0  0  0  0  0
    8.6871    2.2176    0.0000 C   0  0  0  0  0  0  0  0  0  0  0  0
    9.7588   -0.0805    0.0000 C   0  0  0  0  0  0  0  0  0  0  0  0
    3.7930   -2.5576    0.0000 C   0  0  0  0  0  0  0  0  0  0  0  0
    2.0000    1.2875    0.0000 C   0  0  0  0  0  0  0  0  0  0  0  0
    5.8451    3.0806    0.0000 C   0  0  0  0  0  0  0  0  0  0  0  0
    5.3558   -1.2706    0.0000 H   0  0  0  0  0  0  0  0  0  0  0  0
    6.4490    1.7328    0.0000 H   0  0  0  0  0  0  0  0  0  0  0  0
    7.9488   -1.4835    0.0000 H   0  0  0  0  0  0  0  0  0  0  0  0
    5.7304   -1.3366    0.0000 H   0  0  0  0  0  0  0  0  0  0  0  0
    3.2210   -0.6499    0.0000 H   0  0  0  0  0  0  0  0  0  0  0  0
    3.9077    1.8596    0.0000 H   0  0  0  0  0  0  0  0  0  0  0  0
    8.1617   -1.2706    0.0000 H   0  0  0  0  0  0  0  0  0  0  0  0
    8.5984   -0.0708    0.0000 H   0  0  0  0  0  0  0  0  0  0  0  0
    7.9488    1.3224    0.0000 H   0  0  0  0  0  0  0  0  0  0  0  0
    3.0937   -0.3769    0.0000 H   0  0  0  0  0  0  0  0  0  0  0  0
    4.1807    1.9868    0.0000 H   0  0  0  0  0  0  0  0  0  0  0  0
    6.5444    0.8999    0.0000 H   0  0  0  0  0  0  0  0  0  0  0  0
    5.3558   -2.8906    0.0000 H   0  0  0  0  0  0  0  0  0  0  0  0
    7.4903    2.9738    0.0000 H   0  0  0  0  0  0  0  0  0  0  0  0
    9.5688   -1.4835    0.0000 H   0  0  0  0  0  0  0  0  0  0  0  0
    5.1763   -2.8589    0.0000 H   0  0  0  0  0  0  0  0  0  0  0  0
    1.6987   -0.0958    0.0000 H   0  0  0  0  0  0  0  0  0  0  0  0
    4.4618    3.3818    0.0000 H   0  0  0  0  0  0  0  0  0  0  0  0
    8.1617   -2.8906    0.0000 H   0  0  0  0  0  0  0  0  0  0  0  0
    9.6397    1.1702    0.0000 H   0  0  0  0  0  0  0  0  0  0  0  0
    9.5688    1.3224    0.0000 H   0  0  0  0  0  0  0  0  0  0  0  0
    2.5396   -1.8992    0.0000 H   0  0  0  0  0  0  0  0  0  0  0  0
    2.6584    2.5409    0.0000 H   0  0  0  0  0  0  0  0  0  0  0  0
    7.0985    2.4222    0.0000 H   0  0  0  0  0  0  0  0  0  0  0  0
    6.7588   -3.7006    0.0000 H   0  0  0  0  0  0  0  0  0  0  0  0
    9.0857    2.6925    0.0000 H   0  0  0  0  0  0  0  0  0  0  0  0
   10.3788   -0.0805    0.0000 H   0  0  0  0  0  0  0  0  0  0  0  0
    3.5809   -3.1402    0.0000 H   0  0  0  0  0  0  0  0  0  0  0  0
    1.4174    1.4996    0.0000 H   0  0  0  0  0  0  0  0  0  0  0  0
    6.0572    3.6632    0.0000 H   0  0  0  0  0  0  0  0  0  0  0  0
  1  3  1  0  0  0  0
  1  4  1  0  0  0  0
  1  5  1  0  0  0  0
  1  6  1  0  0  0  0
  2  3  1  0  0  0  0
  2  7  1  0  0  0  0
  2  8  1  0  0  0  0
  2  9  1  0  0  0  0
  4 10  2  0  0  0  0
  4 16  1  0  0  0  0
  5 11  2  0  0  0  0
  5 17  1  0  0  0  0
  6 12  2  0  0  0  0
  6 18  1  0  0  0  0
  7 13  2  0  0  0  0
  7 19  1  0  0  0  0
  8 14  2  0  0  0  0
  8 20  1  0  0  0  0
  9 15  2  0  0  0  0
  9 21  1  0  0  0  0
 10 22  1  0  0  0  0
 10 40  1  0  0  0  0
 11 23  1  0  0  0  0
 11 41  1  0  0  0  0
 12 24  1  0  0  0  0
 12 42  1  0  0  0  0
 13 25  1  0  0  0  0
 13 43  1  0  0  0  0
 14 26  1  0  0  0  0
 14 44  1  0  0  0  0
 15 27  1  0  0  0  0
 15 45  1  0  0  0  0
 16 28  2  0  0  0  0
 16 46  1  0  0  0  0
 17 29  2  0  0  0  0
 17 47  1  0  0  0  0
 18 30  2  0  0  0  0
 18 48  1  0  0  0  0
 19 31  2  0  0  0  0
 19 49  1  0  0  0  0
 20 32  2  0  0  0  0
 20 50  1  0  0  0  0
 21 33  2  0  0  0  0
 21 51  1  0  0  0  0
 22 34  2  0  0  0  0
 22 52  1  0  0  0  0
 23 35  2  0  0  0  0
 23 53  1  0  0  0  0
 24 36  2  0  0  0  0
 24 54  1  0  0  0  0
 25 37  2  0  0  0  0
 25 55  1  0  0  0  0
 26 38  2  0  0  0  0
 26 56  1  0  0  0  0
 27 39  2  0  0  0  0
 27 57  1  0  0  0  0
 28 34  1  0  0  0  0
 28 58  1  0  0  0  0
 29 35  1  0  0  0  0
 29 59  1  0  0  0  0
 30 36  1  0  0  0  0
 30 60  1  0  0  0  0
 31 37  1  0  0  0  0
 31 61  1  0  0  0  0
 32 38  1  0  0  0  0
 32 62  1  0  0  0  0
 33 39  1  0  0  0  0
 33 63  1  0  0  0  0
 34 64  1  0  0  0  0
 35 65  1  0  0  0  0
 36 66  1  0  0  0  0
 37 67  1  0  0  0  0
 38 68  1  0  0  0  0
 39 69  1  0  0  0  0
M  END
> <PUBCHEM_COMPOUND_CID>
16683296

> <PUBCHEM_COMPOUND_CANONICALIZED>
1

> <PUBCHEM_CACTVS_COMPLEXITY>
551

> <PUBCHEM_CACTVS_HBOND_ACCEPTOR>
1

> <PUBCHEM_CACTVS_HBOND_DONOR>
0

> <PUBCHEM_CACTVS_ROTATABLE_BOND>
8

> <PUBCHEM_CACTVS_SUBSKEYS>
AAADceB8IAAAAAAAAACAAAAAAAAAAAAAAAAwYMGDAAAAAAABVAAAGAAAAAAACACAEAAwAIAAAACAACBCAAACAAAgAAAIiAAAAIgIICKAERCAIAAggAAIiAcAAAAAAAAAAAAAAAAAAAAAAAAAAAAAAAAAAA==

> <PUBCHEM_IUPAC_OPENEYE_NAME>
triphenyl(triphenylstannyloxy)stannane

> <PUBCHEM_IUPAC_CAS_NAME>
triphenyl(triphenylstannyloxy)stannane

> <PUBCHEM_IUPAC_NAME_MARKUP>
triphenyl(triphenylstannyloxy)stannane

> <PUBCHEM_IUPAC_NAME>
triphenyl(triphenylstannyloxy)stannane

> <PUBCHEM_IUPAC_SYSTEMATIC_NAME>
triphenyl(triphenylstannyloxy)stannane

> <PUBCHEM_IUPAC_TRADITIONAL_NAME>
triphenyl(triphenylstannyloxy)stannane

> <PUBCHEM_IUPAC_INCHI>
InChI=1S/6C6H5.O.2Sn/c6*1-2-4-6-5-3-1;;;/h6*1-5H;;;

> <PUBCHEM_IUPAC_INCHIKEY>
MUHFQLVFMFDJOK-UHFFFAOYSA-N

> <PUBCHEM_EXACT_MASS>
716.03347

> <PUBCHEM_MOLECULAR_FORMULA>
C36H30OSn2

> <PUBCHEM_MOLECULAR_WEIGHT>
716.0

> <PUBCHEM_OPENEYE_CAN_SMILES>
C1=CC=C(C=C1)[Sn](C2=CC=CC=C2)(C3=CC=CC=C3)O[Sn](C4=CC=CC=C4)(C5=CC=CC=C5)C6=CC=CC=C6

> <PUBCHEM_OPENEYE_ISO_SMILES>
C1=CC=C(C=C1)[Sn](C2=CC=CC=C2)(C3=CC=CC=C3)O[Sn](C4=CC=CC=C4)(C5=CC=CC=C5)C6=CC=CC=C6

> <PUBCHEM_CACTVS_TPSA>
9.2

> <PUBCHEM_MONOISOTOPIC_WEIGHT>
718.03407

> <PUBCHEM_TOTAL_CHARGE>
0

> <PUBCHEM_HEAVY_ATOM_COUNT>
39

> <PUBCHEM_ATOM_DEF_STEREO_COUNT>
0

> <PUBCHEM_ATOM_UDEF_STEREO_COUNT>
0

> <PUBCHEM_BOND_DEF_STEREO_COUNT>
0

> <PUBCHEM_BOND_UDEF_STEREO_COUNT>
0

> <PUBCHEM_ISOTOPIC_ATOM_COUNT>
0

> <PUBCHEM_COMPONENT_COUNT>
1

> <PUBCHEM_CACTVS_TAUTO_COUNT>
-1

> <PUBCHEM_COORDINATE_TYPE>
1
5
255

> <PUBCHEM_BONDANNOTATIONS>
10  22  8
11  23  8
12  24  8
13  25  8
14  26  8
15  27  8
16  28  8
17  29  8
18  30  8
19  31  8
20  32  8
21  33  8
22  34  8
23  35  8
24  36  8
25  37  8
26  38  8
27  39  8
28  34  8
29  35  8
30  36  8
31  37  8
32  38  8
33  39  8
4  10  8
4  16  8
5  11  8
5  17  8
6  12  8
6  18  8
7  13  8
7  19  8
8  14  8
8  20  8
9  15  8
9  21  8

$$$$
