143571
  -OEChem-11012400333D

 27 26  0     0  0  0  0  0  0999 V2000
    3.8083    0.7529    0.4433 F   0  0  0  0  0  0  0  0  0  0  0  0
   -3.8079    0.7523   -0.4466 F   0  0  0  0  0  0  0  0  0  0  0  0
   -0.4307    3.0880    0.9951 F   0  0  0  0  0  0  0  0  0  0  0  0
    0.4322    3.0814   -1.0010 F   0  0  0  0  0  0  0  0  0  0  0  0
    1.1149    1.5190    0.4633 O   0  0  0  0  0  0  0  0  0  0  0  0
   -1.1155    1.5163   -0.4624 O   0  0  0  0  0  0  0  0  0  0  0  0
    2.7913   -1.4466   -1.8904 O   0  5  0  0  0  0  0  0  0  0  0  0
    1.6423   -1.8216    1.0627 O   0  5  0  0  0  0  0  0  0  0  0  0
   -2.7942   -1.4427    1.8929 O   0  5  0  0  0  0  0  0  0  0  0  0
   -1.6412   -1.8236   -1.0579 O   0  5  0  0  0  0  0  0  0  0  0  0
    4.7101   -1.1960   -0.8484 O   0  0  0  0  0  0  0  0  0  0  0  0
    3.0872   -0.6933    2.2751 O   0  0  0  0  0  0  0  0  0  0  0  0
   -4.7115   -1.1940    0.8476 O   0  0  0  0  0  0  0  0  0  0  0  0
   -3.0843   -0.6976   -2.2745 O   0  0  0  0  0  0  0  0  0  0  0  0
    3.4990   -0.9786   -0.9881 N   0  3  0  0  0  0  0  0  0  0  0  0
    2.4925   -0.9341    1.2163 N   0  3  0  0  0  0  0  0  0  0  0  0
   -3.5007   -0.9764    0.9886 N   0  3  0  0  0  0  0  0  0  0  0  0
   -2.4911   -0.9365   -1.2144 N   0  3  0  0  0  0  0  0  0  0  0  0
    2.8350   -0.0903    0.0239 C   0  0  0  0  0  0  0  0  0  0  0  0
   -2.8351   -0.0902   -0.0241 C   0  0  0  0  0  0  0  0  0  0  0  0
    1.6591    0.6707   -0.5425 C   0  0  0  0  0  0  0  0  0  0  0  0
   -1.6599    0.6719    0.5423 C   0  0  0  0  0  0  0  0  0  0  0  0
    0.0000    2.2691   -0.0005 C   0  0  0  0  0  0  0  0  0  0  0  0
    1.9932    1.2919   -1.3823 H   0  0  0  0  0  0  0  0  0  0  0  0
    0.8822   -0.0121   -0.9056 H   0  0  0  0  0  0  0  0  0  0  0  0
   -1.9953    1.2942    1.3809 H   0  0  0  0  0  0  0  0  0  0  0  0
   -0.8841   -0.0106    0.9084 H   0  0  0  0  0  0  0  0  0  0  0  0
  1 19  1  0  0  0  0
  2 20  1  0  0  0  0
  3 23  1  0  0  0  0
  4 23  1  0  0  0  0
  5 21  1  0  0  0  0
  5 23  1  0  0  0  0
  6 22  1  0  0  0  0
  6 23  1  0  0  0  0
  7 15  1  0  0  0  0
  8 16  1  0  0  0  0
  9 17  1  0  0  0  0
 10 18  1  0  0  0  0
 11 15  2  0  0  0  0
 12 16  2  0  0  0  0
 13 17  2  0  0  0  0
 14 18  2  0  0  0  0
 15 19  1  0  0  0  0
 16 19  1  0  0  0  0
 17 20  1  0  0  0  0
 18 20  1  0  0  0  0
 19 21  1  0  0  0  0
 20 22  1  0  0  0  0
 21 24  1  0  0  0  0
 21 25  1  0  0  0  0
 22 26  1  0  0  0  0
 22 27  1  0  0  0  0
M  CHG  8   7  -1   8  -1   9  -1  10  -1  15   1  16   1  17   1  18   1
M  END
> <PUBCHEM_COMPOUND_CID>
143571

> <PUBCHEM_CONFORMER_RMSD>
1

> <PUBCHEM_CONFORMER_DIVERSEORDER>
1
5
13
23
12
8
24
22
9
20
27
21
15
11
17
18
3
14
10
26
25
6
4
2
19
16
7

> <PUBCHEM_MMFF94_PARTIAL_CHARGES>
23
1 -0.34
10 -0.52
11 -0.52
12 -0.52
13 -0.52
14 -0.52
15 0.8
16 0.8
17 0.8
18 0.8
19 0.82
2 -0.34
20 0.82
21 0.28
22 0.28
23 1.24
3 -0.34
4 -0.34
5 -0.56
6 -0.56
7 -0.52
8 -0.52
9 -0.52

> <PUBCHEM_EFFECTIVE_ROTOR_COUNT>
10

> <PUBCHEM_PHARMACOPHORE_FEATURES>
14
1 10 acceptor
1 10 anion
1 11 acceptor
1 12 acceptor
1 13 acceptor
1 14 acceptor
1 5 acceptor
1 6 acceptor
1 7 acceptor
1 7 anion
1 8 acceptor
1 8 anion
1 9 acceptor
1 9 anion

> <PUBCHEM_HEAVY_ATOM_COUNT>
23

> <PUBCHEM_ATOM_DEF_STEREO_COUNT>
0

> <PUBCHEM_ATOM_UDEF_STEREO_COUNT>
0

> <PUBCHEM_BOND_DEF_STEREO_COUNT>
0

> <PUBCHEM_BOND_UDEF_STEREO_COUNT>
0

> <PUBCHEM_ISOTOPIC_ATOM_COUNT>
0

> <PUBCHEM_COMPONENT_COUNT>
1

> <PUBCHEM_CACTVS_TAUTO_COUNT>
1

> <PUBCHEM_CONFORMER_ID>
000230D300000001

> <PUBCHEM_MMFF94_ENERGY>
42.9149

> <PUBCHEM_FEATURE_SELFOVERLAP>
71.415

> <PUBCHEM_SHAPE_FINGERPRINT>
10366900 7 15554446309847123020
104564 63 18267586810180395473
10618630 7 18412548691018702036
11552529 35 15840687716766857806
12363563 72 18409443687198214347
12553582 1 18410566292870441675
12596599 1 18131062779232133375
12633257 1 16271937012241309850
12707595 3 18335701671427031473
12714826 92 18334008355049102661
12788726 201 18195240014630919985
14252887 29 18343589563871664680
15375462 189 18336822090966355424
16752209 62 18196647402404325149
20291156 8 18410576188469699968
20442098 301 18130500860228605404
20645477 70 18267857457861109925
21524375 3 9295288365134654561
21713013 43 17386010606401563815
21731516 1 18410847767847223789
23419403 2 15011666841497739536
314173 41 18334020518364660753
7970288 3 18410582781245584167
81228 2 18194960742824648193

> <PUBCHEM_SHAPE_MULTIPOLES>
365.62
7.88
2.53
1.73
0
2.03
0
-4.48
0
0
0
0
-0.86
0.37

> <PUBCHEM_SHAPE_SELFOVERLAP>
740.993

> <PUBCHEM_SHAPE_VOLUME>
211.4

> <PUBCHEM_COORDINATE_TYPE>
2
5
10

$$$$
