141274
  -OEChem-11012401093D

 49 48  0     0  0  0  0  0  0999 V2000
   -1.2498    0.3587    0.0858 C   0  0  0  0  0  0  0  0  0  0  0  0
    0.0329   -0.4781    0.0693 C   0  0  0  0  0  0  0  0  0  0  0  0
   -2.5277   -0.4841    0.0537 C   0  0  0  0  0  0  0  0  0  0  0  0
    1.3110    0.3651    0.0756 C   0  0  0  0  0  0  0  0  0  0  0  0
   -3.7750    0.4042    0.0599 C   0  0  0  0  0  0  0  0  0  0  0  0
    2.5581   -0.5227    0.0463 C   0  0  0  0  0  0  0  0  0  0  0  0
   -5.0855   -0.3876   -0.0026 C   0  0  0  0  0  0  0  0  0  0  0  0
    3.8688    0.2691    0.0204 C   0  0  0  0  0  0  0  0  0  0  0  0
   -6.3305    0.5031   -0.0229 C   0  0  0  0  0  0  0  0  0  0  0  0
    5.1149   -0.6176   -0.0345 C   0  0  0  0  0  0  0  0  0  0  0  0
   -7.6416   -0.2897   -0.0250 C   0  0  0  0  0  0  0  0  0  0  0  0
    6.3947    0.2206    0.0151 C   0  0  0  0  0  0  0  0  0  0  0  0
   -8.8865    0.5972   -0.0716 C   0  0  0  0  0  0  0  0  0  0  0  0
    7.6405   -0.6611   -0.0720 C   0  0  0  0  0  0  0  0  0  0  0  0
  -10.1598   -0.2349   -0.0851 C   0  0  0  0  0  0  0  0  0  0  0  0
    8.8658    0.1497   -0.0608 C   0  0  0  0  0  0  0  0  0  0  0  0
    9.8696    0.8082   -0.0517 C   0  0  0  0  0  0  0  0  0  0  0  0
   -1.2537    0.9888    0.9839 H   0  0  0  0  0  0  0  0  0  0  0  0
   -1.2434    1.0370   -0.7766 H   0  0  0  0  0  0  0  0  0  0  0  0
    0.0350   -1.1458    0.9398 H   0  0  0  0  0  0  0  0  0  0  0  0
    0.0282   -1.1192   -0.8211 H   0  0  0  0  0  0  0  0  0  0  0  0
   -2.5492   -1.1550    0.9206 H   0  0  0  0  0  0  0  0  0  0  0  0
   -2.5294   -1.1135   -0.8441 H   0  0  0  0  0  0  0  0  0  0  0  0
    1.3307    0.9984    0.9704 H   0  0  0  0  0  0  0  0  0  0  0  0
    1.3143    1.0322   -0.7946 H   0  0  0  0  0  0  0  0  0  0  0  0
   -3.7735    1.0246    0.9647 H   0  0  0  0  0  0  0  0  0  0  0  0
   -3.7335    1.0906   -0.7951 H   0  0  0  0  0  0  0  0  0  0  0  0
    2.5545   -1.1814    0.9237 H   0  0  0  0  0  0  0  0  0  0  0  0
    2.5182   -1.1722   -0.8370 H   0  0  0  0  0  0  0  0  0  0  0  0
   -5.0826   -1.0214   -0.8979 H   0  0  0  0  0  0  0  0  0  0  0  0
   -5.1370   -1.0608    0.8621 H   0  0  0  0  0  0  0  0  0  0  0  0
    3.8661    0.9410   -0.8469 H   0  0  0  0  0  0  0  0  0  0  0  0
    3.9154    0.9053    0.9131 H   0  0  0  0  0  0  0  0  0  0  0  0
   -6.3151    1.1652    0.8515 H   0  0  0  0  0  0  0  0  0  0  0  0
   -6.2964    1.1480   -0.9096 H   0  0  0  0  0  0  0  0  0  0  0  0
    5.1035   -1.3189    0.8085 H   0  0  0  0  0  0  0  0  0  0  0  0
    5.0965   -1.2152   -0.9537 H   0  0  0  0  0  0  0  0  0  0  0  0
   -7.6797   -0.9212    0.8714 H   0  0  0  0  0  0  0  0  0  0  0  0
   -7.6479   -0.9662   -0.8888 H   0  0  0  0  0  0  0  0  0  0  0  0
    6.4177    0.8061    0.9433 H   0  0  0  0  0  0  0  0  0  0  0  0
    6.3927    0.9415   -0.8127 H   0  0  0  0  0  0  0  0  0  0  0  0
   -8.8990    1.2647    0.7976 H   0  0  0  0  0  0  0  0  0  0  0  0
   -8.8585    1.2292   -0.9666 H   0  0  0  0  0  0  0  0  0  0  0  0
    7.6576   -1.3638    0.7692 H   0  0  0  0  0  0  0  0  0  0  0  0
    7.6090   -1.2595   -0.9901 H   0  0  0  0  0  0  0  0  0  0  0  0
  -10.1907   -0.8907   -0.9610 H   0  0  0  0  0  0  0  0  0  0  0  0
  -11.0380    0.4174   -0.1179 H   0  0  0  0  0  0  0  0  0  0  0  0
  -10.2317   -0.8565    0.8130 H   0  0  0  0  0  0  0  0  0  0  0  0
   10.7600    1.3925   -0.0435 H   0  0  0  0  0  0  0  0  0  0  0  0
  1  2  1  0  0  0  0
  1  3  1  0  0  0  0
  1 18  1  0  0  0  0
  1 19  1  0  0  0  0
  2  4  1  0  0  0  0
  2 20  1  0  0  0  0
  2 21  1  0  0  0  0
  3  5  1  0  0  0  0
  3 22  1  0  0  0  0
  3 23  1  0  0  0  0
  4  6  1  0  0  0  0
  4 24  1  0  0  0  0
  4 25  1  0  0  0  0
  5  7  1  0  0  0  0
  5 26  1  0  0  0  0
  5 27  1  0  0  0  0
  6  8  1  0  0  0  0
  6 28  1  0  0  0  0
  6 29  1  0  0  0  0
  7  9  1  0  0  0  0
  7 30  1  0  0  0  0
  7 31  1  0  0  0  0
  8 10  1  0  0  0  0
  8 32  1  0  0  0  0
  8 33  1  0  0  0  0
  9 11  1  0  0  0  0
  9 34  1  0  0  0  0
  9 35  1  0  0  0  0
 10 12  1  0  0  0  0
 10 36  1  0  0  0  0
 10 37  1  0  0  0  0
 11 13  1  0  0  0  0
 11 38  1  0  0  0  0
 11 39  1  0  0  0  0
 12 14  1  0  0  0  0
 12 40  1  0  0  0  0
 12 41  1  0  0  0  0
 13 15  1  0  0  0  0
 13 42  1  0  0  0  0
 13 43  1  0  0  0  0
 14 16  1  0  0  0  0
 14 44  1  0  0  0  0
 14 45  1  0  0  0  0
 15 46  1  0  0  0  0
 15 47  1  0  0  0  0
 15 48  1  0  0  0  0
 16 17  3  0  0  0  0
 17 49  1  0  0  0  0
M  END
> <PUBCHEM_COMPOUND_CID>
141274

> <PUBCHEM_CONFORMER_RMSD>
1.4

> <PUBCHEM_CONFORMER_DIVERSEORDER>
1
40
21
20
29
6
4
15
19
28
14
18
13
27
16
10
3
9
30
8
35
24
11
36
26
32
17
33
2
39
7
37
38
12
25
22
34
23
5
31

> <PUBCHEM_MMFF94_PARTIAL_CHARGES>
4
14 0.2
16 -0.2
17 -0.18
49 0.18

> <PUBCHEM_EFFECTIVE_ROTOR_COUNT>
13

> <PUBCHEM_PHARMACOPHORE_FEATURES>
2
1 15 hydrophobe
1 17 hydrophobe

> <PUBCHEM_HEAVY_ATOM_COUNT>
17

> <PUBCHEM_ATOM_DEF_STEREO_COUNT>
0

> <PUBCHEM_ATOM_UDEF_STEREO_COUNT>
0

> <PUBCHEM_BOND_DEF_STEREO_COUNT>
0

> <PUBCHEM_BOND_UDEF_STEREO_COUNT>
0

> <PUBCHEM_ISOTOPIC_ATOM_COUNT>
0

> <PUBCHEM_COMPONENT_COUNT>
1

> <PUBCHEM_CACTVS_TAUTO_COUNT>
1

> <PUBCHEM_CONFORMER_ID>
000227DA00000001

> <PUBCHEM_MMFF94_ENERGY>
-3.4203

> <PUBCHEM_FEATURE_SELFOVERLAP>
10.149

> <PUBCHEM_SHAPE_FINGERPRINT>
11315181 36 18131073744372836947
14123256 10 18410575080368111623
14251764 46 18410855460133449542
14251920 1 18410856555350129523
15510794 2 18334862709711832595
16120349 18 18335421305533597956
21362267 2 17968648436663842092
21362267 313 17968930869243198312
232437 2 10231755586880742157
23521765 1 18341894090834077067
23581129 1 18409448089539575815
33684 2 18410573985151451139
67123 10 18410856568229730679
8209 1 18410855460133456042

> <PUBCHEM_SHAPE_MULTIPOLES>
349.85
39.05
0.83
0.62
4.55
0
0
3.84
1.71
-0.31
0
0
0
0.01

> <PUBCHEM_SHAPE_SELFOVERLAP>
628.689

> <PUBCHEM_SHAPE_VOLUME>
225

> <PUBCHEM_COORDINATE_TYPE>
2
5
10

$$$$
