325909
  -OEChem-11012400403D

 26 26  0     0  0  0  0  0  0999 V2000
    3.8476    0.2664   -1.2264 O   0  0  0  0  0  0  0  0  0  0  0  0
   -0.1725   -1.3440    0.1977 N   0  0  0  0  0  0  0  0  0  0  0  0
   -1.3232   -0.5598    0.0921 C   0  0  0  0  0  0  0  0  0  0  0  0
    1.1230   -0.9070    0.2022 C   0  0  0  0  0  0  0  0  0  0  0  0
   -2.4821   -1.0737   -0.5065 C   0  0  0  0  0  0  0  0  0  0  0  0
   -1.3364    0.7533    0.5830 C   0  0  0  0  0  0  0  0  0  0  0  0
    2.0741   -1.7661    0.9963 C   0  0  0  0  0  0  0  0  0  0  0  0
    1.5960    0.1866   -0.4232 C   0  0  0  0  0  0  0  0  0  0  0  0
   -3.6311   -0.2900   -0.6123 C   0  0  0  0  0  0  0  0  0  0  0  0
   -2.4855    1.5369    0.4771 C   0  0  0  0  0  0  0  0  0  0  0  0
   -3.6328    1.0152   -0.1205 C   0  0  0  0  0  0  0  0  0  0  0  0
    3.0238    0.6239   -0.3895 C   0  0  0  0  0  0  0  0  0  0  0  0
    3.3991    1.5582    0.7299 C   0  0  0  0  0  0  0  0  0  0  0  0
   -0.3169   -2.3382    0.3361 H   0  0  0  0  0  0  0  0  0  0  0  0
   -2.4949   -2.0894   -0.8948 H   0  0  0  0  0  0  0  0  0  0  0  0
   -0.4743    1.1846    1.0850 H   0  0  0  0  0  0  0  0  0  0  0  0
    3.1136   -1.4290    0.9903 H   0  0  0  0  0  0  0  0  0  0  0  0
    1.7536   -1.8044    2.0437 H   0  0  0  0  0  0  0  0  0  0  0  0
    2.0690   -2.7894    0.6037 H   0  0  0  0  0  0  0  0  0  0  0  0
    0.9576    0.8139   -1.0378 H   0  0  0  0  0  0  0  0  0  0  0  0
   -4.5246   -0.6961   -1.0774 H   0  0  0  0  0  0  0  0  0  0  0  0
   -2.4898    2.5507    0.8669 H   0  0  0  0  0  0  0  0  0  0  0  0
   -4.5281    1.6248   -0.2012 H   0  0  0  0  0  0  0  0  0  0  0  0
    2.5429    1.7625    1.3790 H   0  0  0  0  0  0  0  0  0  0  0  0
    4.1895    1.1009    1.3309 H   0  0  0  0  0  0  0  0  0  0  0  0
    3.7473    2.5041    0.3068 H   0  0  0  0  0  0  0  0  0  0  0  0
  1 12  2  0  0  0  0
  2  3  1  0  0  0  0
  2  4  1  0  0  0  0
  2 14  1  0  0  0  0
  3  5  2  0  0  0  0
  3  6  1  0  0  0  0
  4  7  1  0  0  0  0
  4  8  2  3  0  0  0
  5  9  1  0  0  0  0
  5 15  1  0  0  0  0
  6 10  2  0  0  0  0
  6 16  1  0  0  0  0
  7 17  1  0  0  0  0
  7 18  1  0  0  0  0
  7 19  1  0  0  0  0
  8 12  1  0  0  0  0
  8 20  1  0  0  0  0
  9 11  2  0  0  0  0
  9 21  1  0  0  0  0
 10 11  1  0  0  0  0
 10 22  1  0  0  0  0
 11 23  1  0  0  0  0
 12 13  1  0  0  0  0
 13 24  1  0  0  0  0
 13 25  1  0  0  0  0
 13 26  1  0  0  0  0
M  END
> <PUBCHEM_COMPOUND_CID>
325909

> <PUBCHEM_CONFORMER_RMSD>
0.6

> <PUBCHEM_CONFORMER_DIVERSEORDER>
1
13
2
5
8
3
6
4
12
9
10
11
7

> <PUBCHEM_MMFF94_PARTIAL_CHARGES>
20
1 -0.57
10 -0.15
11 -0.15
12 0.49
13 0.06
14 0.4
15 0.15
16 0.15
2 -0.6
20 0.15
21 0.15
22 0.15
23 0.15
3 0.1
4 -0.04
5 -0.15
6 -0.15
7 0.14
8 -0.14
9 -0.15

> <PUBCHEM_EFFECTIVE_ROTOR_COUNT>
3

> <PUBCHEM_PHARMACOPHORE_FEATURES>
4
1 1 acceptor
1 2 cation
1 2 donor
6 3 5 6 9 10 11 rings

> <PUBCHEM_HEAVY_ATOM_COUNT>
13

> <PUBCHEM_ATOM_DEF_STEREO_COUNT>
0

> <PUBCHEM_ATOM_UDEF_STEREO_COUNT>
0

> <PUBCHEM_BOND_DEF_STEREO_COUNT>
0

> <PUBCHEM_BOND_UDEF_STEREO_COUNT>
1

> <PUBCHEM_ISOTOPIC_ATOM_COUNT>
0

> <PUBCHEM_COMPONENT_COUNT>
1

> <PUBCHEM_CACTVS_TAUTO_COUNT>
8

> <PUBCHEM_CONFORMER_ID>
0004F91500000001

> <PUBCHEM_MMFF94_ENERGY>
47.9109

> <PUBCHEM_FEATURE_SELFOVERLAP>
20.297

> <PUBCHEM_SHAPE_FINGERPRINT>
10980938 120 18187644669930993258
11543360 7 16916780842051030652
11715629 250 18341887498096415420
12162725 195 18338792312919261227
124424 183 14562797885157616935
12932764 1 18412829062157136641
13581323 91 11674880000221074527
13705890 14 16487262079822501660
14144814 61 18408884018742134657
14897335 6 18335415772723910666
15669948 3 18201709670177010023
15775835 57 18408609132176872637
18186145 218 18273218590373943312
19107657 47 17095515184730489744
20281407 28 9655306933700365756
20361792 2 12607406572235730018
20645464 45 15068344510136527073
20671657 1 18338231562094928378
20871999 31 17345742118705862807
21524375 3 18335420166649657706
22169311 14 13406786735765519364
2255824 54 17968658199150333114
22854114 111 18335136475290195056
23402539 116 18131060567708526276
23557571 272 17915746576763354487
23559900 14 17989486299723348222
4028521 119 18413387644113325053
474 4 17967256424703205780
5262128 65 17346055440575428992
57096353 35 18411129260404730759
6333272 397 18191023602370744048
7364860 26 18341047398647003274
8030462 33 18409730655453985883

> <PUBCHEM_SHAPE_MULTIPOLES>
256.68
7.15
1.7
0.94
0.75
0.05
0.04
-2.32
1.23
0.31
-0.44
0.51
0.02
-0.5

> <PUBCHEM_SHAPE_SELFOVERLAP>
523.606

> <PUBCHEM_SHAPE_VOLUME>
149.1

> <PUBCHEM_COORDINATE_TYPE>
2
5
10

$$$$
