76027
  -OEChem-11012401083D

 23 23  0     0  0  0  0  0  0999 V2000
    1.9056   -1.5471   -0.3015 O   0  0  0  0  0  0  0  0  0  0  0  0
   -3.0510    0.8349    0.0934 O   0  0  0  0  0  0  0  0  0  0  0  0
    1.5954    2.4304    0.6038 O   0  0  0  0  0  0  0  0  0  0  0  0
    2.8302    1.0211   -0.6829 O   0  0  0  0  0  0  0  0  0  0  0  0
    0.5812    0.4434   -0.1070 C   0  0  0  0  0  0  0  0  0  0  0  0
    0.6874   -0.9443   -0.2017 C   0  0  0  0  0  0  0  0  0  0  0  0
   -1.8250    0.2517   -0.0021 C   0  0  0  0  0  0  0  0  0  0  0  0
   -0.6752    1.0414   -0.0071 C   0  0  0  0  0  0  0  0  0  0  0  0
   -0.4626   -1.7337   -0.1967 C   0  0  0  0  0  0  0  0  0  0  0  0
   -1.7188   -1.1358   -0.0969 C   0  0  0  0  0  0  0  0  0  0  0  0
    1.7698    1.2851   -0.1094 C   0  0  0  0  0  0  0  0  0  0  0  0
    2.5476   -1.9154    0.9174 C   0  0  0  0  0  0  0  0  0  0  0  0
   -4.1845   -0.0318    0.0908 C   0  0  0  0  0  0  0  0  0  0  0  0
   -0.7851    2.1214    0.0552 H   0  0  0  0  0  0  0  0  0  0  0  0
   -0.3865   -2.8153   -0.2713 H   0  0  0  0  0  0  0  0  0  0  0  0
   -2.5699   -1.8082   -0.0993 H   0  0  0  0  0  0  0  0  0  0  0  0
    1.9605   -2.6756    1.4423 H   0  0  0  0  0  0  0  0  0  0  0  0
    2.6927   -1.0430    1.5623 H   0  0  0  0  0  0  0  0  0  0  0  0
    3.5270   -2.3366    0.6746 H   0  0  0  0  0  0  0  0  0  0  0  0
   -4.2690   -0.5810   -0.8532 H   0  0  0  0  0  0  0  0  0  0  0  0
   -5.0747    0.6003    0.1734 H   0  0  0  0  0  0  0  0  0  0  0  0
   -4.1837   -0.6980    0.9602 H   0  0  0  0  0  0  0  0  0  0  0  0
    2.4002    2.9913    0.5963 H   0  0  0  0  0  0  0  0  0  0  0  0
  1  6  1  0  0  0  0
  1 12  1  0  0  0  0
  2  7  1  0  0  0  0
  2 13  1  0  0  0  0
  3 11  1  0  0  0  0
  3 23  1  0  0  0  0
  4 11  2  0  0  0  0
  5  6  2  0  0  0  0
  5  8  1  0  0  0  0
  5 11  1  0  0  0  0
  6  9  1  0  0  0  0
  7  8  2  0  0  0  0
  7 10  1  0  0  0  0
  8 14  1  0  0  0  0
  9 10  2  0  0  0  0
  9 15  1  0  0  0  0
 10 16  1  0  0  0  0
 12 17  1  0  0  0  0
 12 18  1  0  0  0  0
 12 19  1  0  0  0  0
 13 20  1  0  0  0  0
 13 21  1  0  0  0  0
 13 22  1  0  0  0  0
M  END
> <PUBCHEM_COMPOUND_CID>
76027

> <PUBCHEM_CONFORMER_RMSD>
0.6

> <PUBCHEM_CONFORMER_DIVERSEORDER>
1
4
2
3

> <PUBCHEM_MMFF94_PARTIAL_CHARGES>
17
1 -0.36
10 -0.15
11 0.63
12 0.28
13 0.28
14 0.15
15 0.15
16 0.15
2 -0.36
23 0.5
3 -0.65
4 -0.57
5 0.09
6 0.08
7 0.08
8 -0.15
9 -0.15

> <PUBCHEM_EFFECTIVE_ROTOR_COUNT>
3

> <PUBCHEM_PHARMACOPHORE_FEATURES>
6
1 1 acceptor
1 2 acceptor
1 3 acceptor
1 4 acceptor
3 3 4 11 anion
6 5 6 7 8 9 10 rings

> <PUBCHEM_HEAVY_ATOM_COUNT>
13

> <PUBCHEM_ATOM_DEF_STEREO_COUNT>
0

> <PUBCHEM_ATOM_UDEF_STEREO_COUNT>
0

> <PUBCHEM_BOND_DEF_STEREO_COUNT>
0

> <PUBCHEM_BOND_UDEF_STEREO_COUNT>
0

> <PUBCHEM_ISOTOPIC_ATOM_COUNT>
0

> <PUBCHEM_COMPONENT_COUNT>
1

> <PUBCHEM_CACTVS_TAUTO_COUNT>
1

> <PUBCHEM_CONFORMER_ID>
000128FB00000001

> <PUBCHEM_MMFF94_ENERGY>
56.3241

> <PUBCHEM_FEATURE_SELFOVERLAP>
30.509

> <PUBCHEM_SHAPE_FINGERPRINT>
10130415 120 18263082119605016691
10980938 120 18411704283120635621
11471102 20 18411134702275844637
12644460 14 18261966179684966880
13380535 21 18335995267012675375
13380535 76 18410855511794662263
13922767 16 18265607698209468437
14325111 11 18410577284308898173
14897335 6 18340482369696853911
15490181 7 18053382385935100230
15775835 57 18338241560461944541
16945 1 18339075007450250117
193761 8 18267301117567204463
20511035 2 18335991955540279263
20559304 39 18411981325786152898
20645477 70 18410290277625592919
20871998 22 18053666875921200846
21040471 1 18266742561275227517
21501502 16 18410852204870434351
21501925 9 18338224977867579747
2297311 6 18052818040925260874
2334 1 18338234985188994975
23402655 69 18342452635063812613
23463225 33 18336544932463360651
23552423 10 18263083373777522190
241688 4 17332819244374006650
2748010 2 18338242668832688215
305870 269 18266167525684904912
5255222 1 18409724097097142172
528862 383 18334855013187843098
528886 8 18339923817563200761
53812653 166 18341613775646502336
53812654 25 18130494254389660023
63268167 104 18411424994461730801
7364860 26 18342738520449605430
81228 2 17330837920315281784

> <PUBCHEM_SHAPE_MULTIPOLES>
244.06
4.94
2.19
0.72
3.98
0.1
-0.05
0.16
-0.36
-1.73
-0.29
-0.27
-0.06
-0.33

> <PUBCHEM_SHAPE_SELFOVERLAP>
509.389

> <PUBCHEM_SHAPE_VOLUME>
139

> <PUBCHEM_COORDINATE_TYPE>
2
5
10

$$$$
