68075
  -OEChem-11012400493D

 14 15  0     0  0  0  0  0  0999 V2000
    1.9711   -0.8956    0.0002 O   0  0  0  0  0  0  0  0  0  0  0  0
    2.4076    1.3350   -0.0005 O   0  5  0  0  0  0  0  0  0  0  0  0
    1.5186    0.4546    0.0003 N   0  3  0  0  0  0  0  0  0  0  0  0
    0.8569   -1.7188    0.0000 N   0  0  0  0  0  0  0  0  0  0  0  0
    0.1883    0.4517    0.0001 C   0  0  0  0  0  0  0  0  0  0  0  0
   -0.2281   -0.9314   -0.0001 C   0  0  0  0  0  0  0  0  0  0  0  0
   -0.6516    1.5586    0.0002 C   0  0  0  0  0  0  0  0  0  0  0  0
   -1.5921   -1.2767   -0.0002 C   0  0  0  0  0  0  0  0  0  0  0  0
   -2.0099    1.1882    0.0000 C   0  0  0  0  0  0  0  0  0  0  0  0
   -2.4608   -0.1656   -0.0001 C   0  0  0  0  0  0  0  0  0  0  0  0
   -0.3240    2.5889    0.0003 H   0  0  0  0  0  0  0  0  0  0  0  0
   -1.9536   -2.2966   -0.0003 H   0  0  0  0  0  0  0  0  0  0  0  0
   -2.7611    1.9773    0.0001 H   0  0  0  0  0  0  0  0  0  0  0  0
   -3.5348   -0.3482   -0.0001 H   0  0  0  0  0  0  0  0  0  0  0  0
  1  3  1  0  0  0  0
  1  4  1  0  0  0  0
  2  3  1  0  0  0  0
  3  5  2  0  0  0  0
  4  6  2  0  0  0  0
  5  6  1  0  0  0  0
  5  7  1  0  0  0  0
  6  8  1  0  0  0  0
  7  9  2  0  0  0  0
  7 11  1  0  0  0  0
  8 10  2  0  0  0  0
  8 12  1  0  0  0  0
  9 10  1  0  0  0  0
  9 13  1  0  0  0  0
 10 14  1  0  0  0  0
M  CHG  2   2  -1   3   1
M  END
> <PUBCHEM_COMPOUND_CID>
68075

> <PUBCHEM_CONFORMER_RMSD>
0.4

> <PUBCHEM_CONFORMER_DIVERSEORDER>
1

> <PUBCHEM_MMFF94_PARTIAL_CHARGES>
14
1 -0.12
10 -0.15
11 0.15
12 0.15
13 0.15
14 0.15
2 -0.63
3 0.95
4 -0.41
5 -0.08
6 0.29
7 -0.15
8 -0.15
9 -0.15

> <PUBCHEM_EFFECTIVE_ROTOR_COUNT>
0

> <PUBCHEM_PHARMACOPHORE_FEATURES>
4
1 2 anion
1 4 acceptor
5 1 3 4 5 6 rings
6 5 6 7 8 9 10 rings

> <PUBCHEM_HEAVY_ATOM_COUNT>
10

> <PUBCHEM_ATOM_DEF_STEREO_COUNT>
0

> <PUBCHEM_ATOM_UDEF_STEREO_COUNT>
0

> <PUBCHEM_BOND_DEF_STEREO_COUNT>
0

> <PUBCHEM_BOND_UDEF_STEREO_COUNT>
0

> <PUBCHEM_ISOTOPIC_ATOM_COUNT>
0

> <PUBCHEM_COMPONENT_COUNT>
1

> <PUBCHEM_CACTVS_TAUTO_COUNT>
1

> <PUBCHEM_CONFORMER_ID>
000109EB00000001

> <PUBCHEM_MMFF94_ENERGY>
23.3618

> <PUBCHEM_FEATURE_SELFOVERLAP>
20.423

> <PUBCHEM_SHAPE_FINGERPRINT>
12423570 1 8619316128618213843
12897270 3 18410856581178020685
16945 1 18266459793671635687
18185500 45 18339359776941254903
21040471 1 18410573972298269221
23552423 10 18334016068551688742
2748010 2 18410576192922968455
29004967 10 18261399995869000283
5084963 1 18129374900149977203

> <PUBCHEM_SHAPE_MULTIPOLES>
184.09
3.04
1.79
0.58
0.3
0.04
0
-0.41
0
0.09
0
-0.07
-0.01
0

> <PUBCHEM_SHAPE_SELFOVERLAP>
399.422

> <PUBCHEM_SHAPE_VOLUME>
102

> <PUBCHEM_COORDINATE_TYPE>
2
5
10

$$$$
