78153
  -OEChem-11012401153D

 25 25  0     0  0  0  0  0  0999 V2000
    1.0006   -2.3751   -0.0004 O   0  0  0  0  0  0  0  0  0  0  0  0
    1.9820    0.3070    0.0001 C   0  0  0  0  0  0  0  0  0  0  0  0
    0.5265   -0.0256   -0.0007 C   0  0  0  0  0  0  0  0  0  0  0  0
    2.4065    1.0821    1.2611 C   0  0  0  0  0  0  0  0  0  0  0  0
    2.4079    1.0832   -1.2598 C   0  0  0  0  0  0  0  0  0  0  0  0
   -0.4098    1.0084   -0.0006 C   0  0  0  0  0  0  0  0  0  0  0  0
    0.0993   -1.3534   -0.0003 C   0  0  0  0  0  0  0  0  0  0  0  0
   -1.7733    0.7144    0.0000 C   0  0  0  0  0  0  0  0  0  0  0  0
   -1.2642   -1.6472    0.0003 C   0  0  0  0  0  0  0  0  0  0  0  0
   -2.2006   -0.6133    0.0003 C   0  0  0  0  0  0  0  0  0  0  0  0
   -2.7747    1.8195   -0.0001 C   0  0  0  0  0  0  0  0  0  0  0  0
    2.5768   -0.6146   -0.0001 H   0  0  0  0  0  0  0  0  0  0  0  0
    1.9387    2.0711    1.3129 H   0  0  0  0  0  0  0  0  0  0  0  0
    3.4922    1.2275    1.2747 H   0  0  0  0  0  0  0  0  0  0  0  0
    2.1300    0.5318    2.1674 H   0  0  0  0  0  0  0  0  0  0  0  0
    2.1324    0.5336   -2.1669 H   0  0  0  0  0  0  0  0  0  0  0  0
    3.4936    1.2287   -1.2721 H   0  0  0  0  0  0  0  0  0  0  0  0
    1.9398    2.0721   -1.3113 H   0  0  0  0  0  0  0  0  0  0  0  0
   -0.0892    2.0472    0.0011 H   0  0  0  0  0  0  0  0  0  0  0  0
   -1.6112   -2.6771    0.0011 H   0  0  0  0  0  0  0  0  0  0  0  0
   -3.2600   -0.8557    0.0026 H   0  0  0  0  0  0  0  0  0  0  0  0
   -2.4151    2.6752   -0.5816 H   0  0  0  0  0  0  0  0  0  0  0  0
   -3.7200    1.5001   -0.4519 H   0  0  0  0  0  0  0  0  0  0  0  0
   -2.9717    2.1480    1.0253 H   0  0  0  0  0  0  0  0  0  0  0  0
    0.5211   -3.2213   -0.0001 H   0  0  0  0  0  0  0  0  0  0  0  0
  1  7  1  0  0  0  0
  1 25  1  0  0  0  0
  2  3  1  0  0  0  0
  2  4  1  0  0  0  0
  2  5  1  0  0  0  0
  2 12  1  0  0  0  0
  3  6  1  0  0  0  0
  3  7  2  0  0  0  0
  4 13  1  0  0  0  0
  4 14  1  0  0  0  0
  4 15  1  0  0  0  0
  5 16  1  0  0  0  0
  5 17  1  0  0  0  0
  5 18  1  0  0  0  0
  6  8  2  0  0  0  0
  6 19  1  0  0  0  0
  7  9  1  0  0  0  0
  8 10  1  0  0  0  0
  8 11  1  0  0  0  0
  9 10  2  0  0  0  0
  9 20  1  0  0  0  0
 10 21  1  0  0  0  0
 11 22  1  0  0  0  0
 11 23  1  0  0  0  0
 11 24  1  0  0  0  0
M  END
> <PUBCHEM_COMPOUND_CID>
78153

> <PUBCHEM_CONFORMER_RMSD>
0.4

> <PUBCHEM_CONFORMER_DIVERSEORDER>
1
2
3

> <PUBCHEM_MMFF94_PARTIAL_CHARGES>
13
1 -0.53
10 -0.15
11 0.14
19 0.15
2 0.14
20 0.15
21 0.15
25 0.45
3 -0.14
6 -0.15
7 0.08
8 -0.14
9 -0.15

> <PUBCHEM_EFFECTIVE_ROTOR_COUNT>
1

> <PUBCHEM_PHARMACOPHORE_FEATURES>
3
1 1 donor
3 2 4 5 hydrophobe
6 3 6 7 8 9 10 rings

> <PUBCHEM_HEAVY_ATOM_COUNT>
11

> <PUBCHEM_ATOM_DEF_STEREO_COUNT>
0

> <PUBCHEM_ATOM_UDEF_STEREO_COUNT>
0

> <PUBCHEM_BOND_DEF_STEREO_COUNT>
0

> <PUBCHEM_BOND_UDEF_STEREO_COUNT>
0

> <PUBCHEM_ISOTOPIC_ATOM_COUNT>
0

> <PUBCHEM_COMPONENT_COUNT>
1

> <PUBCHEM_CACTVS_TAUTO_COUNT>
3

> <PUBCHEM_CONFORMER_ID>
0001314900000001

> <PUBCHEM_MMFF94_ENERGY>
26.686

> <PUBCHEM_FEATURE_SELFOVERLAP>
15.223

> <PUBCHEM_SHAPE_FINGERPRINT>
11206711 2 18339641264950528421
12423570 1 15883235106147323844
12716758 59 18341900739733562652
13380535 21 18339096886435642651
13380535 76 18337382760619138107
16945 1 18266741457690256359
193761 8 18338517439455269767
20511035 2 18267581316991213383
20645464 45 17845088648496039984
21040471 1 18410856555350142501
21501502 16 18338517435212829131
23211744 41 17773587402920127224
23552423 10 18334298621639206127
23559900 14 18201729423496144740
241688 4 16394655360501127619
2748010 2 18337677399755000655
369184 2 18059005219600812432
5084963 1 18129395941147267908
53812653 166 18343019952102272408
53812653 8 18117568537506463492
7364860 26 18056473954813237718
81228 2 17981044437843836939

> <PUBCHEM_SHAPE_MULTIPOLES>
220.51
3.78
2.12
0.9
0.16
0.8
0
-1.91
0
-0.6
0
0.73
-0.29
0

> <PUBCHEM_SHAPE_SELFOVERLAP>
450.887

> <PUBCHEM_SHAPE_VOLUME>
129.5

> <PUBCHEM_COORDINATE_TYPE>
2
5
10

$$$$
