24802025
  -OEChem-11012401263D

 45 46  0     1  0  0  0  0  0999 V2000
    0.3602   -0.3232   -0.0217 O   0  0  0  0  0  0  0  0  0  0  0  0
   -1.5939    0.2364   -1.2424 O   0  0  0  0  0  0  0  0  0  0  0  0
    3.1452   -0.4619    0.8420 O   0  0  0  0  0  0  0  0  0  0  0  0
    0.6156    2.2597   -1.0222 O   0  0  0  0  0  0  0  0  0  0  0  0
   -2.4211   -2.5267   -0.7881 O   0  0  0  0  0  0  0  0  0  0  0  0
   -3.1375   -2.0192    1.8898 O   0  0  0  0  0  0  0  0  0  0  0  0
   -4.2101   -0.4766   -0.1614 O   0  0  0  0  0  0  0  0  0  0  0  0
    1.3440    1.6930    1.6405 O   0  0  0  0  0  0  0  0  0  0  0  0
    4.6481    1.2565    0.2014 O   0  0  0  0  0  0  0  0  0  0  0  0
    3.6871   -2.9916   -0.5719 O   0  0  0  0  0  0  0  0  0  0  0  0
   -3.6658    2.8721    0.1276 O   0  0  0  0  0  0  0  0  0  0  0  0
    1.4622   -0.0010   -0.8692 C   0  0  1  0  0  0  0  0  0  0  0  0
    1.7800    1.4909   -0.7449 C   0  0  2  0  0  0  0  0  0  0  0  0
   -0.7454   -0.8174   -0.7710 C   0  0  2  0  0  0  0  0  0  0  0  0
    2.7007   -0.8178   -0.4742 C   0  0  2  0  0  0  0  0  0  0  0  0
   -1.5296   -1.8227    0.0749 C   0  0  1  0  0  0  0  0  0  0  0  0
   -2.3064   -1.1056    1.1838 C   0  0  1  0  0  0  0  0  0  0  0  0
   -3.1483    0.0483    0.6344 C   0  0  1  0  0  0  0  0  0  0  0  0
    2.3458    1.8399    0.6354 C   0  0  2  0  0  0  0  0  0  0  0  0
   -2.2547    0.9732   -0.2044 C   0  0  2  0  0  0  0  0  0  0  0  0
    3.5122    0.9151    0.9897 C   0  0  1  0  0  0  0  0  0  0  0  0
    2.4439   -2.3205   -0.4720 C   0  0  0  0  0  0  0  0  0  0  0  0
   -3.0322    2.0993   -0.8761 C   0  0  0  0  0  0  0  0  0  0  0  0
    1.2270   -0.2028   -1.9226 H   0  0  0  0  0  0  0  0  0  0  0  0
    2.5289    1.7572   -1.5016 H   0  0  0  0  0  0  0  0  0  0  0  0
   -0.4004   -1.3552   -1.6629 H   0  0  0  0  0  0  0  0  0  0  0  0
    3.5185   -0.6016   -1.1745 H   0  0  0  0  0  0  0  0  0  0  0  0
   -0.8631   -2.5659    0.5280 H   0  0  0  0  0  0  0  0  0  0  0  0
   -1.5851   -0.7028    1.9060 H   0  0  0  0  0  0  0  0  0  0  0  0
   -3.6133    0.5984    1.4602 H   0  0  0  0  0  0  0  0  0  0  0  0
   -1.5003    1.4206    0.4555 H   0  0  0  0  0  0  0  0  0  0  0  0
    2.6570    2.8909    0.6393 H   0  0  0  0  0  0  0  0  0  0  0  0
    3.7820    1.0555    2.0426 H   0  0  0  0  0  0  0  0  0  0  0  0
    1.8414   -2.6167   -1.3362 H   0  0  0  0  0  0  0  0  0  0  0  0
    1.9486   -2.6456    0.4487 H   0  0  0  0  0  0  0  0  0  0  0  0
   -3.7854    1.7126   -1.5709 H   0  0  0  0  0  0  0  0  0  0  0  0
   -2.3557    2.7417   -1.4502 H   0  0  0  0  0  0  0  0  0  0  0  0
    0.2961    2.0028   -1.9039 H   0  0  0  0  0  0  0  0  0  0  0  0
   -1.8823   -3.0207   -1.4294 H   0  0  0  0  0  0  0  0  0  0  0  0
   -3.5936   -1.5213    2.5895 H   0  0  0  0  0  0  0  0  0  0  0  0
   -4.7197   -1.0865    0.3989 H   0  0  0  0  0  0  0  0  0  0  0  0
    1.7330    1.9716    2.4870 H   0  0  0  0  0  0  0  0  0  0  0  0
    5.4366    0.9976    0.7078 H   0  0  0  0  0  0  0  0  0  0  0  0
    3.4991   -3.9457   -0.5729 H   0  0  0  0  0  0  0  0  0  0  0  0
   -4.1482    3.5861   -0.3228 H   0  0  0  0  0  0  0  0  0  0  0  0
  1 12  1  0  0  0  0
  1 14  1  0  0  0  0
  2 14  1  0  0  0  0
  2 20  1  0  0  0  0
  3 15  1  0  0  0  0
  3 21  1  0  0  0  0
  4 13  1  0  0  0  0
  4 38  1  0  0  0  0
  5 16  1  0  0  0  0
  5 39  1  0  0  0  0
  6 17  1  0  0  0  0
  6 40  1  0  0  0  0
  7 18  1  0  0  0  0
  7 41  1  0  0  0  0
  8 19  1  0  0  0  0
  8 42  1  0  0  0  0
  9 21  1  0  0  0  0
  9 43  1  0  0  0  0
 10 22  1  0  0  0  0
 10 44  1  0  0  0  0
 11 23  1  0  0  0  0
 11 45  1  0  0  0  0
 12 13  1  0  0  0  0
 12 15  1  0  0  0  0
 12 24  1  0  0  0  0
 13 19  1  0  0  0  0
 13 25  1  0  0  0  0
 14 16  1  0  0  0  0
 14 26  1  0  0  0  0
 15 22  1  0  0  0  0
 15 27  1  0  0  0  0
 16 17  1  0  0  0  0
 16 28  1  0  0  0  0
 17 18  1  0  0  0  0
 17 29  1  0  0  0  0
 18 20  1  0  0  0  0
 18 30  1  0  0  0  0
 19 21  1  0  0  0  0
 19 32  1  0  0  0  0
 20 23  1  0  0  0  0
 20 31  1  0  0  0  0
 21 33  1  0  0  0  0
 22 34  1  0  0  0  0
 22 35  1  0  0  0  0
 23 36  1  0  0  0  0
 23 37  1  0  0  0  0
M  END
> <PUBCHEM_COMPOUND_CID>
24802025

> <PUBCHEM_CONFORMER_RMSD>
0.8

> <PUBCHEM_CONFORMER_DIVERSEORDER>
1
116
35
238
225
187
314
349
158
305
216
93
62
90
241
286
115
31
292
182
343
26
273
208
288
96
312
111
234
345
327
223
109
86
11
137
78
318
124
204
284
27
163
226
251
183
256
74
166
154
348
203
281
293
162
313
258
326
247
307
236
179
47
139
65
15
84
339
303
298
71
45
224
300
263
104
83
242
129
272
33
341
178
94
181
243
260
333
220
95
342
170
50
232
70
275
202
171
150
308
269
36
329
64
207
296
279
97
215
153
346
250
222
135
85
201
8
81
192
252
42
337
253
280
89
53
205
210
117
195
9
315
185
142
48
5
278
309
25
245
59
290
173
134
233
82
291
310
317
28
299
76
321
30
54
66
165
311
330
332
22
219
69
340
227
75
118
194
169
103
304
133
114
140
119
10
189
306
126
212
287
217
174
248
20
112
347
175
88
322
167
334
87
218
49
17
136
61
316
107
200
213
259
276
121
249
191
52
100
172
128
44
58
18
72
198
297
152
120
271
184
188
336
221
264
270
228
67
230
344
4
285
24
106
180
113
21
331
244
295
151
186
239
168
294
99
157
127
266
141
79
262
240
130
131
246
301
29
38
335
338
60
282
91
32
13
138
14
143
57
324
39
206
235
199
148
257
302
268
176
19
274
211
55
40
267
6
255
237
159
105
122
155
132
16
68
164
123
190
231
265
144
146
214
320
56
46
34
12
145
261
73
125
197
7
161
254
177
209
325
92
193
63
101
156
277
289
229
51
2
77
147
149
319
23
37
328
102
196
323
160
108
283
43
110
3
41
98
80

> <PUBCHEM_MMFF94_PARTIAL_CHARGES>
31
1 -0.56
10 -0.68
11 -0.68
12 0.28
13 0.28
14 0.56
15 0.28
16 0.28
17 0.28
18 0.28
19 0.28
2 -0.56
20 0.28
21 0.56
22 0.28
23 0.28
3 -0.56
38 0.4
39 0.4
4 -0.68
40 0.4
41 0.4
42 0.4
43 0.4
44 0.4
45 0.4
5 -0.68
6 -0.68
7 -0.68
8 -0.68
9 -0.68

> <PUBCHEM_EFFECTIVE_ROTOR_COUNT>
6.4

> <PUBCHEM_PHARMACOPHORE_FEATURES>
21
1 1 acceptor
1 10 acceptor
1 10 donor
1 11 acceptor
1 11 donor
1 2 acceptor
1 3 acceptor
1 4 acceptor
1 4 donor
1 5 acceptor
1 5 donor
1 6 acceptor
1 6 donor
1 7 acceptor
1 7 donor
1 8 acceptor
1 8 donor
1 9 acceptor
1 9 donor
6 2 14 16 17 18 20 rings
6 3 12 13 15 19 21 rings

> <PUBCHEM_HEAVY_ATOM_COUNT>
23

> <PUBCHEM_ATOM_DEF_STEREO_COUNT>
6

> <PUBCHEM_ATOM_UDEF_STEREO_COUNT>
4

> <PUBCHEM_BOND_DEF_STEREO_COUNT>
0

> <PUBCHEM_BOND_UDEF_STEREO_COUNT>
0

> <PUBCHEM_ISOTOPIC_ATOM_COUNT>
0

> <PUBCHEM_COMPONENT_COUNT>
1

> <PUBCHEM_CACTVS_TAUTO_COUNT>
1

> <PUBCHEM_CONFORMER_ID>
017A72E900000001

> <PUBCHEM_MMFF94_ENERGY>
67.0115

> <PUBCHEM_FEATURE_SELFOVERLAP>
106.714

> <PUBCHEM_SHAPE_FINGERPRINT>
10366900 7 18340484590036716385
10922523 26 18409168809301793890
1100329 8 15887430816453733734
11680986 33 18410857616391720092
12077114 3 18410287021417838113
121448 382 12031789184185228468
12403259 415 18116151061445841109
12500047 106 18412255129946251412
12507560 18 17976826384800853803
12507560 40 18411140207875233270
12553582 1 17974582590991129943
12596599 1 17022914470545091489
13140716 1 18262515875712580522
13533116 47 18272086093851177087
13583140 156 17774150326850530603
14178342 30 18337944705545086770
14223421 5 18338519749867651947
14866123 147 16541308242841767154
15295992 7 18200036127590686665
16945 1 18264778837929659127
19049666 15 18410293566736695323
23419403 2 16908864122735427528
23558518 356 18335422344598659295
23559900 14 18333456447488033359
2748010 2 18409168774931558455
5104073 3 18337392638722016867
6049 1 18336840735403614975
7364860 26 18344148094435893014
81228 2 18114180878273682517
9709674 26 18408604764337628831
9981440 41 17768772641265187585

> <PUBCHEM_SHAPE_MULTIPOLES>
408.77
7.52
3.09
1.27
0.68
0.4
-0.34
-0.32
-1.13
-0.16
0.25
-0.25
0.03
1.35

> <PUBCHEM_SHAPE_SELFOVERLAP>
839.55

> <PUBCHEM_SHAPE_VOLUME>
229.5

> <PUBCHEM_COORDINATE_TYPE>
2
5
10

$$$$
