138944
  -OEChem-11012400303D

 48 50  0     0  0  0  0  0  0999 V2000
   -8.9327   -1.1016   -0.0846 O   0  0  0  0  0  0  0  0  0  0  0  0
    8.9327   -1.1017    0.0848 O   0  0  0  0  0  0  0  0  0  0  0  0
   -3.3603    2.1014   -0.9433 O   0  0  0  0  0  0  0  0  0  0  0  0
    3.3601    2.1012    0.9435 O   0  0  0  0  0  0  0  0  0  0  0  0
   -3.5058    0.0206    0.1312 N   0  0  0  0  0  0  0  0  0  0  0  0
    3.5059    0.0207   -0.1314 N   0  0  0  0  0  0  0  0  0  0  0  0
   -1.3838    1.1442   -0.1763 C   0  0  0  0  0  0  0  0  0  0  0  0
    1.3837    1.1441    0.1759 C   0  0  0  0  0  0  0  0  0  0  0  0
   -0.6919   -0.0637   -0.0884 C   0  0  0  0  0  0  0  0  0  0  0  0
    0.6918   -0.0638    0.0878 C   0  0  0  0  0  0  0  0  0  0  0  0
   -0.6919    2.3522   -0.0879 C   0  0  0  0  0  0  0  0  0  0  0  0
    0.6919    2.3521    0.0883 C   0  0  0  0  0  0  0  0  0  0  0  0
   -2.8262    1.1444   -0.3595 C   0  0  0  0  0  0  0  0  0  0  0  0
    2.8261    1.1443    0.3594 C   0  0  0  0  0  0  0  0  0  0  0  0
   -4.8920   -0.2657    0.0757 C   0  0  0  0  0  0  0  0  0  0  0  0
    4.8920   -0.2657   -0.0757 C   0  0  0  0  0  0  0  0  0  0  0  0
   -5.3606   -1.4454    0.6280 C   0  0  0  0  0  0  0  0  0  0  0  0
    5.3608   -1.4453   -0.6281 C   0  0  0  0  0  0  0  0  0  0  0  0
   -5.7466    0.6401   -0.5288 C   0  0  0  0  0  0  0  0  0  0  0  0
    5.7465    0.6400    0.5291 C   0  0  0  0  0  0  0  0  0  0  0  0
   -7.6009   -0.8263   -0.0311 C   0  0  0  0  0  0  0  0  0  0  0  0
    7.6010   -0.8263    0.0313 C   0  0  0  0  0  0  0  0  0  0  0  0
   -6.7255   -1.7279    0.5741 C   0  0  0  0  0  0  0  0  0  0  0  0
    6.7256   -1.7278   -0.5743 C   0  0  0  0  0  0  0  0  0  0  0  0
   -7.1115    0.3576   -0.5827 C   0  0  0  0  0  0  0  0  0  0  0  0
    7.1114    0.3576    0.5830 C   0  0  0  0  0  0  0  0  0  0  0  0
   -9.3659   -2.3297    0.4988 C   0  0  0  0  0  0  0  0  0  0  0  0
    9.3660   -2.3295   -0.4986 C   0  0  0  0  0  0  0  0  0  0  0  0
   -1.1817   -1.0284   -0.1821 H   0  0  0  0  0  0  0  0  0  0  0  0
    1.1817   -1.0285    0.1811 H   0  0  0  0  0  0  0  0  0  0  0  0
   -1.2123    3.3045   -0.1498 H   0  0  0  0  0  0  0  0  0  0  0  0
    1.2123    3.3044    0.1506 H   0  0  0  0  0  0  0  0  0  0  0  0
   -2.9697   -0.6835    0.6308 H   0  0  0  0  0  0  0  0  0  0  0  0
    2.9699   -0.6834   -0.6312 H   0  0  0  0  0  0  0  0  0  0  0  0
   -4.6866   -2.1541    1.1013 H   0  0  0  0  0  0  0  0  0  0  0  0
    4.6869   -2.1538   -1.1017 H   0  0  0  0  0  0  0  0  0  0  0  0
   -5.4463    1.5751   -0.9772 H   0  0  0  0  0  0  0  0  0  0  0  0
    5.4461    1.5749    0.9777 H   0  0  0  0  0  0  0  0  0  0  0  0
   -7.0380   -2.6653    1.0216 H   0  0  0  0  0  0  0  0  0  0  0  0
    7.0383   -2.6650   -1.0219 H   0  0  0  0  0  0  0  0  0  0  0  0
   -7.7898    1.0629   -1.0555 H   0  0  0  0  0  0  0  0  0  0  0  0
    7.7896    1.0628    1.0560 H   0  0  0  0  0  0  0  0  0  0  0  0
   -9.1734   -2.3529    1.5768 H   0  0  0  0  0  0  0  0  0  0  0  0
  -10.4514   -2.3851    0.3665 H   0  0  0  0  0  0  0  0  0  0  0  0
   -8.9362   -3.1943   -0.0184 H   0  0  0  0  0  0  0  0  0  0  0  0
   10.4515   -2.3850   -0.3663 H   0  0  0  0  0  0  0  0  0  0  0  0
    8.9364   -3.1943    0.0183 H   0  0  0  0  0  0  0  0  0  0  0  0
    9.1738   -2.3527   -1.5766 H   0  0  0  0  0  0  0  0  0  0  0  0
  1 21  1  0  0  0  0
  1 27  1  0  0  0  0
  2 22  1  0  0  0  0
  2 28  1  0  0  0  0
  3 13  2  0  0  0  0
  4 14  2  0  0  0  0
  5 13  1  0  0  0  0
  5 15  1  0  0  0  0
  5 33  1  0  0  0  0
  6 14  1  0  0  0  0
  6 16  1  0  0  0  0
  6 34  1  0  0  0  0
  7  9  2  0  0  0  0
  7 11  1  0  0  0  0
  7 13  1  0  0  0  0
  8 10  2  0  0  0  0
  8 12  1  0  0  0  0
  8 14  1  0  0  0  0
  9 10  1  0  0  0  0
  9 29  1  0  0  0  0
 10 30  1  0  0  0  0
 11 12  2  0  0  0  0
 11 31  1  0  0  0  0
 12 32  1  0  0  0  0
 15 17  2  0  0  0  0
 15 19  1  0  0  0  0
 16 18  2  0  0  0  0
 16 20  1  0  0  0  0
 17 23  1  0  0  0  0
 17 35  1  0  0  0  0
 18 24  1  0  0  0  0
 18 36  1  0  0  0  0
 19 25  2  0  0  0  0
 19 37  1  0  0  0  0
 20 26  2  0  0  0  0
 20 38  1  0  0  0  0
 21 23  2  0  0  0  0
 21 25  1  0  0  0  0
 22 24  2  0  0  0  0
 22 26  1  0  0  0  0
 23 39  1  0  0  0  0
 24 40  1  0  0  0  0
 25 41  1  0  0  0  0
 26 42  1  0  0  0  0
 27 43  1  0  0  0  0
 27 44  1  0  0  0  0
 27 45  1  0  0  0  0
 28 46  1  0  0  0  0
 28 47  1  0  0  0  0
 28 48  1  0  0  0  0
M  END
> <PUBCHEM_COMPOUND_CID>
138944

> <PUBCHEM_CONFORMER_RMSD>
1

> <PUBCHEM_CONFORMER_DIVERSEORDER>
1
3
2

> <PUBCHEM_MMFF94_PARTIAL_CHARGES>
42
1 -0.36
10 -0.15
11 -0.15
12 -0.15
13 0.54
14 0.54
15 0.12
16 0.12
17 -0.15
18 -0.15
19 -0.15
2 -0.36
20 -0.15
21 0.08
22 0.08
23 -0.15
24 -0.15
25 -0.15
26 -0.15
27 0.28
28 0.28
29 0.15
3 -0.57
30 0.15
31 0.15
32 0.15
33 0.37
34 0.37
35 0.15
36 0.15
37 0.15
38 0.15
39 0.15
4 -0.57
40 0.15
41 0.15
42 0.15
5 -0.55
6 -0.55
7 0.09
8 0.09
9 -0.15

> <PUBCHEM_EFFECTIVE_ROTOR_COUNT>
8

> <PUBCHEM_PHARMACOPHORE_FEATURES>
9
1 1 acceptor
1 2 acceptor
1 3 acceptor
1 4 acceptor
1 5 donor
1 6 donor
6 15 17 19 21 23 25 rings
6 16 18 20 22 24 26 rings
6 7 8 9 10 11 12 rings

> <PUBCHEM_HEAVY_ATOM_COUNT>
28

> <PUBCHEM_ATOM_DEF_STEREO_COUNT>
0

> <PUBCHEM_ATOM_UDEF_STEREO_COUNT>
0

> <PUBCHEM_BOND_DEF_STEREO_COUNT>
0

> <PUBCHEM_BOND_UDEF_STEREO_COUNT>
0

> <PUBCHEM_ISOTOPIC_ATOM_COUNT>
0

> <PUBCHEM_COMPONENT_COUNT>
1

> <PUBCHEM_CACTVS_TAUTO_COUNT>
3

> <PUBCHEM_CONFORMER_ID>
00021EC000000001

> <PUBCHEM_MMFF94_ENERGY>
113.5311

> <PUBCHEM_FEATURE_SELFOVERLAP>
45.673

> <PUBCHEM_SHAPE_FINGERPRINT>
10 15 11455892460103742677
10411042 1 18410575088974903333
10625338 86 13542466432078956803
11409948 41 15358243881390446634
11409948 8 18272077332903429368
11456790 92 16773803623484067779
11463208 3 18410858758674744447
11524674 6 17346878975064111527
11607047 141 11671796927912401876
11607047 74 18117283764839843924
12539745 222 17846503586611676601
13248334 5 18122062276048490048
13540713 5 15480674671676807564
13668630 136 18407759231094710520
13673619 4 18410855464423882625
13685833 64 18341894091335412432
13885169 127 18411981326345757249
14028597 1 15769784519681029251
14178184 131 18129379457512231759
14216079 64 18411699889369273787
14251764 18 17561365088696611328
14294032 229 16951676988335121381
14344974 52 8574709093089140859
14556957 393 15068627037385839087
15183329 4 15719392832385315940
15198563 99 16950548975398756229
15419008 91 18189875626063812956
15510794 2 18410853261104906247
155225 1 9295290538936472679
1754911 235 11891330963420150779
1818759 1 18410858758663389411
18335252 98 18413388740062812076
18603816 31 17632006555588930503
18608769 82 18410853265901403782
18643901 69 18040716961687806229
19301679 30 16916236464269309612
20105231 36 18410856559640536610
2026 5 18411418375733336374
20281389 69 11024113143900307728
20771845 65 18341896328676725209
21049683 271 18413390952309645112
21130935 74 18127692626808179906
21150785 3 16008748004711069772
21267235 1 18410855460128519076
21623969 137 17989490693258660222
232437 2 18410857663446800387
23559900 14 18190457363343084889
23576562 1 14924526254350802647
246663 6 18410576184174739174
2851757 41 18411145731204202327
3004659 81 17822007631391156457
3178227 256 17775004604694063590
3383291 50 18411136948053896842
439807 62 18408324389320821902
54039377 194 18411140234014361094
5758199 1 10735882772629255805
58083652 198 16343406367938420457
5937810 71 11747200348402549431
59682541 35 18131625691453378650
59755656 215 18187081741489747779
636775 8 18410863136100169270
9953998 17 12751519587949521525
9962374 69 18059000787184020204
999808 66 18413388722086462151

> <PUBCHEM_SHAPE_MULTIPOLES>
542.79
31.86
2.41
0.78
0
0.14
0
-27.55
0
0
0
0
0.02
2.32

> <PUBCHEM_SHAPE_SELFOVERLAP>
1177.141

> <PUBCHEM_SHAPE_VOLUME>
295.5

> <PUBCHEM_COORDINATE_TYPE>
2
5
10

$$$$
