54756
  -OEChem-11012401233D

 28 29  0     0  0  0  0  0  0999 V2000
    0.6509    1.6212   -0.2733 C   0  0  0  0  0  0  0  0  0  0  0  0
    0.0659    0.2384   -0.1291 C   0  0  0  0  0  0  0  0  0  0  0  0
    2.0781    1.7310    0.2601 C   0  0  0  0  0  0  0  0  0  0  0  0
    2.9279    0.5747   -0.2508 C   0  0  0  0  0  0  0  0  0  0  0  0
    2.3759   -0.7574    0.2539 C   0  0  0  0  0  0  0  0  0  0  0  0
    0.8834   -0.8880    0.0790 C   0  0  0  0  0  0  0  0  0  0  0  0
   -1.3203    0.0679   -0.2633 C   0  0  0  0  0  0  0  0  0  0  0  0
    0.2937   -2.1568    0.1846 C   0  0  0  0  0  0  0  0  0  0  0  0
   -2.2301    1.2267   -0.5222 C   0  0  0  0  0  0  0  0  0  0  0  0
   -1.8928   -1.1999   -0.1666 C   0  0  0  0  0  0  0  0  0  0  0  0
   -1.0865   -2.3115    0.0595 C   0  0  0  0  0  0  0  0  0  0  0  0
   -2.7461    1.8538    0.7683 C   0  0  0  0  0  0  0  0  0  0  0  0
    0.6490    1.8853   -1.3384 H   0  0  0  0  0  0  0  0  0  0  0  0
    0.0528    2.3655    0.2610 H   0  0  0  0  0  0  0  0  0  0  0  0
    2.5147    2.6868   -0.0505 H   0  0  0  0  0  0  0  0  0  0  0  0
    2.0692    1.7227    1.3575 H   0  0  0  0  0  0  0  0  0  0  0  0
    3.9656    0.6920    0.0809 H   0  0  0  0  0  0  0  0  0  0  0  0
    2.9379    0.5832   -1.3482 H   0  0  0  0  0  0  0  0  0  0  0  0
    2.6027   -0.8614    1.3224 H   0  0  0  0  0  0  0  0  0  0  0  0
    2.8863   -1.5719   -0.2738 H   0  0  0  0  0  0  0  0  0  0  0  0
    0.9106   -3.0337    0.3655 H   0  0  0  0  0  0  0  0  0  0  0  0
   -1.7478    1.9875   -1.1455 H   0  0  0  0  0  0  0  0  0  0  0  0
   -3.0898    0.8920   -1.1182 H   0  0  0  0  0  0  0  0  0  0  0  0
   -2.9666   -1.3368   -0.2645 H   0  0  0  0  0  0  0  0  0  0  0  0
   -1.5313   -3.2990    0.1393 H   0  0  0  0  0  0  0  0  0  0  0  0
   -3.3226    1.1299    1.3547 H   0  0  0  0  0  0  0  0  0  0  0  0
   -3.4024    2.6995    0.5394 H   0  0  0  0  0  0  0  0  0  0  0  0
   -1.9313    2.2188    1.4010 H   0  0  0  0  0  0  0  0  0  0  0  0
  1  2  1  0  0  0  0
  1  3  1  0  0  0  0
  1 13  1  0  0  0  0
  1 14  1  0  0  0  0
  2  6  2  0  0  0  0
  2  7  1  0  0  0  0
  3  4  1  0  0  0  0
  3 15  1  0  0  0  0
  3 16  1  0  0  0  0
  4  5  1  0  0  0  0
  4 17  1  0  0  0  0
  4 18  1  0  0  0  0
  5  6  1  0  0  0  0
  5 19  1  0  0  0  0
  5 20  1  0  0  0  0
  6  8  1  0  0  0  0
  7  9  1  0  0  0  0
  7 10  2  0  0  0  0
  8 11  2  0  0  0  0
  8 21  1  0  0  0  0
  9 12  1  0  0  0  0
  9 22  1  0  0  0  0
  9 23  1  0  0  0  0
 10 11  1  0  0  0  0
 10 24  1  0  0  0  0
 11 25  1  0  0  0  0
 12 26  1  0  0  0  0
 12 27  1  0  0  0  0
 12 28  1  0  0  0  0
M  END
> <PUBCHEM_COMPOUND_CID>
54756

> <PUBCHEM_CONFORMER_RMSD>
0.4

> <PUBCHEM_CONFORMER_DIVERSEORDER>
1
2
3

> <PUBCHEM_MMFF94_PARTIAL_CHARGES>
12
1 0.14
10 -0.15
11 -0.15
2 -0.14
21 0.15
24 0.15
25 0.15
5 0.14
6 -0.14
7 -0.14
8 -0.15
9 0.14

> <PUBCHEM_EFFECTIVE_ROTOR_COUNT>
1.8

> <PUBCHEM_PHARMACOPHORE_FEATURES>
3
1 12 hydrophobe
6 1 2 3 4 5 6 rings
6 2 6 7 8 10 11 rings

> <PUBCHEM_HEAVY_ATOM_COUNT>
12

> <PUBCHEM_ATOM_DEF_STEREO_COUNT>
0

> <PUBCHEM_ATOM_UDEF_STEREO_COUNT>
0

> <PUBCHEM_BOND_DEF_STEREO_COUNT>
0

> <PUBCHEM_BOND_UDEF_STEREO_COUNT>
0

> <PUBCHEM_ISOTOPIC_ATOM_COUNT>
0

> <PUBCHEM_COMPONENT_COUNT>
1

> <PUBCHEM_CACTVS_TAUTO_COUNT>
1

> <PUBCHEM_CONFORMER_ID>
0000D5E400000001

> <PUBCHEM_MMFF94_ENERGY>
22.8402

> <PUBCHEM_FEATURE_SELFOVERLAP>
15.244

> <PUBCHEM_SHAPE_FINGERPRINT>
100427 49 17187843662895662599
10967382 1 18194118512606349916
11206711 2 18264767838470934974
12423570 1 17832966270537818163
12491281 212 18409174311307965512
13380535 21 18337123297154556246
13380535 76 18410849941316927527
15775835 57 18334582321451057228
16945 1 18193555803371680670
193761 8 18410008840570442583
19973954 147 18266177421146980508
20510252 161 18125722528522823113
21040471 1 18409163329166084868
21501502 16 18409445929503400318
21524375 3 18337950095633928887
2334 1 18409444821185508166
23552423 10 17827072123909122590
23559900 14 18342464708607109454
241688 4 16609131608762716875
2748010 2 18409446990165215222
353137 74 18191291887449952695
5084963 1 18129101297790349754
528862 383 18118402830761660113
528886 8 18338229371502936040
53812653 166 18411980222005964088
63268167 104 18123746461530942241
66348 1 18336822099645752862
81228 2 18120090842992525059

> <PUBCHEM_SHAPE_MULTIPOLES>
246.95
3.85
2.6
0.72
0.53
0.61
-0.02
-1.76
-0.21
-0.75
-0.25
-0.15
-0.13
-0.26

> <PUBCHEM_SHAPE_SELFOVERLAP>
517.404

> <PUBCHEM_SHAPE_VOLUME>
134.9

> <PUBCHEM_COORDINATE_TYPE>
2
5
10

$$$$
