15939964
  -OEChem-11012400383D

 42 42  0     1  0  0  0  0  0999 V2000
    2.5884   -0.7137   -0.1678 N   0  0  0  0  0  0  0  0  0  0  0  0
    2.7460    2.5093    1.0009 N   0  0  0  0  0  0  0  0  0  0  0  0
   -3.8806   -0.1673    0.0422 C   0  0  0  0  0  0  0  0  0  0  0  0
   -2.3598    0.0137   -0.0949 C   0  0  0  0  0  0  0  0  0  0  0  0
    1.8286    0.5136   -0.4721 C   0  0  1  0  0  0  0  0  0  0  0  0
    0.3538    0.3370   -0.3390 C   0  0  0  0  0  0  0  0  0  0  0  0
   -4.2533   -1.6434   -0.2152 C   0  0  0  0  0  0  0  0  0  0  0  0
   -4.6053    0.7264   -0.9875 C   0  0  0  0  0  0  0  0  0  0  0  0
   -4.4312    0.2057    1.4374 C   0  0  0  0  0  0  0  0  0  0  0  0
   -1.7731   -0.2901   -1.2979 C   0  0  0  0  0  0  0  0  0  0  0  0
   -1.6580    0.4713    0.9922 C   0  0  0  0  0  0  0  0  0  0  0  0
   -0.3936   -0.1258   -1.4219 C   0  0  0  0  0  0  0  0  0  0  0  0
   -0.2785    0.6356    0.8680 C   0  0  0  0  0  0  0  0  0  0  0  0
    2.4482   -1.0494    1.2441 C   0  0  0  0  0  0  0  0  0  0  0  0
    3.9906   -0.5332   -0.5242 C   0  0  0  0  0  0  0  0  0  0  0  0
    3.1825   -2.3370    1.5777 C   0  0  0  0  0  0  0  0  0  0  0  0
    4.1425   -0.1830   -1.9949 C   0  0  0  0  0  0  0  0  0  0  0  0
    2.3527    1.6305    0.3527 C   0  0  0  0  0  0  0  0  0  0  0  0
    1.9690    0.8086   -1.5181 H   0  0  0  0  0  0  0  0  0  0  0  0
   -5.3289   -1.8077   -0.0808 H   0  0  0  0  0  0  0  0  0  0  0  0
   -4.0076   -1.9653   -1.2331 H   0  0  0  0  0  0  0  0  0  0  0  0
   -3.7258   -2.3101    0.4774 H   0  0  0  0  0  0  0  0  0  0  0  0
   -4.3670    0.4518   -2.0208 H   0  0  0  0  0  0  0  0  0  0  0  0
   -5.6937    0.6479   -0.8810 H   0  0  0  0  0  0  0  0  0  0  0  0
   -4.3334    1.7805   -0.8558 H   0  0  0  0  0  0  0  0  0  0  0  0
   -5.5177    0.0584    1.4784 H   0  0  0  0  0  0  0  0  0  0  0  0
   -4.0017   -0.4196    2.2290 H   0  0  0  0  0  0  0  0  0  0  0  0
   -4.2497    1.2589    1.6824 H   0  0  0  0  0  0  0  0  0  0  0  0
   -2.3338   -0.6519   -2.1528 H   0  0  0  0  0  0  0  0  0  0  0  0
   -2.0961    0.7153    1.9515 H   0  0  0  0  0  0  0  0  0  0  0  0
    0.0858   -0.3652   -2.3677 H   0  0  0  0  0  0  0  0  0  0  0  0
    0.2687    0.9876    1.7380 H   0  0  0  0  0  0  0  0  0  0  0  0
    2.8105   -0.2726    1.9275 H   0  0  0  0  0  0  0  0  0  0  0  0
    1.4018   -1.2497    1.4933 H   0  0  0  0  0  0  0  0  0  0  0  0
    4.5178    0.2019    0.0960 H   0  0  0  0  0  0  0  0  0  0  0  0
    4.5262   -1.4813   -0.4018 H   0  0  0  0  0  0  0  0  0  0  0  0
    2.9444   -3.1360    0.8670 H   0  0  0  0  0  0  0  0  0  0  0  0
    4.2682   -2.2031    1.6113 H   0  0  0  0  0  0  0  0  0  0  0  0
    2.8800   -2.6857    2.5718 H   0  0  0  0  0  0  0  0  0  0  0  0
    3.5117   -0.8101   -2.6345 H   0  0  0  0  0  0  0  0  0  0  0  0
    3.9336    0.8706   -2.2039 H   0  0  0  0  0  0  0  0  0  0  0  0
    5.1807   -0.3541   -2.3030 H   0  0  0  0  0  0  0  0  0  0  0  0
  1  5  1  0  0  0  0
  1 14  1  0  0  0  0
  1 15  1  0  0  0  0
  2 18  3  0  0  0  0
  3  4  1  0  0  0  0
  3  7  1  0  0  0  0
  3  8  1  0  0  0  0
  3  9  1  0  0  0  0
  4 10  2  0  0  0  0
  4 11  1  0  0  0  0
  5  6  1  0  0  0  0
  5 18  1  0  0  0  0
  5 19  1  0  0  0  0
  6 12  2  0  0  0  0
  6 13  1  0  0  0  0
  7 20  1  0  0  0  0
  7 21  1  0  0  0  0
  7 22  1  0  0  0  0
  8 23  1  0  0  0  0
  8 24  1  0  0  0  0
  8 25  1  0  0  0  0
  9 26  1  0  0  0  0
  9 27  1  0  0  0  0
  9 28  1  0  0  0  0
 10 12  1  0  0  0  0
 10 29  1  0  0  0  0
 11 13  2  0  0  0  0
 11 30  1  0  0  0  0
 12 31  1  0  0  0  0
 13 32  1  0  0  0  0
 14 16  1  0  0  0  0
 14 33  1  0  0  0  0
 14 34  1  0  0  0  0
 15 17  1  0  0  0  0
 15 35  1  0  0  0  0
 15 36  1  0  0  0  0
 16 37  1  0  0  0  0
 16 38  1  0  0  0  0
 16 39  1  0  0  0  0
 17 40  1  0  0  0  0
 17 41  1  0  0  0  0
 17 42  1  0  0  0  0
M  END
> <PUBCHEM_COMPOUND_CID>
15939964

> <PUBCHEM_CONFORMER_RMSD>
0.6

> <PUBCHEM_CONFORMER_DIVERSEORDER>
6
12
10
8
1
7
14
4
13
9
15
2
3
5
16
11

> <PUBCHEM_MMFF94_PARTIAL_CHARGES>
17
1 -0.81
10 -0.15
11 -0.15
12 -0.15
13 -0.15
14 0.27
15 0.27
18 0.36
2 -0.56
29 0.15
3 0.14
30 0.15
31 0.15
32 0.15
4 -0.14
5 0.61
6 -0.14

> <PUBCHEM_EFFECTIVE_ROTOR_COUNT>
5

> <PUBCHEM_PHARMACOPHORE_FEATURES>
4
1 1 cation
1 2 acceptor
4 3 7 8 9 hydrophobe
6 4 6 10 11 12 13 rings

> <PUBCHEM_HEAVY_ATOM_COUNT>
18

> <PUBCHEM_ATOM_DEF_STEREO_COUNT>
0

> <PUBCHEM_ATOM_UDEF_STEREO_COUNT>
1

> <PUBCHEM_BOND_DEF_STEREO_COUNT>
0

> <PUBCHEM_BOND_UDEF_STEREO_COUNT>
0

> <PUBCHEM_ISOTOPIC_ATOM_COUNT>
0

> <PUBCHEM_COMPONENT_COUNT>
1

> <PUBCHEM_CACTVS_TAUTO_COUNT>
1

> <PUBCHEM_CONFORMER_ID>
00F3397C00000006

> <PUBCHEM_MMFF94_ENERGY>
57.1173

> <PUBCHEM_FEATURE_SELFOVERLAP>
20.297

> <PUBCHEM_SHAPE_FINGERPRINT>
10498660 4 14201396084236000783
11132069 177 16343695530752927271
11405975 8 18335978701735310601
12616999 72 17240489117415944326
12644460 14 17917155016825145216
12670546 177 15357986732228044183
12670546 56 18410849963198049817
12932764 1 18335133202467054309
13296908 3 18187919599593998125
13533116 47 18187642467193337891
13538477 17 17488736908163589868
13583140 156 18338790234524264013
13675066 3 16630526224065010687
13760787 19 18333172760772009279
13760787 5 17418378025784822677
14289901 80 18187082910010839897
15375358 24 15647061481532409806
15375462 189 18335700516460896986
16752209 62 17703507684350879401
16945 1 18130220463114534917
17349148 13 17203602679899821805
17804303 29 15984833584157917046
1813 80 17987804004114982094
18186145 218 18411983580902498001
19026448 4 18335415807547807749
19078846 21 18270398265929288280
19422 9 17917997221599855145
200 152 17821733814509575894
20281475 54 17748543745059766711
20559304 39 17418095433900356736
20645477 70 18273214230897534109
22485316 2 18040995129086154479
2255824 54 18410013277746120764
23402539 116 14907899323778108677
23526113 38 16950568740215590120
23557571 272 16806142415850053532
23559900 14 17632300072804053750
268830 7 18131355228388251929
3286 77 18187916249313701082
351380 180 13686296838047820139
42 15 16056605322146848526
474 4 18124307466033490496
5104073 3 17846223297356935491
633830 44 17988927777654317045
7364860 26 17274821406901429624
9841814 1 18342734105518676688
9981440 41 16405609310124680296

> <PUBCHEM_SHAPE_MULTIPOLES>
360.47
9.43
1.71
1.62
4.57
1.01
0.07
1.28
-1.3
-1.76
0.46
-0.59
-0.48
0.06

> <PUBCHEM_SHAPE_SELFOVERLAP>
732.63

> <PUBCHEM_SHAPE_VOLUME>
210.2

> <PUBCHEM_COORDINATE_TYPE>
2
5
10

$$$$
