22691
  -OEChem-11012400343D

 16 16  0     0  0  0  0  0  0999 V2000
    3.5265   -0.7278    0.0015 Cl  0  0  0  0  0  0  0  0  0  0  0  0
   -3.0993   -0.9217    0.0010 O   0  5  0  0  0  0  0  0  0  0  0  0
   -2.8147    1.2550    0.0002 O   0  0  0  0  0  0  0  0  0  0  0  0
   -2.3540    0.0878    0.0003 N   0  3  0  0  0  0  0  0  0  0  0  0
    2.1193    1.9708    0.0017 N   0  0  0  0  0  0  0  0  0  0  0  0
   -0.9461   -0.0962   -0.0002 C   0  0  0  0  0  0  0  0  0  0  0  0
    1.2854    0.8298   -0.0018 C   0  0  0  0  0  0  0  0  0  0  0  0
   -0.0976    1.0109   -0.0012 C   0  0  0  0  0  0  0  0  0  0  0  0
   -0.4114   -1.3845    0.0001 C   0  0  0  0  0  0  0  0  0  0  0  0
    1.8201   -0.4585   -0.0012 C   0  0  0  0  0  0  0  0  0  0  0  0
    0.9717   -1.5657   -0.0004 C   0  0  0  0  0  0  0  0  0  0  0  0
   -0.4931    2.0245   -0.0009 H   0  0  0  0  0  0  0  0  0  0  0  0
   -1.0416   -2.2702    0.0009 H   0  0  0  0  0  0  0  0  0  0  0  0
    1.3726   -2.5762    0.0004 H   0  0  0  0  0  0  0  0  0  0  0  0
    1.7144    2.8974   -0.0061 H   0  0  0  0  0  0  0  0  0  0  0  0
    3.1243    1.8571   -0.0054 H   0  0  0  0  0  0  0  0  0  0  0  0
  1 10  1  0  0  0  0
  2  4  1  0  0  0  0
  3  4  2  0  0  0  0
  4  6  1  0  0  0  0
  5  7  1  0  0  0  0
  5 15  1  0  0  0  0
  5 16  1  0  0  0  0
  6  8  2  0  0  0  0
  6  9  1  0  0  0  0
  7  8  1  0  0  0  0
  7 10  2  0  0  0  0
  8 12  1  0  0  0  0
  9 11  2  0  0  0  0
  9 13  1  0  0  0  0
 10 11  1  0  0  0  0
 11 14  1  0  0  0  0
M  CHG  2   2  -1   4   1
M  END
> <PUBCHEM_COMPOUND_CID>
22691

> <PUBCHEM_CONFORMER_RMSD>
0.4

> <PUBCHEM_CONFORMER_DIVERSEORDER>
1

> <PUBCHEM_MMFF94_PARTIAL_CHARGES>
16
1 -0.18
10 0.18
11 -0.15
12 0.15
13 0.15
14 0.15
15 0.4
16 0.4
2 -0.52
3 -0.52
4 0.91
5 -0.9
6 0.13
7 0.1
8 -0.15
9 -0.15

> <PUBCHEM_EFFECTIVE_ROTOR_COUNT>
1

> <PUBCHEM_PHARMACOPHORE_FEATURES>
6
1 2 acceptor
1 2 anion
1 3 acceptor
1 5 cation
1 5 donor
6 6 7 8 9 10 11 rings

> <PUBCHEM_HEAVY_ATOM_COUNT>
11

> <PUBCHEM_ATOM_DEF_STEREO_COUNT>
0

> <PUBCHEM_ATOM_UDEF_STEREO_COUNT>
0

> <PUBCHEM_BOND_DEF_STEREO_COUNT>
0

> <PUBCHEM_BOND_UDEF_STEREO_COUNT>
0

> <PUBCHEM_ISOTOPIC_ATOM_COUNT>
0

> <PUBCHEM_COMPONENT_COUNT>
1

> <PUBCHEM_CACTVS_TAUTO_COUNT>
1

> <PUBCHEM_CONFORMER_ID>
000058A300000001

> <PUBCHEM_MMFF94_ENERGY>
40.2782

> <PUBCHEM_FEATURE_SELFOVERLAP>
30.528

> <PUBCHEM_SHAPE_FINGERPRINT>
12032990 46 18340211786947532182
12932764 1 17458336421120447851
13380535 76 18194396925730262506
14325111 11 18410574019553569409
16945 1 18410855417241922278
193761 8 17978229692630088870
19973954 147 18410576180196477881
20201158 50 18337389340277030903
21040471 1 18266459995577277124
21501502 16 18267866279512977910
23402655 69 18124015855376865349
23463225 33 18263641767240394090
23552423 10 18407760343607343207
241688 4 17691412910405958098
2748010 2 18265899244678824934
5084963 1 18272932730166882851
528886 8 18339073787705970403
53812653 166 18340762637840476064

> <PUBCHEM_SHAPE_MULTIPOLES>
206.54
4.6
1.73
0.59
0.64
0.32
0
-0.16
0
-0.4
0
-0.07
-0.02
0

> <PUBCHEM_SHAPE_SELFOVERLAP>
424.804

> <PUBCHEM_SHAPE_VOLUME>
120.5

> <PUBCHEM_COORDINATE_TYPE>
2
5
10

$$$$
