522585
  -OEChem-11012400333D

 22 21  0     0  0  0  0  0  0999 V2000
   -1.2818   -0.9466    0.4737 S   0  0  0  0  0  0  0  0  0  0  0  0
    1.5136   -0.1444    0.9205 S   0  0  0  0  0  0  0  0  0  0  0  0
   -0.2744    1.5066   -0.1455 N   0  0  0  0  0  0  0  0  0  0  0  0
   -2.7001   -0.0830   -0.2412 C   0  0  0  0  0  0  0  0  0  0  0  0
    2.2523   -0.8432   -0.5718 C   0  0  0  0  0  0  0  0  0  0  0  0
   -0.0821    0.3313    0.3403 C   0  0  0  0  0  0  0  0  0  0  0  0
   -3.9133   -0.9927   -0.2808 C   0  0  0  0  0  0  0  0  0  0  0  0
    3.6732   -1.2991   -0.2999 C   0  0  0  0  0  0  0  0  0  0  0  0
    0.8126    2.4710   -0.1953 C   0  0  0  0  0  0  0  0  0  0  0  0
   -2.9295    0.8040    0.3584 H   0  0  0  0  0  0  0  0  0  0  0  0
   -2.4584    0.2406   -1.2588 H   0  0  0  0  0  0  0  0  0  0  0  0
    1.6517   -1.6941   -0.9087 H   0  0  0  0  0  0  0  0  0  0  0  0
    2.2512   -0.0949   -1.3699 H   0  0  0  0  0  0  0  0  0  0  0  0
   -3.7307   -1.8807   -0.8957 H   0  0  0  0  0  0  0  0  0  0  0  0
   -4.2052   -1.3182    0.7235 H   0  0  0  0  0  0  0  0  0  0  0  0
   -4.7652   -0.4594   -0.7157 H   0  0  0  0  0  0  0  0  0  0  0  0
    4.3101   -0.4651    0.0140 H   0  0  0  0  0  0  0  0  0  0  0  0
    3.7064   -2.0739    0.4737 H   0  0  0  0  0  0  0  0  0  0  0  0
    4.1092   -1.7231   -1.2107 H   0  0  0  0  0  0  0  0  0  0  0  0
    1.2207    2.6921    0.7965 H   0  0  0  0  0  0  0  0  0  0  0  0
    0.4159    3.4160   -0.5820 H   0  0  0  0  0  0  0  0  0  0  0  0
    1.6078    2.1655   -0.8820 H   0  0  0  0  0  0  0  0  0  0  0  0
  1  4  1  0  0  0  0
  1  6  1  0  0  0  0
  2  5  1  0  0  0  0
  2  6  1  0  0  0  0
  3  6  2  0  0  0  0
  3  9  1  0  0  0  0
  4  7  1  0  0  0  0
  4 10  1  0  0  0  0
  4 11  1  0  0  0  0
  5  8  1  0  0  0  0
  5 12  1  0  0  0  0
  5 13  1  0  0  0  0
  7 14  1  0  0  0  0
  7 15  1  0  0  0  0
  7 16  1  0  0  0  0
  8 17  1  0  0  0  0
  8 18  1  0  0  0  0
  8 19  1  0  0  0  0
  9 20  1  0  0  0  0
  9 21  1  0  0  0  0
  9 22  1  0  0  0  0
M  END
> <PUBCHEM_COMPOUND_CID>
522585

> <PUBCHEM_CONFORMER_RMSD>
0.6

> <PUBCHEM_CONFORMER_DIVERSEORDER>
2
47
37
30
49
26
46
4
39
44
1
41
42
48
17
20
43
35
31
5
15
34
16
36
27
25
11
23
40
7
45
9
22
33
8
24
12
10
38
32
3
21
13
14
6
19
18
29
28

> <PUBCHEM_MMFF94_PARTIAL_CHARGES>
7
1 -0.37
2 -0.37
3 -0.7
4 0.23
5 0.23
6 0.73
9 0.25

> <PUBCHEM_EFFECTIVE_ROTOR_COUNT>
4

> <PUBCHEM_PHARMACOPHORE_FEATURES>
3
1 3 acceptor
1 7 hydrophobe
1 8 hydrophobe

> <PUBCHEM_HEAVY_ATOM_COUNT>
9

> <PUBCHEM_ATOM_DEF_STEREO_COUNT>
0

> <PUBCHEM_ATOM_UDEF_STEREO_COUNT>
0

> <PUBCHEM_BOND_DEF_STEREO_COUNT>
0

> <PUBCHEM_BOND_UDEF_STEREO_COUNT>
0

> <PUBCHEM_ISOTOPIC_ATOM_COUNT>
0

> <PUBCHEM_COMPONENT_COUNT>
1

> <PUBCHEM_CACTVS_TAUTO_COUNT>
1

> <PUBCHEM_CONFORMER_ID>
0007F95900000002

> <PUBCHEM_MMFF94_ENERGY>
14.5982

> <PUBCHEM_FEATURE_SELFOVERLAP>
15.223

> <PUBCHEM_SHAPE_FINGERPRINT>
12932741 1 17677050286607656771
12932764 1 17386552670398490683
14390081 3 7997697510481211203
15477762 27 18341046440679177847
15775835 57 8286199444076375647
161256 15 18261384593990163413
20645477 70 18192700362441629167
20653085 51 13985247508563197790
20671657 53 18410860957691581941
20711978 1 18413673504499304768
20711978 78 18197200649989708101
20711985 327 18273221893150799516
20711985 344 18192710038343193936
20871998 22 18411974758833885424
20871999 31 18262236616738190485
21293036 1 18113620092345741059
23402539 116 18263640680603047318
23532345 42 18341602733522876810
58734985 102 18340214084533223300
58734987 36 18335702762575519580
7364860 26 18198059385650623937

> <PUBCHEM_SHAPE_MULTIPOLES>
187.93
5.73
1.98
0.84
2.09
1.58
-0.11
-3.84
1.22
-0.85
0.26
-0.21
-0.09
0.18

> <PUBCHEM_SHAPE_SELFOVERLAP>
311.976

> <PUBCHEM_SHAPE_VOLUME>
130.2

> <PUBCHEM_COORDINATE_TYPE>
2
5
10

$$$$
