78654
  -OEChem-11012400553D

 29 29  0     0  0  0  0  0  0999 V2000
   -0.4237   -0.3503    0.2047 N   0  0  0  0  0  0  0  0  0  0  0  0
   -0.7140    0.9723   -0.3664 C   0  0  0  0  0  0  0  0  0  0  0  0
   -1.4715   -1.3205   -0.1428 C   0  0  0  0  0  0  0  0  0  0  0  0
   -2.0570    1.5065    0.1338 C   0  0  0  0  0  0  0  0  0  0  0  0
   -2.8393   -0.8613    0.3649 C   0  0  0  0  0  0  0  0  0  0  0  0
   -3.1877    0.5269   -0.1596 C   0  0  0  0  0  0  0  0  0  0  0  0
    0.8840   -0.8262   -0.2457 C   0  0  0  0  0  0  0  0  0  0  0  0
    1.9845    0.1248    0.2218 C   0  0  0  0  0  0  0  0  0  0  0  0
    3.3635   -0.3658   -0.2208 C   0  0  0  0  0  0  0  0  0  0  0  0
    4.4613    0.5937    0.2101 C   0  0  0  0  0  0  0  0  0  0  0  0
   -0.7143    0.9372   -1.4637 H   0  0  0  0  0  0  0  0  0  0  0  0
    0.0151    1.7253   -0.0578 H   0  0  0  0  0  0  0  0  0  0  0  0
   -1.2468   -2.2911    0.3161 H   0  0  0  0  0  0  0  0  0  0  0  0
   -1.5155   -1.4758   -1.2289 H   0  0  0  0  0  0  0  0  0  0  0  0
   -2.2729    2.4707   -0.3405 H   0  0  0  0  0  0  0  0  0  0  0  0
   -2.0023    1.6871    1.2151 H   0  0  0  0  0  0  0  0  0  0  0  0
   -2.8384   -0.8479    1.4623 H   0  0  0  0  0  0  0  0  0  0  0  0
   -3.6088   -1.5773    0.0548 H   0  0  0  0  0  0  0  0  0  0  0  0
   -4.1190    0.8792    0.2971 H   0  0  0  0  0  0  0  0  0  0  0  0
   -3.3573    0.4773   -1.2422 H   0  0  0  0  0  0  0  0  0  0  0  0
    0.9136   -0.9304   -1.3382 H   0  0  0  0  0  0  0  0  0  0  0  0
    1.0803   -1.8181    0.1806 H   0  0  0  0  0  0  0  0  0  0  0  0
    1.9601    0.2245    1.3141 H   0  0  0  0  0  0  0  0  0  0  0  0
    1.8711    1.1253   -0.2048 H   0  0  0  0  0  0  0  0  0  0  0  0
    3.3899   -0.4736   -1.3115 H   0  0  0  0  0  0  0  0  0  0  0  0
    3.5614   -1.3551    0.2080 H   0  0  0  0  0  0  0  0  0  0  0  0
    5.4385    0.2198   -0.1111 H   0  0  0  0  0  0  0  0  0  0  0  0
    4.3148    1.5838   -0.2331 H   0  0  0  0  0  0  0  0  0  0  0  0
    4.4809    0.7037    1.2991 H   0  0  0  0  0  0  0  0  0  0  0  0
  1  2  1  0  0  0  0
  1  3  1  0  0  0  0
  1  7  1  0  0  0  0
  2  4  1  0  0  0  0
  2 11  1  0  0  0  0
  2 12  1  0  0  0  0
  3  5  1  0  0  0  0
  3 13  1  0  0  0  0
  3 14  1  0  0  0  0
  4  6  1  0  0  0  0
  4 15  1  0  0  0  0
  4 16  1  0  0  0  0
  5  6  1  0  0  0  0
  5 17  1  0  0  0  0
  5 18  1  0  0  0  0
  6 19  1  0  0  0  0
  6 20  1  0  0  0  0
  7  8  1  0  0  0  0
  7 21  1  0  0  0  0
  7 22  1  0  0  0  0
  8  9  1  0  0  0  0
  8 23  1  0  0  0  0
  8 24  1  0  0  0  0
  9 10  1  0  0  0  0
  9 25  1  0  0  0  0
  9 26  1  0  0  0  0
 10 27  1  0  0  0  0
 10 28  1  0  0  0  0
 10 29  1  0  0  0  0
M  END
> <PUBCHEM_COMPOUND_CID>
78654

> <PUBCHEM_CONFORMER_RMSD>
0.6

> <PUBCHEM_CONFORMER_DIVERSEORDER>
1
13
21
12
14
22
5
20
10
11
16
9
8
17
7
18
4
6
3
2
15
19

> <PUBCHEM_MMFF94_PARTIAL_CHARGES>
4
1 -0.81
2 0.27
3 0.27
7 0.27

> <PUBCHEM_EFFECTIVE_ROTOR_COUNT>
4.2

> <PUBCHEM_PHARMACOPHORE_FEATURES>
3
1 1 cation
1 10 hydrophobe
6 1 2 3 4 5 6 rings

> <PUBCHEM_HEAVY_ATOM_COUNT>
10

> <PUBCHEM_ATOM_DEF_STEREO_COUNT>
0

> <PUBCHEM_ATOM_UDEF_STEREO_COUNT>
0

> <PUBCHEM_BOND_DEF_STEREO_COUNT>
0

> <PUBCHEM_BOND_UDEF_STEREO_COUNT>
0

> <PUBCHEM_ISOTOPIC_ATOM_COUNT>
0

> <PUBCHEM_COMPONENT_COUNT>
1

> <PUBCHEM_CACTVS_TAUTO_COUNT>
1

> <PUBCHEM_CONFORMER_ID>
0001333E00000001

> <PUBCHEM_MMFF94_ENERGY>
-0.283

> <PUBCHEM_FEATURE_SELFOVERLAP>
15.223

> <PUBCHEM_SHAPE_FINGERPRINT>
11062470 55 15502374521492568134
11132069 177 18335420166591486036
12932764 1 17417800751872778486
13024252 1 14345794937969554533
14144814 61 18334856091483090858
14325111 11 18411138004926314518
14390081 3 18341612577281814520
15219456 202 18201728297202149030
15775835 57 18261111824874881256
190213 19 17821730533249513694
20201158 50 18202002114157036718
20645464 45 18131357396971786879
20645477 70 17274548620595976254
20871998 184 18272093841803478207
23402539 116 18411973689803974663
6333449 129 18413106160688714671
75552 356 18335140907796658119

> <PUBCHEM_SHAPE_MULTIPOLES>
200.81
6.88
1.35
0.67
6.76
0.1
0
0.97
0.41
-0.85
-0.01
-0.01
0
0.19

> <PUBCHEM_SHAPE_SELFOVERLAP>
376.186

> <PUBCHEM_SHAPE_VOLUME>
126.5

> <PUBCHEM_COORDINATE_TYPE>
2
5
10

$$$$
