140691
  -OEChem-11012401033D

 25 26  0     0  0  0  0  0  0999 V2000
    1.1162    0.0000   -0.1313 C   0  0  0  0  0  0  0  0  0  0  0  0
   -1.1161    0.0000   -0.1313 C   0  0  0  0  0  0  0  0  0  0  0  0
    0.0000   -0.0002   -1.1819 C   0  0  0  0  0  0  0  0  0  0  0  0
   -0.7681   -1.2525    0.7007 C   0  0  0  0  0  0  0  0  0  0  0  0
    0.7682   -1.2527    0.7003 C   0  0  0  0  0  0  0  0  0  0  0  0
   -0.7682    1.2529    0.7001 C   0  0  0  0  0  0  0  0  0  0  0  0
    0.7681    1.2526    0.7005 C   0  0  0  0  0  0  0  0  0  0  0  0
    2.5267    0.0001   -0.6786 C   0  0  0  0  0  0  0  0  0  0  0  0
   -2.5267   -0.0001   -0.6786 C   0  0  0  0  0  0  0  0  0  0  0  0
    0.0000    0.8941   -1.8155 H   0  0  0  0  0  0  0  0  0  0  0  0
    0.0000   -0.8946   -1.8153 H   0  0  0  0  0  0  0  0  0  0  0  0
   -1.1753   -1.2082    1.7163 H   0  0  0  0  0  0  0  0  0  0  0  0
   -1.1416   -2.1676    0.2265 H   0  0  0  0  0  0  0  0  0  0  0  0
   -1.1411    2.1678    0.2250 H   0  0  0  0  0  0  0  0  0  0  0  0
   -1.1761    1.2093    1.7155 H   0  0  0  0  0  0  0  0  0  0  0  0
    1.1761   -1.2091    1.7156 H   0  0  0  0  0  0  0  0  0  0  0  0
    1.1411   -2.1677    0.2252 H   0  0  0  0  0  0  0  0  0  0  0  0
    1.1415    2.1677    0.2261 H   0  0  0  0  0  0  0  0  0  0  0  0
    1.1754    1.2084    1.7161 H   0  0  0  0  0  0  0  0  0  0  0  0
    2.7096   -0.8837   -1.2989 H   0  0  0  0  0  0  0  0  0  0  0  0
    2.7094    0.8841   -1.2988 H   0  0  0  0  0  0  0  0  0  0  0  0
    3.2613    0.0002    0.1336 H   0  0  0  0  0  0  0  0  0  0  0  0
   -2.7096    0.8837   -1.2990 H   0  0  0  0  0  0  0  0  0  0  0  0
   -2.7096   -0.8842   -1.2986 H   0  0  0  0  0  0  0  0  0  0  0  0
   -3.2613    0.0000    0.1336 H   0  0  0  0  0  0  0  0  0  0  0  0
  1  3  1  0  0  0  0
  1  5  1  0  0  0  0
  1  7  1  0  0  0  0
  1  8  1  0  0  0  0
  2  3  1  0  0  0  0
  2  4  1  0  0  0  0
  2  6  1  0  0  0  0
  2  9  1  0  0  0  0
  3 10  1  0  0  0  0
  3 11  1  0  0  0  0
  4  5  1  0  0  0  0
  4 12  1  0  0  0  0
  4 13  1  0  0  0  0
  5 16  1  0  0  0  0
  5 17  1  0  0  0  0
  6  7  1  0  0  0  0
  6 14  1  0  0  0  0
  6 15  1  0  0  0  0
  7 18  1  0  0  0  0
  7 19  1  0  0  0  0
  8 20  1  0  0  0  0
  8 21  1  0  0  0  0
  8 22  1  0  0  0  0
  9 23  1  0  0  0  0
  9 24  1  0  0  0  0
  9 25  1  0  0  0  0
M  END
> <PUBCHEM_COMPOUND_CID>
140691

> <PUBCHEM_CONFORMER_RMSD>
0.4

> <PUBCHEM_CONFORMER_DIVERSEORDER>
1

> <PUBCHEM_MMFF94_PARTIAL_CHARGES>
0

> <PUBCHEM_EFFECTIVE_ROTOR_COUNT>
1

> <PUBCHEM_PHARMACOPHORE_FEATURES>
1
7 1 2 3 4 5 6 7 rings

> <PUBCHEM_HEAVY_ATOM_COUNT>
9

> <PUBCHEM_ATOM_DEF_STEREO_COUNT>
0

> <PUBCHEM_ATOM_UDEF_STEREO_COUNT>
0

> <PUBCHEM_BOND_DEF_STEREO_COUNT>
0

> <PUBCHEM_BOND_UDEF_STEREO_COUNT>
0

> <PUBCHEM_ISOTOPIC_ATOM_COUNT>
0

> <PUBCHEM_COMPONENT_COUNT>
1

> <PUBCHEM_CACTVS_TAUTO_COUNT>
1

> <PUBCHEM_CONFORMER_ID>
0002259300000001

> <PUBCHEM_MMFF94_ENERGY>
35.4934

> <PUBCHEM_FEATURE_SELFOVERLAP>
5.074

> <PUBCHEM_SHAPE_FINGERPRINT>
12423570 1 17182505529478966528
13024252 1 12685382932155832948
137420 1 17550988834129866435
16945 1 18410855460128161850
18185500 45 17905317429932770235
20653085 51 16878525508532345972
21040471 1 17968365831856419379
23552423 10 18123479271631405902
29004967 10 17775292693788638646
369184 2 18412834581564547806
5084963 1 18334012795781224189
528886 8 17458340844783886087
68250623 7 17698739007615481878

> <PUBCHEM_SHAPE_MULTIPOLES>
185.22
2.57
1.31
1.1
0
0
0.1
0
0.82
0
-0.49
0
0
0

> <PUBCHEM_SHAPE_SELFOVERLAP>
389.431

> <PUBCHEM_SHAPE_VOLUME>
105.8

> <PUBCHEM_COORDINATE_TYPE>
2
5
10

$$$$
