117877
  -OEChem-11012400573D

 37 40  0     0  0  0  0  0  0999 V2000
    1.9782    2.9868    0.5323 O   0  0  0  0  0  0  0  0  0  0  0  0
   -0.1888    1.8448   -0.4599 O   0  0  0  0  0  0  0  0  0  0  0  0
   -7.3914    0.7310   -0.4489 O   0  0  0  0  0  0  0  0  0  0  0  0
   -5.0417    1.0418   -0.4351 N   0  0  0  0  0  0  0  0  0  0  0  0
   -5.8755   -0.9872    0.1585 N   0  0  0  0  0  0  0  0  0  0  0  0
   -0.3925   -0.3894    0.2273 N   0  0  0  0  0  0  0  0  0  0  0  0
   -3.9734    0.2007   -0.1234 C   0  0  0  0  0  0  0  0  0  0  0  0
   -4.4840   -1.0418    0.2403 C   0  0  0  0  0  0  0  0  0  0  0  0
   -1.7945   -0.5925    0.2251 C   0  0  0  0  0  0  0  0  0  0  0  0
    3.7713   -0.7040   -0.2199 C   0  0  0  0  0  0  0  0  0  0  0  0
    1.7705    0.6667   -0.0300 C   0  0  0  0  0  0  0  0  0  0  0  0
   -2.6218    0.4604   -0.1415 C   0  0  0  0  0  0  0  0  0  0  0  0
    4.5655    0.4234    0.0987 C   0  0  0  0  0  0  0  0  0  0  0  0
   -3.6699   -2.0901    0.6048 C   0  0  0  0  0  0  0  0  0  0  0  0
    2.3750   -0.5655   -0.2802 C   0  0  0  0  0  0  0  0  0  0  0  0
   -2.2923   -1.8505    0.5942 C   0  0  0  0  0  0  0  0  0  0  0  0
    2.5514    1.7753    0.2833 C   0  0  0  0  0  0  0  0  0  0  0  0
    0.3195    0.7714   -0.1014 C   0  0  0  0  0  0  0  0  0  0  0  0
    3.9399    1.6559    0.3475 C   0  0  0  0  0  0  0  0  0  0  0  0
   -6.2556    0.3175   -0.2658 C   0  0  0  0  0  0  0  0  0  0  0  0
    4.3967   -1.9365   -0.4688 C   0  0  0  0  0  0  0  0  0  0  0  0
    5.9617    0.2849    0.1589 C   0  0  0  0  0  0  0  0  0  0  0  0
    5.7853   -2.0559   -0.4046 C   0  0  0  0  0  0  0  0  0  0  0  0
    6.5663   -0.9473   -0.0913 C   0  0  0  0  0  0  0  0  0  0  0  0
   -2.3066    1.4480   -0.4346 H   0  0  0  0  0  0  0  0  0  0  0  0
   -4.0682   -3.0572    0.8876 H   0  0  0  0  0  0  0  0  0  0  0  0
    1.7889   -1.4363   -0.5664 H   0  0  0  0  0  0  0  0  0  0  0  0
   -1.6157   -2.6539    0.8758 H   0  0  0  0  0  0  0  0  0  0  0  0
   -4.9540    2.0058   -0.7318 H   0  0  0  0  0  0  0  0  0  0  0  0
   -6.4998   -1.7560    0.3689 H   0  0  0  0  0  0  0  0  0  0  0  0
    0.1325   -1.1980    0.5496 H   0  0  0  0  0  0  0  0  0  0  0  0
    4.5441    2.5276    0.5935 H   0  0  0  0  0  0  0  0  0  0  0  0
    3.8068   -2.8168   -0.7153 H   0  0  0  0  0  0  0  0  0  0  0  0
    6.5921    1.1378    0.4019 H   0  0  0  0  0  0  0  0  0  0  0  0
    6.2567   -3.0148   -0.5992 H   0  0  0  0  0  0  0  0  0  0  0  0
    7.6473   -1.0409   -0.0415 H   0  0  0  0  0  0  0  0  0  0  0  0
    2.6757    3.6345    0.7315 H   0  0  0  0  0  0  0  0  0  0  0  0
  1 17  1  0  0  0  0
  1 37  1  0  0  0  0
  2 18  2  0  0  0  0
  3 20  2  0  0  0  0
  4  7  1  0  0  0  0
  4 20  1  0  0  0  0
  4 29  1  0  0  0  0
  5  8  1  0  0  0  0
  5 20  1  0  0  0  0
  5 30  1  0  0  0  0
  6  9  1  0  0  0  0
  6 18  1  0  0  0  0
  6 31  1  0  0  0  0
  7  8  2  0  0  0  0
  7 12  1  0  0  0  0
  8 14  1  0  0  0  0
  9 12  2  0  0  0  0
  9 16  1  0  0  0  0
 10 13  1  0  0  0  0
 10 15  1  0  0  0  0
 10 21  2  0  0  0  0
 11 15  2  0  0  0  0
 11 17  1  0  0  0  0
 11 18  1  0  0  0  0
 12 25  1  0  0  0  0
 13 19  1  0  0  0  0
 13 22  2  0  0  0  0
 14 16  2  0  0  0  0
 14 26  1  0  0  0  0
 15 27  1  0  0  0  0
 16 28  1  0  0  0  0
 17 19  2  0  0  0  0
 19 32  1  0  0  0  0
 21 23  1  0  0  0  0
 21 33  1  0  0  0  0
 22 24  1  0  0  0  0
 22 34  1  0  0  0  0
 23 24  2  0  0  0  0
 23 35  1  0  0  0  0
 24 36  1  0  0  0  0
M  END
> <PUBCHEM_COMPOUND_CID>
117877

> <PUBCHEM_CONFORMER_RMSD>
0.6

> <PUBCHEM_CONFORMER_DIVERSEORDER>
2
8
6
11
10
4
5
7
3
12
9
1

> <PUBCHEM_MMFF94_PARTIAL_CHARGES>
35
1 -0.53
11 0.09
12 -0.15
14 -0.15
15 -0.15
16 -0.15
17 0.08
18 0.54
19 -0.15
2 -0.57
20 0.69
21 -0.15
22 -0.15
23 -0.15
24 -0.15
25 0.15
26 0.15
27 0.15
28 0.15
29 0.37
3 -0.57
30 0.37
31 0.37
32 0.15
33 0.15
34 0.15
35 0.15
36 0.15
37 0.45
4 -0.55
5 -0.55
6 -0.55
7 0.12
8 0.12
9 0.12

> <PUBCHEM_EFFECTIVE_ROTOR_COUNT>
3

> <PUBCHEM_PHARMACOPHORE_FEATURES>
10
1 1 donor
1 2 acceptor
1 3 acceptor
1 4 donor
1 5 donor
1 6 donor
5 4 5 7 8 20 rings
6 10 11 13 15 17 19 rings
6 10 13 21 22 23 24 rings
6 7 8 9 12 14 16 rings

> <PUBCHEM_HEAVY_ATOM_COUNT>
24

> <PUBCHEM_ATOM_DEF_STEREO_COUNT>
0

> <PUBCHEM_ATOM_UDEF_STEREO_COUNT>
0

> <PUBCHEM_BOND_DEF_STEREO_COUNT>
0

> <PUBCHEM_BOND_UDEF_STEREO_COUNT>
0

> <PUBCHEM_ISOTOPIC_ATOM_COUNT>
0

> <PUBCHEM_COMPONENT_COUNT>
1

> <PUBCHEM_CACTVS_TAUTO_COUNT>
21

> <PUBCHEM_CONFORMER_ID>
0001CC7500000002

> <PUBCHEM_MMFF94_ENERGY>
88.915

> <PUBCHEM_FEATURE_SELFOVERLAP>
50.936

> <PUBCHEM_SHAPE_FINGERPRINT>
10411042 1 18198063565898683390
10673678 19 17971488535976385868
10835480 77 18339357573523325080
11315181 36 18131355223997799769
11545043 162 17895764005570105483
117089 54 17697610888303682006
11719270 70 18273213080458910694
11796584 16 17967254226007297162
12236239 1 17489868254073048415
12516196 113 18272088292858186168
12596602 18 15841261645010452630
13402501 40 18408605850948718926
13533116 47 18131631197016084584
13544592 145 18334013904004138171
13685833 64 18409171012699339491
13914758 101 17274830108441471809
14170010 4 18342454850839708096
14251752 14 17749103353196088630
14341114 176 18410859888276672672
14617045 38 17967533445561700658
14856354 85 14851613176654014115
15183329 4 18336264561520072739
15196674 1 18337392741780340091
15352361 1 18411421704922872906
15361156 5 18115034115843800727
17492 89 18048600610082778011
17844677 252 18411426119685490761
17857418 61 18413671313928924634
1813 80 16878220943642796540
19141452 34 18411418453211013639
21065198 57 18338518671962703579
21130935 74 18272653475857628051
21236236 1 18270401581844767009
21267235 1 18409737256818583394
21279426 13 18264768757567471501
21585482 111 18045780080345356477
21792934 111 18343008979526415768
21859007 373 18042666365438980005
221357 26 18410008814858544188
2215653 11 18411134731913484223
22224240 67 16845566514183234310
23522609 53 18122939536119332636
23559900 14 18411414055206629193
239999 70 18409168818836207946
3004659 81 18186803574143906094
3103668 31 17970061145944255997
335352 9 18408603660915811687
3411729 13 18192142914589487456
3421961 26 18341894130301517056
3545911 37 18333730221825570555
3633792 109 18342736270303415441
4015057 19 18270389629103327769
4017518 198 16988850475652911110
4073 2 18041846232775023066
4214541 1 18409449210985034521
437815 12 18341896272878150956
46194498 28 17822012038660644660
465052 167 18273500066010030822
5104073 3 18339646744970056979
59755656 215 18187080620434678955
59755656 520 17530960307076973451
6138700 20 18336266751901035643
9709674 26 18190746538162039715
9995097 60 18411418427372455955

> <PUBCHEM_SHAPE_MULTIPOLES>
461.36
17.9
2.25
0.7
9.73
0.31
-0.01
-3.9
1.58
-1.56
-0.22
0.03
-0.04
1.32

> <PUBCHEM_SHAPE_SELFOVERLAP>
1042.837

> <PUBCHEM_SHAPE_VOLUME>
239.9

> <PUBCHEM_COORDINATE_TYPE>
2
5
10

$$$$
