137462
  -OEChem-11012400533D

 20 21  0     1  0  0  0  0  0999 V2000
    0.8904   -1.3968    0.3012 S   0  0  0  0  0  0  0  0  0  0  0  0
    1.4924    1.2929   -0.7418 S   0  0  0  0  0  0  0  0  0  0  0  0
    3.6389   -0.2356    0.7211 S   0  0  0  0  0  0  0  0  0  0  0  0
   -0.3336   -0.6933   -0.8589 C   0  0  2  0  0  0  0  0  0  0  0  0
   -0.2701    0.8293   -0.7363 C   0  0  1  0  0  0  0  0  0  0  0  0
   -1.7399   -1.2435   -0.6062 C   0  0  0  0  0  0  0  0  0  0  0  0
   -0.9653    1.3891    0.5122 C   0  0  0  0  0  0  0  0  0  0  0  0
   -2.4098   -0.6737    0.6433 C   0  0  0  0  0  0  0  0  0  0  0  0
   -2.3877    0.8512    0.6431 C   0  0  0  0  0  0  0  0  0  0  0  0
    2.0849   -0.1196    0.1223 C   0  0  0  0  0  0  0  0  0  0  0  0
   -0.0198   -0.9990   -1.8652 H   0  0  0  0  0  0  0  0  0  0  0  0
   -0.7387    1.2785   -1.6203 H   0  0  0  0  0  0  0  0  0  0  0  0
   -1.7281   -2.3391   -0.5556 H   0  0  0  0  0  0  0  0  0  0  0  0
   -2.3657   -0.9873   -1.4718 H   0  0  0  0  0  0  0  0  0  0  0  0
   -1.0008    2.4845    0.4608 H   0  0  0  0  0  0  0  0  0  0  0  0
   -0.4123    1.1372    1.4262 H   0  0  0  0  0  0  0  0  0  0  0  0
   -1.9101   -1.0497    1.5438 H   0  0  0  0  0  0  0  0  0  0  0  0
   -3.4475   -1.0236    0.6910 H   0  0  0  0  0  0  0  0  0  0  0  0
   -2.9997    1.2275   -0.1858 H   0  0  0  0  0  0  0  0  0  0  0  0
   -2.8390    1.2261    1.5687 H   0  0  0  0  0  0  0  0  0  0  0  0
  1  4  1  0  0  0  0
  1 10  1  0  0  0  0
  2  5  1  0  0  0  0
  2 10  1  0  0  0  0
  3 10  2  0  0  0  0
  4  5  1  0  0  0  0
  4  6  1  0  0  0  0
  4 11  1  0  0  0  0
  5  7  1  0  0  0  0
  5 12  1  0  0  0  0
  6  8  1  0  0  0  0
  6 13  1  0  0  0  0
  6 14  1  0  0  0  0
  7  9  1  0  0  0  0
  7 15  1  0  0  0  0
  7 16  1  0  0  0  0
  8  9  1  0  0  0  0
  8 17  1  0  0  0  0
  8 18  1  0  0  0  0
  9 19  1  0  0  0  0
  9 20  1  0  0  0  0
M  END
> <PUBCHEM_COMPOUND_CID>
137462

> <PUBCHEM_CONFORMER_RMSD>
0.4

> <PUBCHEM_CONFORMER_DIVERSEORDER>
1
3
2
4

> <PUBCHEM_MMFF94_PARTIAL_CHARGES>
6
1 -0.37
10 0.66
2 -0.37
3 -0.38
4 0.23
5 0.23

> <PUBCHEM_EFFECTIVE_ROTOR_COUNT>
1.2

> <PUBCHEM_PHARMACOPHORE_FEATURES>
3
1 3 acceptor
5 1 2 4 5 10 rings
6 4 5 6 7 8 9 rings

> <PUBCHEM_HEAVY_ATOM_COUNT>
10

> <PUBCHEM_ATOM_DEF_STEREO_COUNT>
0

> <PUBCHEM_ATOM_UDEF_STEREO_COUNT>
2

> <PUBCHEM_BOND_DEF_STEREO_COUNT>
0

> <PUBCHEM_BOND_UDEF_STEREO_COUNT>
0

> <PUBCHEM_ISOTOPIC_ATOM_COUNT>
0

> <PUBCHEM_COMPONENT_COUNT>
1

> <PUBCHEM_CACTVS_TAUTO_COUNT>
1

> <PUBCHEM_CONFORMER_ID>
000218F600000001

> <PUBCHEM_MMFF94_ENERGY>
8.5991

> <PUBCHEM_FEATURE_SELFOVERLAP>
15.323

> <PUBCHEM_SHAPE_FINGERPRINT>
10857977 72 18410011035271902552
11031198 65 12823303419922780352
12382932 28 18340769243342019240
12423570 1 9003739615734644285
12696612 119 18335424556237726252
12897270 3 8358252631604322008
13024252 1 14851883604178195629
13839132 238 17059508309003110665
15775835 57 18131634465227565138
16945 1 18411428292891028117
18185500 45 18339364179214109607
20645464 45 16988846077062371412
20653085 51 11743830382899437858
20871998 184 17846216704260362943
21040471 1 18057904475491690669
21061003 4 17675920976338395324
21293036 1 10015577315988417842
23552423 10 17975983385842257157
2748010 2 17832993741058881717
29004967 10 17022904591998965461
369184 2 17560794437824350858
5084963 1 18261102015343526940
528862 383 17751087009917726036
75552 356 18412261735547670642

> <PUBCHEM_SHAPE_MULTIPOLES>
217.34
4.35
1.61
1.03
2.52
0.08
-0.05
-0.4
1.46
-0.24
-0.08
-0.06
0.05
-0.5

> <PUBCHEM_SHAPE_SELFOVERLAP>
405.395

> <PUBCHEM_SHAPE_VOLUME>
132.6

> <PUBCHEM_COORDINATE_TYPE>
2
5
10

$$$$
