86148999
  -OEChem-11012401173D

 54 53  0     0  0  0  0  0  0999 V2000
   -2.7224    0.1311    2.1761 S   0  0  0  0  0  0  0  0  0  0  0  0
    2.6139    1.9944   -2.0900 S   0  0  0  0  0  0  0  0  0  0  0  0
   -0.8649   -2.3598    2.0875 O   0  0  0  0  0  0  0  0  0  0  0  0
    3.4785   -0.9952   -2.0551 O   0  0  0  0  0  0  0  0  0  0  0  0
   -3.3146    0.2831   -0.5031 N   0  0  0  0  0  0  0  0  0  0  0  0
    1.8109    2.2071    0.5292 N   0  0  0  0  0  0  0  0  0  0  0  0
   -1.8685   -1.4842    0.1419 N   0  0  0  0  0  0  0  0  0  0  0  0
    2.6221    0.0801   -0.1379 N   0  0  0  0  0  0  0  0  0  0  0  0
    0.8893   -3.0155   -0.6094 C   0  0  0  0  0  0  0  0  0  0  0  0
    1.8963   -2.7228    0.5058 C   0  0  0  0  0  0  0  0  0  0  0  0
   -0.4630   -3.4373   -0.0379 C   0  0  0  0  0  0  0  0  0  0  0  0
    3.2495   -2.2628   -0.0349 C   0  0  0  0  0  0  0  0  0  0  0  0
   -1.0629   -2.3807    0.8770 C   0  0  0  0  0  0  0  0  0  0  0  0
    3.1462   -1.0009   -0.8730 C   0  0  0  0  0  0  0  0  0  0  0  0
   -4.1390    1.4772   -0.3072 C   0  0  0  0  0  0  0  0  0  0  0  0
   -3.2230   -0.1643   -1.8945 C   0  0  0  0  0  0  0  0  0  0  0  0
    1.5827    1.6850    1.8781 C   0  0  0  0  0  0  0  0  0  0  0  0
    1.4783    3.6238    0.3671 C   0  0  0  0  0  0  0  0  0  0  0  0
   -2.6366   -0.3666    0.5632 C   0  0  0  0  0  0  0  0  0  0  0  0
    2.3405    1.4164   -0.5257 C   0  0  0  0  0  0  0  0  0  0  0  0
   -5.5872    1.1153   -0.0506 C   0  0  0  0  0  0  0  0  0  0  0  0
   -2.0980    0.5352   -2.6290 C   0  0  0  0  0  0  0  0  0  0  0  0
    2.8148    1.8345    2.7463 C   0  0  0  0  0  0  0  0  0  0  0  0
    0.0573    3.8071   -0.1239 C   0  0  0  0  0  0  0  0  0  0  0  0
    1.2732   -3.8117   -1.2576 H   0  0  0  0  0  0  0  0  0  0  0  0
    0.7461   -2.1268   -1.2346 H   0  0  0  0  0  0  0  0  0  0  0  0
    2.0497   -3.6311    1.1015 H   0  0  0  0  0  0  0  0  0  0  0  0
    1.5060   -1.9655    1.1917 H   0  0  0  0  0  0  0  0  0  0  0  0
   -1.1572   -3.6684   -0.8542 H   0  0  0  0  0  0  0  0  0  0  0  0
   -0.3555   -4.3594    0.5461 H   0  0  0  0  0  0  0  0  0  0  0  0
    3.9382   -2.0698    0.7958 H   0  0  0  0  0  0  0  0  0  0  0  0
    3.6967   -3.0519   -0.6506 H   0  0  0  0  0  0  0  0  0  0  0  0
   -4.0666    2.1144   -1.1962 H   0  0  0  0  0  0  0  0  0  0  0  0
   -3.7566    2.0783    0.5225 H   0  0  0  0  0  0  0  0  0  0  0  0
   -3.1481   -1.2508   -1.9797 H   0  0  0  0  0  0  0  0  0  0  0  0
   -4.1706    0.0791   -2.3917 H   0  0  0  0  0  0  0  0  0  0  0  0
    1.2265    0.6516    1.8579 H   0  0  0  0  0  0  0  0  0  0  0  0
    0.7570    2.2493    2.3299 H   0  0  0  0  0  0  0  0  0  0  0  0
    2.1737    4.0998   -0.3303 H   0  0  0  0  0  0  0  0  0  0  0  0
    1.6137    4.1393    1.3251 H   0  0  0  0  0  0  0  0  0  0  0  0
   -1.8085   -1.6405   -0.8545 H   0  0  0  0  0  0  0  0  0  0  0  0
    2.5196   -0.1322    0.8445 H   0  0  0  0  0  0  0  0  0  0  0  0
   -6.1841    2.0210    0.0956 H   0  0  0  0  0  0  0  0  0  0  0  0
   -6.0146    0.5626   -0.8935 H   0  0  0  0  0  0  0  0  0  0  0  0
   -5.6957    0.4904    0.8412 H   0  0  0  0  0  0  0  0  0  0  0  0
   -1.1288    0.3156   -2.1691 H   0  0  0  0  0  0  0  0  0  0  0  0
   -2.0617    0.2044   -3.6716 H   0  0  0  0  0  0  0  0  0  0  0  0
   -2.2269    1.6222   -2.6240 H   0  0  0  0  0  0  0  0  0  0  0  0
    2.6165    1.4568    3.7542 H   0  0  0  0  0  0  0  0  0  0  0  0
    3.1171    2.8833    2.8318 H   0  0  0  0  0  0  0  0  0  0  0  0
    3.6640    1.2785    2.3366 H   0  0  0  0  0  0  0  0  0  0  0  0
   -0.1706    4.8715   -0.2376 H   0  0  0  0  0  0  0  0  0  0  0  0
   -0.6620    3.3817    0.5840 H   0  0  0  0  0  0  0  0  0  0  0  0
   -0.1088    3.3206   -1.0897 H   0  0  0  0  0  0  0  0  0  0  0  0
  1 19  2  0  0  0  0
  2 20  2  0  0  0  0
  3 13  2  0  0  0  0
  4 14  2  0  0  0  0
  5 15  1  0  0  0  0
  5 16  1  0  0  0  0
  5 19  1  0  0  0  0
  6 17  1  0  0  0  0
  6 18  1  0  0  0  0
  6 20  1  0  0  0  0
  7 13  1  0  0  0  0
  7 19  1  0  0  0  0
  7 41  1  0  0  0  0
  8 14  1  0  0  0  0
  8 20  1  0  0  0  0
  8 42  1  0  0  0  0
  9 10  1  0  0  0  0
  9 11  1  0  0  0  0
  9 25  1  0  0  0  0
  9 26  1  0  0  0  0
 10 12  1  0  0  0  0
 10 27  1  0  0  0  0
 10 28  1  0  0  0  0
 11 13  1  0  0  0  0
 11 29  1  0  0  0  0
 11 30  1  0  0  0  0
 12 14  1  0  0  0  0
 12 31  1  0  0  0  0
 12 32  1  0  0  0  0
 15 21  1  0  0  0  0
 15 33  1  0  0  0  0
 15 34  1  0  0  0  0
 16 22  1  0  0  0  0
 16 35  1  0  0  0  0
 16 36  1  0  0  0  0
 17 23  1  0  0  0  0
 17 37  1  0  0  0  0
 17 38  1  0  0  0  0
 18 24  1  0  0  0  0
 18 39  1  0  0  0  0
 18 40  1  0  0  0  0
 21 43  1  0  0  0  0
 21 44  1  0  0  0  0
 21 45  1  0  0  0  0
 22 46  1  0  0  0  0
 22 47  1  0  0  0  0
 22 48  1  0  0  0  0
 23 49  1  0  0  0  0
 23 50  1  0  0  0  0
 23 51  1  0  0  0  0
 24 52  1  0  0  0  0
 24 53  1  0  0  0  0
 24 54  1  0  0  0  0
M  END
> <PUBCHEM_COMPOUND_CID>
86148999

> <PUBCHEM_CONFORMER_RMSD>
1.2

> <PUBCHEM_CONFORMER_DIVERSEORDER>
2
176
30
182
24
1
159
94
179
82
26
151
99
134
132
158
195
103
190
131
3
150
140
135
54
163
95
93
192
102
120
66
85
13
88
145
79
100
125
126
83
171
55
121
118
139
161
49
174
164
175
160
194
114
16
109
165
18
128
168
143
104
149
29
147
155
53
188
97
31
193
11
101
122
181
112
113
70
191
34
73
141
172
153
146
89
58
19
184
71
185
130
186
56
76
187
129
116
123
38
32
92
111
75
63
6
148
42
166
50
41
157
133
137
183
67
110
136
35
57
144
7
173
196
48
91
52
162
156
142
138
108
9
105
127
119
23
20
169
154
69
96
80
25
47
61
60
177
152
98
62
27
87
10
17
84
68
43
167
40
106
5
107
124
45
64
14
115
51
81
90
44
170
74
22
65
21
180
86
8
46
78
36
189
59
37
72
28
12
117
77
39
33
178
15
4

> <PUBCHEM_MMFF94_PARTIAL_CHARGES>
20
1 -0.38
11 0.06
12 0.06
13 0.57
14 0.57
15 0.3
16 0.3
17 0.3
18 0.3
19 0.5
2 -0.38
20 0.5
3 -0.57
4 -0.57
41 0.37
42 0.37
5 -0.66
6 -0.66
7 -0.49
8 -0.49

> <PUBCHEM_EFFECTIVE_ROTOR_COUNT>
15

> <PUBCHEM_PHARMACOPHORE_FEATURES>
7
1 1 acceptor
1 2 acceptor
1 3 acceptor
1 4 acceptor
1 7 donor
1 8 donor
4 9 10 11 12 hydrophobe

> <PUBCHEM_HEAVY_ATOM_COUNT>
24

> <PUBCHEM_ATOM_DEF_STEREO_COUNT>
0

> <PUBCHEM_ATOM_UDEF_STEREO_COUNT>
0

> <PUBCHEM_BOND_DEF_STEREO_COUNT>
0

> <PUBCHEM_BOND_UDEF_STEREO_COUNT>
0

> <PUBCHEM_ISOTOPIC_ATOM_COUNT>
0

> <PUBCHEM_COMPONENT_COUNT>
1

> <PUBCHEM_CACTVS_TAUTO_COUNT>
6

> <PUBCHEM_CONFORMER_ID>
0522878700000002

> <PUBCHEM_MMFF94_ENERGY>
54.5419

> <PUBCHEM_FEATURE_SELFOVERLAP>
35.523

> <PUBCHEM_SHAPE_FINGERPRINT>
10165383 225 17903954327461314636
12156800 1 15392794074675252982
12539773 59 17560533810903881377
12553582 1 18195549029190367192
12788726 201 18124331410586435436
128993 33 17971765612019607990
13773456 73 16516785023896347127
14114207 22 16598930606236528691
151778 21 18261972828584770461
17093844 170 18411414008204919888
17921350 177 17241032275901707340
18219364 16 18335719246549680307
18981168 100 18124314062960325310
19930381 70 18409445921277559997
238 59 18199743828863789046
35225 105 17979645863395499431
3524813 1 17750517278142548279
54672768 99 18333740129925096348

> <PUBCHEM_SHAPE_MULTIPOLES>
469.95
7.57
4.75
2.44
7.38
0
0.18
-2.07
-1.5
-3.04
0.7
-0.41
-0.84
1.09

> <PUBCHEM_SHAPE_SELFOVERLAP>
870.999

> <PUBCHEM_SHAPE_VOLUME>
297.4

> <PUBCHEM_COORDINATE_TYPE>
2
5
10

$$$$
