5355016
  -OEChem-11012400303D

 20 20  0     0  0  0  0  0  0999 V2000
    4.4613    0.8493    0.2763 O   0  5  0  0  0  0  0  0  0  0  0  0
    4.2459   -1.3011   -0.1091 O   0  0  0  0  0  0  0  0  0  0  0  0
   -4.9359   -0.6747    0.8595 O   0  5  0  0  0  0  0  0  0  0  0  0
   -4.4498    0.6516   -0.8303 O   0  0  0  0  0  0  0  0  0  0  0  0
    3.7495   -0.1609    0.0587 N   0  3  0  0  0  0  0  0  0  0  0  0
   -4.1414   -0.1506    0.0641 N   0  3  0  0  0  0  0  0  0  0  0  0
   -0.4327    0.2888   -0.1125 C   0  0  0  0  0  0  0  0  0  0  0  0
    2.3389   -0.0092    0.0010 C   0  0  0  0  0  0  0  0  0  0  0  0
    0.3789    1.3976    0.1283 C   0  0  0  0  0  0  0  0  0  0  0  0
    0.1417   -0.9690   -0.2963 C   0  0  0  0  0  0  0  0  0  0  0  0
    1.7646    1.2486    0.1849 C   0  0  0  0  0  0  0  0  0  0  0  0
    1.5274   -1.1179   -0.2395 C   0  0  0  0  0  0  0  0  0  0  0  0
   -1.8775    0.4442   -0.1719 C   0  0  0  0  0  0  0  0  0  0  0  0
   -2.7711   -0.4967    0.1868 C   0  0  0  0  0  0  0  0  0  0  0  0
   -0.0518    2.3852    0.2756 H   0  0  0  0  0  0  0  0  0  0  0  0
   -0.4615   -1.8506   -0.4979 H   0  0  0  0  0  0  0  0  0  0  0  0
    2.3654    2.1344    0.3746 H   0  0  0  0  0  0  0  0  0  0  0  0
    1.9403   -2.1122   -0.3900 H   0  0  0  0  0  0  0  0  0  0  0  0
   -2.1995    1.4223   -0.5254 H   0  0  0  0  0  0  0  0  0  0  0  0
   -2.5975   -1.4750    0.6092 H   0  0  0  0  0  0  0  0  0  0  0  0
  1  5  1  0  0  0  0
  2  5  2  0  0  0  0
  3  6  1  0  0  0  0
  4  6  2  0  0  0  0
  5  8  1  0  0  0  0
  6 14  1  0  0  0  0
  7  9  2  0  0  0  0
  7 10  1  0  0  0  0
  7 13  1  0  0  0  0
  8 11  2  0  0  0  0
  8 12  1  0  0  0  0
  9 11  1  0  0  0  0
  9 15  1  0  0  0  0
 10 12  2  0  0  0  0
 10 16  1  0  0  0  0
 11 17  1  0  0  0  0
 12 18  1  0  0  0  0
 13 14  2  0  0  0  0
 13 19  1  0  0  0  0
 14 20  1  0  0  0  0
M  CHG  4   1  -1   3  -1   5   1   6   1
M  END
> <PUBCHEM_COMPOUND_CID>
5355016

> <PUBCHEM_CONFORMER_RMSD>
0.6

> <PUBCHEM_CONFORMER_DIVERSEORDER>
1

> <PUBCHEM_MMFF94_PARTIAL_CHARGES>
20
1 -0.52
10 -0.15
11 -0.15
12 -0.15
13 -0.18
14 0.05
15 0.15
16 0.15
17 0.15
18 0.15
19 0.15
2 -0.52
20 0.15
3 -0.52
4 -0.52
5 0.91
6 0.84
7 0.03
8 0.13
9 -0.15

> <PUBCHEM_EFFECTIVE_ROTOR_COUNT>
3

> <PUBCHEM_PHARMACOPHORE_FEATURES>
7
1 1 acceptor
1 1 anion
1 2 acceptor
1 3 acceptor
1 3 anion
1 4 acceptor
6 7 8 9 10 11 12 rings

> <PUBCHEM_HEAVY_ATOM_COUNT>
14

> <PUBCHEM_ATOM_DEF_STEREO_COUNT>
0

> <PUBCHEM_ATOM_UDEF_STEREO_COUNT>
0

> <PUBCHEM_BOND_DEF_STEREO_COUNT>
1

> <PUBCHEM_BOND_UDEF_STEREO_COUNT>
0

> <PUBCHEM_ISOTOPIC_ATOM_COUNT>
0

> <PUBCHEM_COMPONENT_COUNT>
1

> <PUBCHEM_CACTVS_TAUTO_COUNT>
2

> <PUBCHEM_CONFORMER_ID>
0051B60800000001

> <PUBCHEM_MMFF94_ENERGY>
43.9633

> <PUBCHEM_FEATURE_SELFOVERLAP>
35.683

> <PUBCHEM_SHAPE_FINGERPRINT>
10219947 1 18272653445813332158
11062470 55 16950282901309285887
11401426 45 18342168981673441245
11471102 20 18341609317581017508
12032990 46 18411141299139863358
13675066 3 18410853286948647529
13690532 89 18411982438351480994
13922767 16 18272086119146051817
14252887 29 18130516257596892150
18522853 276 18272653445766132393
200 152 17988635299203612949
20201158 50 18409169896181857379
20279233 1 18260271850090108435
20645477 70 18341891848956581702
20871998 22 18058178228038082070
21267235 1 18341058432528646046
22485316 2 18333728022322449019
23402539 116 16008741416526792991
23402655 69 18271799091325286341
23557571 272 17604148103945484957
26918003 58 18412268346282983283
42 15 18412548708319786513
5104073 3 18339923714484096993
8809292 202 18187933927578744979

> <PUBCHEM_SHAPE_MULTIPOLES>
254.67
9.04
1.27
0.68
4.68
0.07
0
-1.04
-0.74
-0.75
0
0.39
0
0.47

> <PUBCHEM_SHAPE_SELFOVERLAP>
534.528

> <PUBCHEM_SHAPE_VOLUME>
144

> <PUBCHEM_COORDINATE_TYPE>
2
5
10

$$$$
