13887
  -OEChem-11012400373D

 21 22  0     0  0  0  0  0  0999 V2000
    1.3321   -1.1455   -0.3102 N   0  0  0  0  0  0  0  0  0  0  0  0
   -0.6944    0.0183    0.0056 C   0  0  0  0  0  0  0  0  0  0  0  0
    0.7525    0.0319    0.0086 C   0  0  0  0  0  0  0  0  0  0  0  0
   -1.4020    1.1794   -0.3058 C   0  0  0  0  0  0  0  0  0  0  0  0
   -1.3817   -1.1558    0.3137 C   0  0  0  0  0  0  0  0  0  0  0  0
    1.4509    1.1855    0.3202 C   0  0  0  0  0  0  0  0  0  0  0  0
   -2.7968    1.1666   -0.3091 C   0  0  0  0  0  0  0  0  0  0  0  0
   -2.7766   -1.1686    0.3104 C   0  0  0  0  0  0  0  0  0  0  0  0
   -3.4840   -0.0074   -0.0010 C   0  0  0  0  0  0  0  0  0  0  0  0
    2.8400    1.1267    0.3034 C   0  0  0  0  0  0  0  0  0  0  0  0
    3.4761   -0.0668   -0.0198 C   0  0  0  0  0  0  0  0  0  0  0  0
    2.6839   -1.1642   -0.3161 C   0  0  0  0  0  0  0  0  0  0  0  0
   -0.9084    2.1083   -0.5782 H   0  0  0  0  0  0  0  0  0  0  0  0
   -0.8616   -2.0751    0.5719 H   0  0  0  0  0  0  0  0  0  0  0  0
    0.9736    2.1181    0.6000 H   0  0  0  0  0  0  0  0  0  0  0  0
   -3.3483    2.0688   -0.5574 H   0  0  0  0  0  0  0  0  0  0  0  0
   -3.3123   -2.0820    0.5524 H   0  0  0  0  0  0  0  0  0  0  0  0
   -4.5700   -0.0177   -0.0045 H   0  0  0  0  0  0  0  0  0  0  0  0
    3.4263    2.0074    0.5477 H   0  0  0  0  0  0  0  0  0  0  0  0
    4.5577   -0.1360   -0.0377 H   0  0  0  0  0  0  0  0  0  0  0  0
    3.1311   -2.1185   -0.5739 H   0  0  0  0  0  0  0  0  0  0  0  0
  1  3  1  0  0  0  0
  1 12  2  0  0  0  0
  2  3  1  0  0  0  0
  2  4  2  0  0  0  0
  2  5  1  0  0  0  0
  3  6  2  0  0  0  0
  4  7  1  0  0  0  0
  4 13  1  0  0  0  0
  5  8  2  0  0  0  0
  5 14  1  0  0  0  0
  6 10  1  0  0  0  0
  6 15  1  0  0  0  0
  7  9  2  0  0  0  0
  7 16  1  0  0  0  0
  8  9  1  0  0  0  0
  8 17  1  0  0  0  0
  9 18  1  0  0  0  0
 10 11  2  0  0  0  0
 10 19  1  0  0  0  0
 11 12  1  0  0  0  0
 11 20  1  0  0  0  0
 12 21  1  0  0  0  0
M  END
> <PUBCHEM_COMPOUND_CID>
13887

> <PUBCHEM_CONFORMER_RMSD>
0.4

> <PUBCHEM_CONFORMER_DIVERSEORDER>
2
1
3

> <PUBCHEM_MMFF94_PARTIAL_CHARGES>
20
1 -0.62
10 -0.15
11 -0.15
12 0.16
13 0.15
14 0.15
15 0.15
16 0.15
17 0.15
18 0.15
19 0.15
20 0.15
21 0.15
3 0.31
4 -0.15
5 -0.15
6 -0.15
7 -0.15
8 -0.15
9 -0.15

> <PUBCHEM_EFFECTIVE_ROTOR_COUNT>
1

> <PUBCHEM_PHARMACOPHORE_FEATURES>
3
1 1 acceptor
6 1 3 6 10 11 12 rings
6 2 4 5 7 8 9 rings

> <PUBCHEM_HEAVY_ATOM_COUNT>
12

> <PUBCHEM_ATOM_DEF_STEREO_COUNT>
0

> <PUBCHEM_ATOM_UDEF_STEREO_COUNT>
0

> <PUBCHEM_BOND_DEF_STEREO_COUNT>
0

> <PUBCHEM_BOND_UDEF_STEREO_COUNT>
0

> <PUBCHEM_ISOTOPIC_ATOM_COUNT>
0

> <PUBCHEM_COMPONENT_COUNT>
1

> <PUBCHEM_CACTVS_TAUTO_COUNT>
1

> <PUBCHEM_CONFORMER_ID>
0000363F00000002

> <PUBCHEM_MMFF94_ENERGY>
37.4688

> <PUBCHEM_FEATURE_SELFOVERLAP>
15.223

> <PUBCHEM_SHAPE_FINGERPRINT>
10608611 8 18410851066377105200
11471102 20 18342735208713374124
12032990 46 18410862061498280939
12932764 1 17560796675412745236
13296908 3 18411140237945486958
13380535 76 18410852161604230723
14144814 61 18410573967971601648
14325111 11 18410573989451862089
15219456 202 18412544314283412528
16945 1 18338797921988164213
17844478 74 18334584555076566401
18175812 5 18410855485903260093
18186145 218 18339644425730037709
19973954 147 18410576188475319017
200 152 17774994700752628229
20201158 50 18413108342289631266
20279233 1 18410855464428501290
20528008 55 18410569604654054925
20645477 70 18201435826945747447
20871998 184 18270124642385104591
21501502 16 18410573993741405224
23402539 116 18334844035246069063
23402655 69 18271799086824675189
23463225 33 18407758131889024844
23552423 10 18186804703002860719
23559900 14 18338794495348333370
2748010 2 18410856568235005581
369184 2 18342739624256083587
5104073 3 18410855464428417840
57812782 119 18410852165888271753
6333449 129 18408882936674120119
69090 78 18342170077423098663
7364860 26 18192706752741191850
8809292 202 18334300876528717746

> <PUBCHEM_SHAPE_MULTIPOLES>
241.97
6
1.5
0.67
0.26
0
0.01
-0.03
-0.01
-0.06
0
0
0.01
0.5

> <PUBCHEM_SHAPE_SELFOVERLAP>
526.917

> <PUBCHEM_SHAPE_VOLUME>
130.6

> <PUBCHEM_COORDINATE_TYPE>
2
5
10

$$$$
