87496
  -OEChem-11012400443D

 31 30  0     0  0  0  0  0  0999 V2000
    1.5245    0.0633   -0.4313 Si  0  0  0  0  0  0  0  0  0  0  0  0
   -1.5232    0.0668    0.4259 Si  0  0  0  0  0  0  0  0  0  0  0  0
    0.0005   -0.4795   -0.0018 O   0  0  0  0  0  0  0  0  0  0  0  0
    2.1335    0.9755    0.8375 O   0  0  0  0  0  0  0  0  0  0  0  0
    2.5247   -1.2559   -0.7023 O   0  0  0  0  0  0  0  0  0  0  0  0
   -2.1507    0.9676   -0.8420 O   0  0  0  0  0  0  0  0  0  0  0  0
   -2.5112   -1.2589    0.7097 O   0  0  0  0  0  0  0  0  0  0  0  0
    1.4189    1.1044   -1.9918 C   0  0  0  0  0  0  0  0  0  0  0  0
   -1.4093    1.1114    1.9819 C   0  0  0  0  0  0  0  0  0  0  0  0
    3.4275    1.5512    0.7310 C   0  0  0  0  0  0  0  0  0  0  0  0
    2.7535   -2.1874    0.3458 C   0  0  0  0  0  0  0  0  0  0  0  0
   -3.4479    1.5333   -0.7255 C   0  0  0  0  0  0  0  0  0  0  0  0
   -2.7408   -2.1917   -0.3372 C   0  0  0  0  0  0  0  0  0  0  0  0
    2.4150    1.4211   -2.3143 H   0  0  0  0  0  0  0  0  0  0  0  0
    0.9627    0.5313   -2.8044 H   0  0  0  0  0  0  0  0  0  0  0  0
    0.8131    1.9988   -1.8195 H   0  0  0  0  0  0  0  0  0  0  0  0
   -0.8085    2.0078    1.8032 H   0  0  0  0  0  0  0  0  0  0  0  0
   -2.4040    1.4254    2.3116 H   0  0  0  0  0  0  0  0  0  0  0  0
   -0.9448    0.5425    2.7927 H   0  0  0  0  0  0  0  0  0  0  0  0
    4.1943    0.7846    0.5741 H   0  0  0  0  0  0  0  0  0  0  0  0
    3.6495    2.0630    1.6724 H   0  0  0  0  0  0  0  0  0  0  0  0
    3.4637    2.2936   -0.0735 H   0  0  0  0  0  0  0  0  0  0  0  0
    3.4291   -2.9621   -0.0296 H   0  0  0  0  0  0  0  0  0  0  0  0
    1.8204   -2.6721    0.6540 H   0  0  0  0  0  0  0  0  0  0  0  0
    3.2329   -1.7077    1.2061 H   0  0  0  0  0  0  0  0  0  0  0  0
   -3.6831    2.0395   -1.6668 H   0  0  0  0  0  0  0  0  0  0  0  0
   -3.4824    2.2789    0.0762 H   0  0  0  0  0  0  0  0  0  0  0  0
   -4.2072    0.7615   -0.5581 H   0  0  0  0  0  0  0  0  0  0  0  0
   -3.2314   -1.7159   -1.1934 H   0  0  0  0  0  0  0  0  0  0  0  0
   -3.4073   -2.9717    0.0435 H   0  0  0  0  0  0  0  0  0  0  0  0
   -1.8067   -2.6692   -0.6531 H   0  0  0  0  0  0  0  0  0  0  0  0
  1  3  1  0  0  0  0
  1  4  1  0  0  0  0
  1  5  1  0  0  0  0
  1  8  1  0  0  0  0
  2  3  1  0  0  0  0
  2  6  1  0  0  0  0
  2  7  1  0  0  0  0
  2  9  1  0  0  0  0
  4 10  1  0  0  0  0
  5 11  1  0  0  0  0
  6 12  1  0  0  0  0
  7 13  1  0  0  0  0
  8 14  1  0  0  0  0
  8 15  1  0  0  0  0
  8 16  1  0  0  0  0
  9 17  1  0  0  0  0
  9 18  1  0  0  0  0
  9 19  1  0  0  0  0
 10 20  1  0  0  0  0
 10 21  1  0  0  0  0
 10 22  1  0  0  0  0
 11 23  1  0  0  0  0
 11 24  1  0  0  0  0
 11 25  1  0  0  0  0
 12 26  1  0  0  0  0
 12 27  1  0  0  0  0
 12 28  1  0  0  0  0
 13 29  1  0  0  0  0
 13 30  1  0  0  0  0
 13 31  1  0  0  0  0
M  END
> <PUBCHEM_COMPOUND_CID>
87496

> <PUBCHEM_CONFORMER_RMSD>
0.6

> <PUBCHEM_CONFORMER_DIVERSEORDER>
8
79
30
6
58
12
17
83
5
78
49
23
36
70
51
55
52
39
38
20
18
26
84
53
65
71
44
74
1
14
19
33
40
9
81
37
4
61
54
27
41
73
42
85
11
31
32
43
22
48
10
35
45
2
29
76
46
47
66
28
3
56
34
77
75
50
80
59
16
24
72
69
15
82
68
60
64
7
63
13
21
57
62
67
86
25

> <PUBCHEM_MMFF94_PARTIAL_CHARGES>
13
1 0.97
10 0.28
11 0.28
12 0.28
13 0.28
2 0.97
3 -0.59
4 -0.58
5 -0.58
6 -0.58
7 -0.58
8 -0.08
9 -0.08

> <PUBCHEM_EFFECTIVE_ROTOR_COUNT>
6

> <PUBCHEM_PHARMACOPHORE_FEATURES>
0

> <PUBCHEM_HEAVY_ATOM_COUNT>
13

> <PUBCHEM_ATOM_DEF_STEREO_COUNT>
0

> <PUBCHEM_ATOM_UDEF_STEREO_COUNT>
0

> <PUBCHEM_BOND_DEF_STEREO_COUNT>
0

> <PUBCHEM_BOND_UDEF_STEREO_COUNT>
0

> <PUBCHEM_ISOTOPIC_ATOM_COUNT>
0

> <PUBCHEM_COMPONENT_COUNT>
1

> <PUBCHEM_CACTVS_TAUTO_COUNT>
1

> <PUBCHEM_CONFORMER_ID>
000155C800000008

> <PUBCHEM_MMFF94_ENERGY>
14.6818

> <PUBCHEM_FEATURE_SELFOVERLAP>
0

> <PUBCHEM_SHAPE_FINGERPRINT>
10922523 26 18186804638784079759
12500047 106 18335979779175756054
12716758 59 18335136458468917979
12932764 1 18338814363059832167
14648413 74 17386592196454943484
15219456 202 18412259545077322376
16945 1 18125728881006280970
18186145 218 18196081158606639557
20082192 1 18114762497801209773
20645477 56 18333728005564871781
20653085 51 17822582616259438633
20653091 64 18271817804471239234
21069387 34 17272847611050287831
21730867 7 18271247226429098666
23552423 10 18186812399616222031
23557571 272 18339924921565033089
3248919 1 17275109388051700763
5084963 1 18262817223170335418
74978 22 18270968929443285618
8030462 33 17703794699677256952
81228 2 18114464569500932145

> <PUBCHEM_SHAPE_MULTIPOLES>
274.61
5.71
2.22
1.54
0.03
1.05
-0.01
-0.1
-0.01
-0.01
0.01
-0.01
-0.74
0.21

> <PUBCHEM_SHAPE_SELFOVERLAP>
482.027

> <PUBCHEM_SHAPE_VOLUME>
181.6

> <PUBCHEM_COORDINATE_TYPE>
2
5
10

$$$$
