77127
  -OEChem-11012400313D

 40 39  0     0  0  0  0  0  0999 V2000
   -3.3006   -0.1053    0.0003 O   0  0  0  0  0  0  0  0  0  0  0  0
   -4.5599   -2.0326   -0.0548 O   0  0  0  0  0  0  0  0  0  0  0  0
   -5.3269    2.6869    0.0061 N   0  0  0  0  0  0  0  0  0  0  0  0
    2.9456   -0.5535    0.0853 C   0  0  0  0  0  0  0  0  0  0  0  0
    4.1836    0.3474    0.1196 C   0  0  0  0  0  0  0  0  0  0  0  0
    1.6275    0.2237    0.0834 C   0  0  0  0  0  0  0  0  0  0  0  0
    5.5016   -0.4267    0.0466 C   0  0  0  0  0  0  0  0  0  0  0  0
    0.4255   -0.7245    0.0796 C   0  0  0  0  0  0  0  0  0  0  0  0
    6.7005    0.5240    0.0108 C   0  0  0  0  0  0  0  0  0  0  0  0
   -0.8944    0.0516    0.0475 C   0  0  0  0  0  0  0  0  0  0  0  0
    8.0169   -0.2449   -0.1006 C   0  0  0  0  0  0  0  0  0  0  0  0
   -2.1055   -0.8725    0.0099 C   0  0  0  0  0  0  0  0  0  0  0  0
    9.2079    0.6976   -0.1703 C   0  0  0  0  0  0  0  0  0  0  0  0
   -4.4692   -0.8132   -0.0331 C   0  0  0  0  0  0  0  0  0  0  0  0
   -5.6298    0.1201   -0.0407 C   0  0  0  0  0  0  0  0  0  0  0  0
   -6.8591   -0.4127   -0.0754 C   0  0  0  0  0  0  0  0  0  0  0  0
   -5.4639    1.5347   -0.0142 C   0  0  0  0  0  0  0  0  0  0  0  0
    2.9711   -1.2260    0.9517 H   0  0  0  0  0  0  0  0  0  0  0  0
    2.9887   -1.1878   -0.8089 H   0  0  0  0  0  0  0  0  0  0  0  0
    4.1326    1.0500   -0.7217 H   0  0  0  0  0  0  0  0  0  0  0  0
    4.1655    0.9499    1.0362 H   0  0  0  0  0  0  0  0  0  0  0  0
    1.5887    0.8745   -0.7983 H   0  0  0  0  0  0  0  0  0  0  0  0
    1.5823    0.8717    0.9669 H   0  0  0  0  0  0  0  0  0  0  0  0
    5.5830   -1.0961    0.9114 H   0  0  0  0  0  0  0  0  0  0  0  0
    5.5056   -1.0559   -0.8516 H   0  0  0  0  0  0  0  0  0  0  0  0
    0.4549   -1.3624    0.9712 H   0  0  0  0  0  0  0  0  0  0  0  0
    0.4817   -1.3851   -0.7941 H   0  0  0  0  0  0  0  0  0  0  0  0
    6.7089    1.1406    0.9178 H   0  0  0  0  0  0  0  0  0  0  0  0
    6.6024    1.2060   -0.8427 H   0  0  0  0  0  0  0  0  0  0  0  0
   -0.9671    0.7079    0.9238 H   0  0  0  0  0  0  0  0  0  0  0  0
   -0.9221    0.7153   -0.8258 H   0  0  0  0  0  0  0  0  0  0  0  0
    8.0060   -0.8750   -0.9977 H   0  0  0  0  0  0  0  0  0  0  0  0
    8.1332   -0.9107    0.7624 H   0  0  0  0  0  0  0  0  0  0  0  0
   -2.0672   -1.4960   -0.8913 H   0  0  0  0  0  0  0  0  0  0  0  0
   -2.1009   -1.5239    0.8919 H   0  0  0  0  0  0  0  0  0  0  0  0
    9.2664    1.3225    0.7266 H   0  0  0  0  0  0  0  0  0  0  0  0
    9.1382    1.3543   -1.0432 H   0  0  0  0  0  0  0  0  0  0  0  0
   10.1387    0.1270   -0.2480 H   0  0  0  0  0  0  0  0  0  0  0  0
   -7.0291   -1.4844   -0.0969 H   0  0  0  0  0  0  0  0  0  0  0  0
   -7.7457    0.2153   -0.0834 H   0  0  0  0  0  0  0  0  0  0  0  0
  1 12  1  0  0  0  0
  1 14  1  0  0  0  0
  2 14  2  0  0  0  0
  3 17  3  0  0  0  0
  4  5  1  0  0  0  0
  4  6  1  0  0  0  0
  4 18  1  0  0  0  0
  4 19  1  0  0  0  0
  5  7  1  0  0  0  0
  5 20  1  0  0  0  0
  5 21  1  0  0  0  0
  6  8  1  0  0  0  0
  6 22  1  0  0  0  0
  6 23  1  0  0  0  0
  7  9  1  0  0  0  0
  7 24  1  0  0  0  0
  7 25  1  0  0  0  0
  8 10  1  0  0  0  0
  8 26  1  0  0  0  0
  8 27  1  0  0  0  0
  9 11  1  0  0  0  0
  9 28  1  0  0  0  0
  9 29  1  0  0  0  0
 10 12  1  0  0  0  0
 10 30  1  0  0  0  0
 10 31  1  0  0  0  0
 11 13  1  0  0  0  0
 11 32  1  0  0  0  0
 11 33  1  0  0  0  0
 12 34  1  0  0  0  0
 12 35  1  0  0  0  0
 13 36  1  0  0  0  0
 13 37  1  0  0  0  0
 13 38  1  0  0  0  0
 14 15  1  0  0  0  0
 15 16  2  0  0  0  0
 15 17  1  0  0  0  0
 16 39  1  0  0  0  0
 16 40  1  0  0  0  0
M  END
> <PUBCHEM_COMPOUND_CID>
77127

> <PUBCHEM_CONFORMER_RMSD>
1.2

> <PUBCHEM_CONFORMER_DIVERSEORDER>
2
54
52
108
29
11
99
32
27
8
78
20
44
3
55
10
9
47
38
39
6
62
112
50
26
107
70
5
61
92
7
77
57
117
86
4
95
30
79
33
14
101
118
19
43
91
90
15
96
58
42
48
97
113
104
40
60
18
73
45
69
114
84
31
109
76
51
115
28
88
105
22
71
67
16
103
56
46
13
89
85
75
94
63
65
80
98
41
102
59
35
49
82
34
37
12
93
83
74
87
23
64
1
72
17
116
21
100
110
24
111
106
68
25
53
66
36
81

> <PUBCHEM_MMFF94_PARTIAL_CHARGES>
10
1 -0.43
12 0.28
14 0.71
15 0.08
16 -0.3
17 0.49
2 -0.57
3 -0.56
39 0.15
40 0.15

> <PUBCHEM_EFFECTIVE_ROTOR_COUNT>
11

> <PUBCHEM_PHARMACOPHORE_FEATURES>
4
1 13 hydrophobe
1 16 hydrophobe
1 2 acceptor
1 3 acceptor

> <PUBCHEM_HEAVY_ATOM_COUNT>
17

> <PUBCHEM_ATOM_DEF_STEREO_COUNT>
0

> <PUBCHEM_ATOM_UDEF_STEREO_COUNT>
0

> <PUBCHEM_BOND_DEF_STEREO_COUNT>
0

> <PUBCHEM_BOND_UDEF_STEREO_COUNT>
0

> <PUBCHEM_ISOTOPIC_ATOM_COUNT>
0

> <PUBCHEM_COMPONENT_COUNT>
1

> <PUBCHEM_CACTVS_TAUTO_COUNT>
1

> <PUBCHEM_CONFORMER_ID>
00012D4700000002

> <PUBCHEM_MMFF94_ENERGY>
8.615

> <PUBCHEM_FEATURE_SELFOVERLAP>
20.297

> <PUBCHEM_SHAPE_FINGERPRINT>
10411042 1 18050567637297641591
10730089 173 18412262818243705393
11315181 36 18186239537648090009
12091667 2 18409730677308734467
125118 31 18409449215860932608
13533116 47 17168130219106850810
13885169 127 18411138022201083760
13964095 4 18343021090658729394
14123256 10 15626226818844841310
14251752 14 18341610399970746536
14251764 18 18113615677820662552
14251764 46 16298103198828411651
14428016 248 17676214589652632764
14729087 3 18410853248600117816
14933364 13 18411699889801757928
155225 5 18054227631358201361
17093844 174 18260829306574448171
17834076 25 17894630361478414498
18006028 8 15769777957698254770
195137 175 18335147496899359228
20281389 69 18410291410679249001
20621476 8 17967812730780037582
21315763 28 18410292540382033852
22224240 67 15574713617099865786
23402539 116 18411415129037987447
23521765 1 18341895203932298154
28498 318 18060704966906358534
33684 2 18410573993815472634
4073 2 18114187445020988682
4463277 17 18410855464924399472
5758199 1 17748826319880317602
59567204 34 18341613672916122641
5969126 39 14548741677169118258
67123 10 18410293640505539350
8209 1 18342458153753818190

> <PUBCHEM_SHAPE_MULTIPOLES>
333.13
27.19
1.49
0.61
38.12
0.7
0
5.69
-1.39
-3.34
-0.01
0.09
0
-0.1

> <PUBCHEM_SHAPE_SELFOVERLAP>
623.807

> <PUBCHEM_SHAPE_VOLUME>
205.5

> <PUBCHEM_COORDINATE_TYPE>
2
5
10

$$$$
