66555
  -OEChem-11012401243D

 23 25  0     0  0  0  0  0  0999 V2000
   -2.6167   -0.7652   -0.0003 O   0  0  0  0  0  0  0  0  0  0  0  0
   -1.6438    1.2794   -0.0003 N   0  0  0  0  0  0  0  0  0  0  0  0
    0.7451    0.3885    0.0000 C   0  0  0  0  0  0  0  0  0  0  0  0
   -0.6677    0.3086   -0.0001 C   0  0  0  0  0  0  0  0  0  0  0  0
    1.4909   -0.8200    0.0000 C   0  0  0  0  0  0  0  0  0  0  0  0
   -1.2630   -0.9439   -0.0001 C   0  0  0  0  0  0  0  0  0  0  0  0
    0.8218   -2.0596    0.0001 C   0  0  0  0  0  0  0  0  0  0  0  0
   -0.5756   -2.1501    0.0000 C   0  0  0  0  0  0  0  0  0  0  0  0
    1.3987    1.6344   -0.0001 C   0  0  0  0  0  0  0  0  0  0  0  0
    2.8917   -0.7371    0.0001 C   0  0  0  0  0  0  0  0  0  0  0  0
   -2.7618    0.5886   -0.0001 C   0  0  0  0  0  0  0  0  0  0  0  0
    2.7914    1.6842   -0.0001 C   0  0  0  0  0  0  0  0  0  0  0  0
    3.5343    0.5042    0.0002 C   0  0  0  0  0  0  0  0  0  0  0  0
   -4.1453    1.0879    0.0006 C   0  0  0  0  0  0  0  0  0  0  0  0
    1.3953   -2.9857    0.0002 H   0  0  0  0  0  0  0  0  0  0  0  0
   -1.0859   -3.1056   -0.0001 H   0  0  0  0  0  0  0  0  0  0  0  0
    0.8346    2.5636   -0.0002 H   0  0  0  0  0  0  0  0  0  0  0  0
    3.4987   -1.6402    0.0002 H   0  0  0  0  0  0  0  0  0  0  0  0
    3.2996    2.6443   -0.0002 H   0  0  0  0  0  0  0  0  0  0  0  0
    4.6199    0.5494    0.0003 H   0  0  0  0  0  0  0  0  0  0  0  0
   -4.1630    2.1819    0.0006 H   0  0  0  0  0  0  0  0  0  0  0  0
   -4.6808    0.7382   -0.8870 H   0  0  0  0  0  0  0  0  0  0  0  0
   -4.6798    0.7383    0.8889 H   0  0  0  0  0  0  0  0  0  0  0  0
  1  6  1  0  0  0  0
  1 11  1  0  0  0  0
  2  4  1  0  0  0  0
  2 11  2  0  0  0  0
  3  4  1  0  0  0  0
  3  5  1  0  0  0  0
  3  9  2  0  0  0  0
  4  6  2  0  0  0  0
  5  7  1  0  0  0  0
  5 10  2  0  0  0  0
  6  8  1  0  0  0  0
  7  8  2  0  0  0  0
  7 15  1  0  0  0  0
  8 16  1  0  0  0  0
  9 12  1  0  0  0  0
  9 17  1  0  0  0  0
 10 13  1  0  0  0  0
 10 18  1  0  0  0  0
 11 14  1  0  0  0  0
 12 13  2  0  0  0  0
 12 19  1  0  0  0  0
 13 20  1  0  0  0  0
 14 21  1  0  0  0  0
 14 22  1  0  0  0  0
 14 23  1  0  0  0  0
M  END
> <PUBCHEM_COMPOUND_CID>
66555

> <PUBCHEM_CONFORMER_RMSD>
0.4

> <PUBCHEM_CONFORMER_DIVERSEORDER>
1

> <PUBCHEM_MMFF94_PARTIAL_CHARGES>
18
1 -0.28
10 -0.15
11 0.3
12 -0.15
13 -0.15
14 0.18
15 0.15
16 0.15
17 0.15
18 0.15
19 0.15
2 -0.57
20 0.15
4 0.23
6 0.14
7 -0.15
8 -0.15
9 -0.15

> <PUBCHEM_EFFECTIVE_ROTOR_COUNT>
0

> <PUBCHEM_PHARMACOPHORE_FEATURES>
3
5 1 2 4 6 11 rings
6 3 4 5 6 7 8 rings
6 3 5 9 10 12 13 rings

> <PUBCHEM_HEAVY_ATOM_COUNT>
14

> <PUBCHEM_ATOM_DEF_STEREO_COUNT>
0

> <PUBCHEM_ATOM_UDEF_STEREO_COUNT>
0

> <PUBCHEM_BOND_DEF_STEREO_COUNT>
0

> <PUBCHEM_BOND_UDEF_STEREO_COUNT>
0

> <PUBCHEM_ISOTOPIC_ATOM_COUNT>
0

> <PUBCHEM_COMPONENT_COUNT>
1

> <PUBCHEM_CACTVS_TAUTO_COUNT>
1

> <PUBCHEM_CONFORMER_ID>
000103FB00000001

> <PUBCHEM_MMFF94_ENERGY>
29.8518

> <PUBCHEM_FEATURE_SELFOVERLAP>
15.363

> <PUBCHEM_SHAPE_FINGERPRINT>
10465860 228 18126858092459652465
10608611 8 18339359776772735640
10967382 1 18410575041734530948
10980938 120 18337954480610785369
11132069 177 18412538816962702576
11471102 20 18338794516242713373
11543360 7 15697708307049180165
13140716 1 18409728490827229914
13380535 76 18410854364980378403
13897977 150 18410008832180519893
14144814 61 18410011052541578880
14251717 144 18339637846093179047
14325111 11 18410574019516568193
14897335 6 18412539929237880381
14911166 2 18340496577759918702
15196674 1 18410855473060562438
15219456 202 18335427854830709923
15309172 13 18411146830941696275
15442244 35 17908424658361772241
15536298 74 18272088266888058654
15775835 57 18408608071367332316
16945 1 18338517443412347622
18186145 218 18342743991868824909
193761 8 17762055849311119396
20510252 161 18054795241012164441
20645476 183 17823997803641089486
20645477 70 18268706113624081287
20871998 184 18055642973099321343
21501502 16 18266173010305283790
21524375 3 18410290319878803463
2334 1 18266741474653704806
23402539 116 18272641363996696556
23402655 69 18270106917381946453
23463225 33 18335135358920477322
23559900 14 18271535273581602364
25 1 18410011005175469887
2748010 2 18338521961781214158
335352 9 18338516318283936278
5104073 3 18410292531660159938
528886 8 18410288107959869288
53812653 166 18412822482378015504
63268167 104 18341335500335751994
69090 78 18413101784132961799
7364860 26 18269837506287972374
81228 2 17760637466563660195

> <PUBCHEM_SHAPE_MULTIPOLES>
277.26
5.66
2.1
0.6
2.24
0.6
0
-2.51
0
-0.34
0
-0.03
0
0

> <PUBCHEM_SHAPE_SELFOVERLAP>
627.845

> <PUBCHEM_SHAPE_VOLUME>
147.7

> <PUBCHEM_COORDINATE_TYPE>
2
5
10

$$$$
