74209
  -OEChem-11012401113D

 48 47  0     0  0  0  0  0  0999 V2000
    5.2061   -2.9607   -1.2777 O   0  0  0  0  0  0  0  0  0  0  0  0
    5.0737    3.1999   -0.5856 O   0  0  0  0  0  0  0  0  0  0  0  0
   -5.2784   -3.1640    0.1402 O   0  0  0  0  0  0  0  0  0  0  0  0
   -5.6748    2.9948   -0.4548 O   0  0  0  0  0  0  0  0  0  0  0  0
    3.3854   -1.6810   -1.7358 O   0  0  0  0  0  0  0  0  0  0  0  0
    3.0972    2.1524   -0.9838 O   0  0  0  0  0  0  0  0  0  0  0  0
   -3.8495   -2.1630   -1.3154 O   0  0  0  0  0  0  0  0  0  0  0  0
   -4.4466    1.6735   -1.8360 O   0  0  0  0  0  0  0  0  0  0  0  0
    3.9696   -0.0554    0.4031 N   0  0  0  0  0  0  0  0  0  0  0  0
   -3.7547    0.0692    0.2871 N   0  0  0  0  0  0  0  0  0  0  0  0
    1.1247    0.2196    1.2586 C   0  0  0  0  0  0  0  0  0  0  0  0
   -0.2409   -0.3051    1.7080 C   0  0  0  0  0  0  0  0  0  0  0  0
    2.2763   -0.2266    2.1650 C   0  0  0  0  0  0  0  0  0  0  0  0
   -1.3493    0.1437    0.7518 C   0  0  0  0  0  0  0  0  0  0  0  0
    3.6269    0.3619    1.7586 C   0  0  0  0  0  0  0  0  0  0  0  0
   -2.7167   -0.3506    1.2210 C   0  0  0  0  0  0  0  0  0  0  0  0
    4.4741   -1.4293    0.3999 C   0  0  0  0  0  0  0  0  0  0  0  0
    4.9600    0.8511   -0.1795 C   0  0  0  0  0  0  0  0  0  0  0  0
   -4.9168   -0.8170    0.3755 C   0  0  0  0  0  0  0  0  0  0  0  0
   -4.1518    1.4542    0.5463 C   0  0  0  0  0  0  0  0  0  0  0  0
    4.2889   -2.0066   -0.9762 C   0  0  0  0  0  0  0  0  0  0  0  0
    4.2630    2.1116   -0.6115 C   0  0  0  0  0  0  0  0  0  0  0  0
   -4.6041   -2.0945   -0.3534 C   0  0  0  0  0  0  0  0  0  0  0  0
   -4.7622    2.0220   -0.7053 C   0  0  0  0  0  0  0  0  0  0  0  0
    1.3080   -0.1224    0.2329 H   0  0  0  0  0  0  0  0  0  0  0  0
    1.0952    1.3160    1.2277 H   0  0  0  0  0  0  0  0  0  0  0  0
   -0.2152   -1.4004    1.7548 H   0  0  0  0  0  0  0  0  0  0  0  0
   -0.4555    0.0583    2.7201 H   0  0  0  0  0  0  0  0  0  0  0  0
    2.3071   -1.3206    2.2077 H   0  0  0  0  0  0  0  0  0  0  0  0
    2.0604    0.1037    3.1894 H   0  0  0  0  0  0  0  0  0  0  0  0
   -1.1408   -0.2456   -0.2532 H   0  0  0  0  0  0  0  0  0  0  0  0
   -1.3280    1.2367    0.6804 H   0  0  0  0  0  0  0  0  0  0  0  0
    3.5373    1.4534    1.8303 H   0  0  0  0  0  0  0  0  0  0  0  0
    4.4014    0.0693    2.4796 H   0  0  0  0  0  0  0  0  0  0  0  0
   -2.9300   -0.0058    2.2416 H   0  0  0  0  0  0  0  0  0  0  0  0
   -2.6570   -1.4454    1.2763 H   0  0  0  0  0  0  0  0  0  0  0  0
    3.9214   -2.0940    1.0713 H   0  0  0  0  0  0  0  0  0  0  0  0
    5.5314   -1.4682    0.6893 H   0  0  0  0  0  0  0  0  0  0  0  0
    5.4169    0.4370   -1.0862 H   0  0  0  0  0  0  0  0  0  0  0  0
    5.7621    1.0825    0.5316 H   0  0  0  0  0  0  0  0  0  0  0  0
   -5.1847   -1.0273    1.4180 H   0  0  0  0  0  0  0  0  0  0  0  0
   -5.7969   -0.3956   -0.1247 H   0  0  0  0  0  0  0  0  0  0  0  0
   -4.8621    1.5186    1.3796 H   0  0  0  0  0  0  0  0  0  0  0  0
   -3.3026    2.1044    0.7812 H   0  0  0  0  0  0  0  0  0  0  0  0
    5.0601   -3.3392   -2.1709 H   0  0  0  0  0  0  0  0  0  0  0  0
    4.6087    4.0094   -0.8870 H   0  0  0  0  0  0  0  0  0  0  0  0
   -5.0769   -3.9850   -0.3575 H   0  0  0  0  0  0  0  0  0  0  0  0
   -6.0496    3.3665   -1.2816 H   0  0  0  0  0  0  0  0  0  0  0  0
  1 21  1  0  0  0  0
  1 45  1  0  0  0  0
  2 22  1  0  0  0  0
  2 46  1  0  0  0  0
  3 23  1  0  0  0  0
  3 47  1  0  0  0  0
  4 24  1  0  0  0  0
  4 48  1  0  0  0  0
  5 21  2  0  0  0  0
  6 22  2  0  0  0  0
  7 23  2  0  0  0  0
  8 24  2  0  0  0  0
  9 15  1  0  0  0  0
  9 17  1  0  0  0  0
  9 18  1  0  0  0  0
 10 16  1  0  0  0  0
 10 19  1  0  0  0  0
 10 20  1  0  0  0  0
 11 12  1  0  0  0  0
 11 13  1  0  0  0  0
 11 25  1  0  0  0  0
 11 26  1  0  0  0  0
 12 14  1  0  0  0  0
 12 27  1  0  0  0  0
 12 28  1  0  0  0  0
 13 15  1  0  0  0  0
 13 29  1  0  0  0  0
 13 30  1  0  0  0  0
 14 16  1  0  0  0  0
 14 31  1  0  0  0  0
 14 32  1  0  0  0  0
 15 33  1  0  0  0  0
 15 34  1  0  0  0  0
 16 35  1  0  0  0  0
 16 36  1  0  0  0  0
 17 21  1  0  0  0  0
 17 37  1  0  0  0  0
 17 38  1  0  0  0  0
 18 22  1  0  0  0  0
 18 39  1  0  0  0  0
 18 40  1  0  0  0  0
 19 23  1  0  0  0  0
 19 41  1  0  0  0  0
 19 42  1  0  0  0  0
 20 24  1  0  0  0  0
 20 43  1  0  0  0  0
 20 44  1  0  0  0  0
M  END
> <PUBCHEM_COMPOUND_CID>
74209

> <PUBCHEM_CONFORMER_RMSD>
1.2

> <PUBCHEM_CONFORMER_DIVERSEORDER>
1
29
24
32
25
31
22
11
34
16
3
12
4
35
8
7
13
14
20
19
27
17
26
6
21
33
18
5
9
10
28
2
23
15
30

> <PUBCHEM_MMFF94_PARTIAL_CHARGES>
24
1 -0.65
10 -0.81
15 0.27
16 0.27
17 0.33
18 0.33
19 0.33
2 -0.65
20 0.33
21 0.66
22 0.66
23 0.66
24 0.66
3 -0.65
4 -0.65
45 0.5
46 0.5
47 0.5
48 0.5
5 -0.57
6 -0.57
7 -0.57
8 -0.57
9 -0.81

> <PUBCHEM_EFFECTIVE_ROTOR_COUNT>
15

> <PUBCHEM_PHARMACOPHORE_FEATURES>
15
1 1 acceptor
1 10 cation
1 2 acceptor
1 3 acceptor
1 4 acceptor
1 5 acceptor
1 6 acceptor
1 7 acceptor
1 8 acceptor
1 9 cation
3 1 5 21 anion
3 2 6 22 anion
3 3 7 23 anion
3 4 8 24 anion
4 11 12 13 14 hydrophobe

> <PUBCHEM_HEAVY_ATOM_COUNT>
24

> <PUBCHEM_ATOM_DEF_STEREO_COUNT>
0

> <PUBCHEM_ATOM_UDEF_STEREO_COUNT>
0

> <PUBCHEM_BOND_DEF_STEREO_COUNT>
0

> <PUBCHEM_BOND_UDEF_STEREO_COUNT>
0

> <PUBCHEM_ISOTOPIC_ATOM_COUNT>
0

> <PUBCHEM_COMPONENT_COUNT>
1

> <PUBCHEM_CACTVS_TAUTO_COUNT>
1

> <PUBCHEM_CONFORMER_ID>
000121E100000001

> <PUBCHEM_MMFF94_ENERGY>
33.9389

> <PUBCHEM_FEATURE_SELFOVERLAP>
76.361

> <PUBCHEM_SHAPE_FINGERPRINT>
11089746 13 17603578643280591632
11796584 16 18271802363658115722
12616971 3 17241312574125840545
14251751 18 18201722816982381446
14528608 73 17895190034376979712
15537594 2 16988285381798417470
15799311 1 17631752546073444107
17844677 252 18260553316049422137
17857418 61 15697423443385165963
21315764 119 18200030612573025625
22061861 79 17846211129566593435
22393880 68 18340200804552866779
23559900 14 18200870669452917514
3004659 81 18272935990685799386
312425 83 18409171012830935330
34797466 226 18408045125946255385
59755656 520 18059017164928373201
633830 44 18113615681408917458
90127 26 18040443182659663001
960060 61 17775002362921900672

> <PUBCHEM_SHAPE_MULTIPOLES>
436.99
16.51
3.44
1.75
5.19
0.12
-0.28
0.57
5.33
0.64
2
-0.97
-0.22
1.04

> <PUBCHEM_SHAPE_SELFOVERLAP>
848.575

> <PUBCHEM_SHAPE_VOLUME>
263.3

> <PUBCHEM_COORDINATE_TYPE>
2
5
10

$$$$
