145579
  -OEChem-11012401173D

 41 42  0     0  0  0  0  0  0999 V2000
    4.7356   -1.2007   -0.0520 O   0  0  0  0  0  0  0  0  0  0  0  0
   -4.7349   -1.2118    0.0878 O   0  0  0  0  0  0  0  0  0  0  0  0
    1.1854    0.7267    0.1418 N   0  0  0  0  0  0  0  0  0  0  0  0
   -1.1944    0.7255   -0.1750 N   0  0  0  0  0  0  0  0  0  0  0  0
    2.5666   -0.9669   -0.8383 N   0  0  0  0  0  0  0  0  0  0  0  0
    3.5512    0.7112    0.5131 N   0  0  0  0  0  0  0  0  0  0  0  0
   -2.5479   -0.9800    0.8232 N   0  0  0  0  0  0  0  0  0  0  0  0
   -3.5686    0.7078   -0.4886 N   0  0  0  0  0  0  0  0  0  0  0  0
   -0.0036    1.5603   -0.0273 C   0  0  0  0  0  0  0  0  0  0  0  0
    1.3868   -0.1243   -1.0267 C   0  0  0  0  0  0  0  0  0  0  0  0
    2.3726    1.5555    0.3245 C   0  0  0  0  0  0  0  0  0  0  0  0
   -1.3656   -0.1364    0.9904 C   0  0  0  0  0  0  0  0  0  0  0  0
   -2.3877    1.5532   -0.3212 C   0  0  0  0  0  0  0  0  0  0  0  0
    3.7000   -0.5330   -0.1265 C   0  0  0  0  0  0  0  0  0  0  0  0
   -3.6991   -0.5424    0.1432 C   0  0  0  0  0  0  0  0  0  0  0  0
    2.6028   -2.2144   -1.5889 C   0  0  0  0  0  0  0  0  0  0  0  0
    4.6667    1.3018    1.2398 C   0  0  0  0  0  0  0  0  0  0  0  0
   -2.5631   -2.2342    1.5632 C   0  0  0  0  0  0  0  0  0  0  0  0
   -4.7028    1.3023   -1.1827 C   0  0  0  0  0  0  0  0  0  0  0  0
    0.1072    2.2047   -0.9102 H   0  0  0  0  0  0  0  0  0  0  0  0
   -0.1144    2.2208    0.8437 H   0  0  0  0  0  0  0  0  0  0  0  0
    1.5373    0.4540   -1.9476 H   0  0  0  0  0  0  0  0  0  0  0  0
    0.5401   -0.8016   -1.1809 H   0  0  0  0  0  0  0  0  0  0  0  0
    2.2576    2.1730    1.2230 H   0  0  0  0  0  0  0  0  0  0  0  0
    2.5661    2.2147   -0.5312 H   0  0  0  0  0  0  0  0  0  0  0  0
   -1.4946    0.4332    1.9200 H   0  0  0  0  0  0  0  0  0  0  0  0
   -0.5161   -0.8156    1.1184 H   0  0  0  0  0  0  0  0  0  0  0  0
   -2.2953    2.1790   -1.2166 H   0  0  0  0  0  0  0  0  0  0  0  0
   -2.5620    2.2042    0.5449 H   0  0  0  0  0  0  0  0  0  0  0  0
    2.5548   -1.9813   -2.6566 H   0  0  0  0  0  0  0  0  0  0  0  0
    1.7400   -2.8240   -1.3056 H   0  0  0  0  0  0  0  0  0  0  0  0
    3.5167   -2.7793   -1.3892 H   0  0  0  0  0  0  0  0  0  0  0  0
    5.0096    2.1858    0.6945 H   0  0  0  0  0  0  0  0  0  0  0  0
    5.4992    0.6011    1.3405 H   0  0  0  0  0  0  0  0  0  0  0  0
    4.3254    1.5936    2.2372 H   0  0  0  0  0  0  0  0  0  0  0  0
   -3.4808   -2.7990    1.3815 H   0  0  0  0  0  0  0  0  0  0  0  0
   -2.4886   -2.0107    2.6314 H   0  0  0  0  0  0  0  0  0  0  0  0
   -1.7068   -2.8398    1.2528 H   0  0  0  0  0  0  0  0  0  0  0  0
   -5.0342    2.1806   -0.6213 H   0  0  0  0  0  0  0  0  0  0  0  0
   -5.5359    0.6006   -1.2694 H   0  0  0  0  0  0  0  0  0  0  0  0
   -4.3865    1.6038   -2.1854 H   0  0  0  0  0  0  0  0  0  0  0  0
  1 14  2  0  0  0  0
  2 15  2  0  0  0  0
  3  9  1  0  0  0  0
  3 10  1  0  0  0  0
  3 11  1  0  0  0  0
  4  9  1  0  0  0  0
  4 12  1  0  0  0  0
  4 13  1  0  0  0  0
  5 10  1  0  0  0  0
  5 14  1  0  0  0  0
  5 16  1  0  0  0  0
  6 11  1  0  0  0  0
  6 14  1  0  0  0  0
  6 17  1  0  0  0  0
  7 12  1  0  0  0  0
  7 15  1  0  0  0  0
  7 18  1  0  0  0  0
  8 13  1  0  0  0  0
  8 15  1  0  0  0  0
  8 19  1  0  0  0  0
  9 20  1  0  0  0  0
  9 21  1  0  0  0  0
 10 22  1  0  0  0  0
 10 23  1  0  0  0  0
 11 24  1  0  0  0  0
 11 25  1  0  0  0  0
 12 26  1  0  0  0  0
 12 27  1  0  0  0  0
 13 28  1  0  0  0  0
 13 29  1  0  0  0  0
 16 30  1  0  0  0  0
 16 31  1  0  0  0  0
 16 32  1  0  0  0  0
 17 33  1  0  0  0  0
 17 34  1  0  0  0  0
 17 35  1  0  0  0  0
 18 36  1  0  0  0  0
 18 37  1  0  0  0  0
 18 38  1  0  0  0  0
 19 39  1  0  0  0  0
 19 40  1  0  0  0  0
 19 41  1  0  0  0  0
M  END
> <PUBCHEM_COMPOUND_CID>
145579

> <PUBCHEM_CONFORMER_RMSD>
0.6

> <PUBCHEM_CONFORMER_DIVERSEORDER>
1
6
5
2
3
4

> <PUBCHEM_MMFF94_PARTIAL_CHARGES>
19
1 -0.57
10 0.57
11 0.57
12 0.57
13 0.57
14 0.69
15 0.69
16 0.3
17 0.3
18 0.3
19 0.3
2 -0.57
3 -0.81
4 -0.81
5 -0.66
6 -0.66
7 -0.66
8 -0.66
9 0.54

> <PUBCHEM_EFFECTIVE_ROTOR_COUNT>
4

> <PUBCHEM_PHARMACOPHORE_FEATURES>
6
1 1 acceptor
1 2 acceptor
1 3 cation
1 4 cation
6 3 5 6 10 11 14 rings
6 4 7 8 12 13 15 rings

> <PUBCHEM_HEAVY_ATOM_COUNT>
19

> <PUBCHEM_ATOM_DEF_STEREO_COUNT>
0

> <PUBCHEM_ATOM_UDEF_STEREO_COUNT>
0

> <PUBCHEM_BOND_DEF_STEREO_COUNT>
0

> <PUBCHEM_BOND_UDEF_STEREO_COUNT>
0

> <PUBCHEM_ISOTOPIC_ATOM_COUNT>
0

> <PUBCHEM_COMPONENT_COUNT>
1

> <PUBCHEM_CACTVS_TAUTO_COUNT>
1

> <PUBCHEM_CONFORMER_ID>
000238AB00000001

> <PUBCHEM_MMFF94_ENERGY>
50.0868

> <PUBCHEM_FEATURE_SELFOVERLAP>
30.477

> <PUBCHEM_SHAPE_FINGERPRINT>
10366900 7 18272938193819009328
11615757 297 16487253270464925256
12236239 1 15647051555768251093
12346177 29 18113052761958090559
13296908 3 18410580586516282540
13544592 145 18335423405049386493
14115302 16 17821736021906611813
14252887 29 18343309166926308128
14289901 80 17275102791071481658
14386348 63 18410577283691648206
15219456 202 18413669119147895344
15375358 24 18410852165888291232
15635459 17 18341622498778068334
15880784 105 17418372510419060774
17834072 14 18411136935110166689
18186145 218 18260828151334117237
19141452 34 18341620377797395235
200 152 17632853114399993109
20279233 1 18410859858174724876
204376 136 17774436226287335848
20645476 183 15792022172854686393
20645477 70 18131347479987161838
20693207 138 18268159660217862798
21065201 7 18040148517759141265
21079973 296 18335421283135159960
22854114 59 17989203772173857496
23402539 116 18187351143376686333
23557571 272 18334016098722123781
23559900 14 18334576820104223252
26918003 58 18271802393569528736
33824 294 18273213093227300150
474 4 15768344276045256768
5104073 3 18200872885835299752
5283173 99 18335694984438005533
81228 2 18192445081711113192
9709674 26 18409452504956016087

> <PUBCHEM_SHAPE_MULTIPOLES>
349.39
10.18
2.12
1.26
0.11
0.65
0
0.44
0.06
0.01
0.01
-0.06
0.48
2.47

> <PUBCHEM_SHAPE_SELFOVERLAP>
704.354

> <PUBCHEM_SHAPE_VOLUME>
202.1

> <PUBCHEM_COORDINATE_TYPE>
2
5
10

$$$$
