15518
  -OEChem-11012400383D

 25 26  0     0  0  0  0  0  0999 V2000
   -2.2023   -0.7064    0.1185 C   0  0  0  0  0  0  0  0  0  0  0  0
   -0.7324   -0.4397    0.0404 C   0  0  0  0  0  0  0  0  0  0  0  0
   -2.7744    0.6594   -0.2899 C   0  0  0  0  0  0  0  0  0  0  0  0
   -1.7469    1.7166    0.1419 C   0  0  0  0  0  0  0  0  0  0  0  0
   -0.4738    0.9360    0.0537 C   0  0  0  0  0  0  0  0  0  0  0  0
    0.3012   -1.3604    0.0059 C   0  0  0  0  0  0  0  0  0  0  0  0
    0.8235    1.4193    0.0328 C   0  0  0  0  0  0  0  0  0  0  0  0
    1.8720    0.4980   -0.0146 C   0  0  0  0  0  0  0  0  0  0  0  0
    1.6127   -0.8817   -0.0280 C   0  0  0  0  0  0  0  0  0  0  0  0
    0.0381   -2.8260   -0.0007 C   0  0  0  0  0  0  0  0  0  0  0  0
    3.2823    0.9848   -0.0599 C   0  0  0  0  0  0  0  0  0  0  0  0
   -2.5299   -1.4910   -0.5691 H   0  0  0  0  0  0  0  0  0  0  0  0
   -2.4857   -0.9623    1.1447 H   0  0  0  0  0  0  0  0  0  0  0  0
   -3.7657    0.8416    0.1367 H   0  0  0  0  0  0  0  0  0  0  0  0
   -2.8829    0.6905   -1.3832 H   0  0  0  0  0  0  0  0  0  0  0  0
   -1.9207    2.0391    1.1735 H   0  0  0  0  0  0  0  0  0  0  0  0
   -1.7572    2.5801   -0.5290 H   0  0  0  0  0  0  0  0  0  0  0  0
    1.0131    2.4878    0.0505 H   0  0  0  0  0  0  0  0  0  0  0  0
    2.4450   -1.5816   -0.0658 H   0  0  0  0  0  0  0  0  0  0  0  0
   -0.4499   -3.1195   -0.9357 H   0  0  0  0  0  0  0  0  0  0  0  0
    0.9630   -3.4058    0.0897 H   0  0  0  0  0  0  0  0  0  0  0  0
   -0.6034   -3.1052    0.8417 H   0  0  0  0  0  0  0  0  0  0  0  0
    3.3778    1.9712    0.4065 H   0  0  0  0  0  0  0  0  0  0  0  0
    3.9489    0.3074    0.4845 H   0  0  0  0  0  0  0  0  0  0  0  0
    3.6219    1.0550   -1.0980 H   0  0  0  0  0  0  0  0  0  0  0  0
  1  2  1  0  0  0  0
  1  3  1  0  0  0  0
  1 12  1  0  0  0  0
  1 13  1  0  0  0  0
  2  5  1  0  0  0  0
  2  6  2  0  0  0  0
  3  4  1  0  0  0  0
  3 14  1  0  0  0  0
  3 15  1  0  0  0  0
  4  5  1  0  0  0  0
  4 16  1  0  0  0  0
  4 17  1  0  0  0  0
  5  7  2  0  0  0  0
  6  9  1  0  0  0  0
  6 10  1  0  0  0  0
  7  8  1  0  0  0  0
  7 18  1  0  0  0  0
  8  9  2  0  0  0  0
  8 11  1  0  0  0  0
  9 19  1  0  0  0  0
 10 20  1  0  0  0  0
 10 21  1  0  0  0  0
 10 22  1  0  0  0  0
 11 23  1  0  0  0  0
 11 24  1  0  0  0  0
 11 25  1  0  0  0  0
M  END
> <PUBCHEM_COMPOUND_CID>
15518

> <PUBCHEM_CONFORMER_RMSD>
0.4

> <PUBCHEM_CONFORMER_DIVERSEORDER>
1

> <PUBCHEM_MMFF94_PARTIAL_CHARGES>
12
1 0.14
10 0.14
11 0.14
18 0.15
19 0.15
2 -0.14
4 0.14
5 -0.14
6 -0.14
7 -0.15
8 -0.14
9 -0.15

> <PUBCHEM_EFFECTIVE_ROTOR_COUNT>
0.6

> <PUBCHEM_PHARMACOPHORE_FEATURES>
2
5 1 2 3 4 5 rings
6 2 5 6 7 8 9 rings

> <PUBCHEM_HEAVY_ATOM_COUNT>
11

> <PUBCHEM_ATOM_DEF_STEREO_COUNT>
0

> <PUBCHEM_ATOM_UDEF_STEREO_COUNT>
0

> <PUBCHEM_BOND_DEF_STEREO_COUNT>
0

> <PUBCHEM_BOND_UDEF_STEREO_COUNT>
0

> <PUBCHEM_ISOTOPIC_ATOM_COUNT>
0

> <PUBCHEM_COMPONENT_COUNT>
1

> <PUBCHEM_CACTVS_TAUTO_COUNT>
1

> <PUBCHEM_CONFORMER_ID>
00003C9E00000001

> <PUBCHEM_MMFF94_ENERGY>
27.4577

> <PUBCHEM_FEATURE_SELFOVERLAP>
10.232

> <PUBCHEM_SHAPE_FINGERPRINT>
1 1 18338515227256708886
12423570 1 17175164034780265301
12524768 44 18046913679945580141
12897270 3 18410855430248182581
13380535 76 18335698308747291603
14325111 11 18410575084916565836
16945 1 18266741466211489264
193761 8 17762336907829074088
20645476 183 17822870787164069142
20645477 70 18196082258450206791
20871998 184 17983866867128493910
21040471 1 18410574028338520432
21501502 16 18266455395815126121
23235685 24 18410006654358053996
2334 1 18410857650751406330
23402539 116 18270669999698313790
23402655 69 18268413673870489093
23463225 33 18262231115227884498
23552423 10 18122345683701123471
23559900 14 18271252720589439660
241688 4 16681472889748745034
2748010 2 18410016502796983758
5084963 1 18131354136864781896
528886 8 18410569591537239433
53812653 166 18343016709486457480
54173680 148 18049161365254929650
7364860 26 18053942853344878342

> <PUBCHEM_SHAPE_MULTIPOLES>
226.37
3.71
2.33
0.63
0.8
1.46
0
-1.61
0.18
-0.05
-0.04
-0.03
-0.01
0.01

> <PUBCHEM_SHAPE_SELFOVERLAP>
483.56

> <PUBCHEM_SHAPE_VOLUME>
121.4

> <PUBCHEM_COORDINATE_TYPE>
2
5
10

$$$$
