138243
  -OEChem-11012401273D

 29 29  0     1  0  0  0  0  0999 V2000
    2.7503    0.1097   -0.1094 O   0  0  0  0  0  0  0  0  0  0  0  0
    3.1209   -2.1324    0.2005 O   0  0  0  0  0  0  0  0  0  0  0  0
   -3.6315    0.9561    0.6029 O   0  0  0  0  0  0  0  0  0  0  0  0
    0.4452    0.0628   -0.4543 C   0  0  1  0  0  0  0  0  0  0  0  0
    1.6049    0.9866   -0.0728 C   0  0  0  0  0  0  0  0  0  0  0  0
    0.8610   -1.2611    0.1630 C   0  0  0  0  0  0  0  0  0  0  0  0
   -0.9444    0.5127   -0.0332 C   0  0  0  0  0  0  0  0  0  0  0  0
    1.5201    1.5901    1.3329 C   0  0  0  0  0  0  0  0  0  0  0  0
    1.8167    2.0934   -1.1047 C   0  0  0  0  0  0  0  0  0  0  0  0
    2.3572   -1.1864    0.0849 C   0  0  0  0  0  0  0  0  0  0  0  0
   -2.0026   -0.5238   -0.3991 C   0  0  0  0  0  0  0  0  0  0  0  0
   -3.3968   -0.1124    0.0405 C   0  0  0  0  0  0  0  0  0  0  0  0
   -4.5010   -1.0952   -0.2513 C   0  0  0  0  0  0  0  0  0  0  0  0
    0.4499   -0.0753   -1.5460 H   0  0  0  0  0  0  0  0  0  0  0  0
    0.4974   -2.1106   -0.4215 H   0  0  0  0  0  0  0  0  0  0  0  0
    0.5633   -1.3575    1.2113 H   0  0  0  0  0  0  0  0  0  0  0  0
   -1.1837    1.4714   -0.5093 H   0  0  0  0  0  0  0  0  0  0  0  0
   -0.9850    0.6832    1.0493 H   0  0  0  0  0  0  0  0  0  0  0  0
    2.4575    2.0982    1.5884 H   0  0  0  0  0  0  0  0  0  0  0  0
    0.7069    2.3178    1.4162 H   0  0  0  0  0  0  0  0  0  0  0  0
    1.3773    0.8176    2.0962 H   0  0  0  0  0  0  0  0  0  0  0  0
    1.9791    1.6737   -2.1040 H   0  0  0  0  0  0  0  0  0  0  0  0
    0.9609    2.7744   -1.1475 H   0  0  0  0  0  0  0  0  0  0  0  0
    2.7142    2.6771   -0.8700 H   0  0  0  0  0  0  0  0  0  0  0  0
   -2.0215   -0.6741   -1.4841 H   0  0  0  0  0  0  0  0  0  0  0  0
   -1.7897   -1.4832    0.0840 H   0  0  0  0  0  0  0  0  0  0  0  0
   -4.3020   -2.0352    0.2692 H   0  0  0  0  0  0  0  0  0  0  0  0
   -4.5640   -1.2660   -1.3288 H   0  0  0  0  0  0  0  0  0  0  0  0
   -5.4555   -0.6926    0.0988 H   0  0  0  0  0  0  0  0  0  0  0  0
  1  5  1  0  0  0  0
  1 10  1  0  0  0  0
  2 10  2  0  0  0  0
  3 12  2  0  0  0  0
  4  5  1  0  0  0  0
  4  6  1  0  0  0  0
  4  7  1  0  0  0  0
  4 14  1  0  0  0  0
  5  8  1  0  0  0  0
  5  9  1  0  0  0  0
  6 10  1  0  0  0  0
  6 15  1  0  0  0  0
  6 16  1  0  0  0  0
  7 11  1  0  0  0  0
  7 17  1  0  0  0  0
  7 18  1  0  0  0  0
  8 19  1  0  0  0  0
  8 20  1  0  0  0  0
  8 21  1  0  0  0  0
  9 22  1  0  0  0  0
  9 23  1  0  0  0  0
  9 24  1  0  0  0  0
 11 12  1  0  0  0  0
 11 25  1  0  0  0  0
 11 26  1  0  0  0  0
 12 13  1  0  0  0  0
 13 27  1  0  0  0  0
 13 28  1  0  0  0  0
 13 29  1  0  0  0  0
M  END
> <PUBCHEM_COMPOUND_CID>
138243

> <PUBCHEM_CONFORMER_RMSD>
0.6

> <PUBCHEM_CONFORMER_DIVERSEORDER>
1
29
24
28
27
39
12
25
40
26
34
31
30
9
35
23
33
6
37
38
13
36
3
32
4
10
19
11
14
18
2
21
15
7
20
5
16
8
22
17

> <PUBCHEM_MMFF94_PARTIAL_CHARGES>
9
1 -0.43
10 0.66
11 0.06
12 0.45
13 0.06
2 -0.57
3 -0.57
5 0.28
6 0.06

> <PUBCHEM_EFFECTIVE_ROTOR_COUNT>
3.8

> <PUBCHEM_PHARMACOPHORE_FEATURES>
4
1 2 acceptor
1 3 acceptor
3 5 8 9 hydrophobe
5 1 4 5 6 10 rings

> <PUBCHEM_HEAVY_ATOM_COUNT>
13

> <PUBCHEM_ATOM_DEF_STEREO_COUNT>
0

> <PUBCHEM_ATOM_UDEF_STEREO_COUNT>
1

> <PUBCHEM_BOND_DEF_STEREO_COUNT>
0

> <PUBCHEM_BOND_UDEF_STEREO_COUNT>
0

> <PUBCHEM_ISOTOPIC_ATOM_COUNT>
0

> <PUBCHEM_COMPONENT_COUNT>
1

> <PUBCHEM_CACTVS_TAUTO_COUNT>
6

> <PUBCHEM_CONFORMER_ID>
00021C0300000001

> <PUBCHEM_MMFF94_ENERGY>
21.7053

> <PUBCHEM_FEATURE_SELFOVERLAP>
20.297

> <PUBCHEM_SHAPE_FINGERPRINT>
12346645 6 18188771772355072980
12932764 1 17917430986154831477
14144814 61 18273496771479769147
14251717 144 18407755958625341967
14325111 11 18411701006582782783
14344429 50 17704072936348898608
15442244 35 18339082571167330697
15477762 27 18335139795347543438
15501101 241 18335419054036590556
15775835 57 18130227176206642037
16945 1 18261685839101802860
17041 49 18130793300288594993
18186145 218 18040428880972279171
19422 9 18412549816701066599
20279233 1 16370720470091377297
20339313 130 18334018259164260396
20559304 39 18131353015931032633
20645477 70 18335133203058333215
20653091 64 18410014303990084056
20671657 1 18338240482599278596
20708731 107 18334298690579936812
20711985 344 16589418692790911589
20871998 22 18125723387996648398
21501925 9 18411972564063509491
21524375 3 17028819037102648796
21730867 7 18186517734958176967
2255824 54 18334297582341464606
22854114 111 18271242836909296689
22959321 4 18410293631747033527
23557571 272 14764630794352716265
2748010 2 18118944928833599300
3248919 1 18115022021738049889
581208 293 18262512714558167095
7364860 26 18343300400929724808

> <PUBCHEM_SHAPE_MULTIPOLES>
249.93
6.63
1.95
0.9
8.39
0.1
0.08
1.58
0.11
-1.85
0
-0.31
-0.44
-0.44

> <PUBCHEM_SHAPE_SELFOVERLAP>
498.479

> <PUBCHEM_SHAPE_VOLUME>
150.3

> <PUBCHEM_COORDINATE_TYPE>
2
5
10

$$$$
