129862434
  -OEChem-11012401163D

 49 48  0     0  0  0  0  0  0999 V2000
    3.4347    0.0207    0.0808 Si  0  0  0  0  0  0  0  0  0  0  0  0
    1.8228   -0.1261   -0.4941 N   0  0  0  0  0  0  0  0  0  0  0  0
    3.8937   -1.5163    1.0427 C   0  0  0  0  0  0  0  0  0  0  0  0
    4.5836    0.2101   -1.3848 C   0  0  0  0  0  0  0  0  0  0  0  0
    3.5765    1.5243    1.1839 C   0  0  0  0  0  0  0  0  0  0  0  0
    0.6430   -0.2906    0.3468 C   0  0  0  0  0  0  0  0  0  0  0  0
   -0.6276   -0.0722   -0.4730 C   0  0  0  0  0  0  0  0  0  0  0  0
   -1.8796   -0.2315    0.3937 C   0  0  0  0  0  0  0  0  0  0  0  0
    3.8161   -2.8255    0.2681 C   0  0  0  0  0  0  0  0  0  0  0  0
    6.0632    0.3435   -1.0485 C   0  0  0  0  0  0  0  0  0  0  0  0
    3.2224    2.8547    0.5323 C   0  0  0  0  0  0  0  0  0  0  0  0
   -3.1516    0.0214   -0.4188 C   0  0  0  0  0  0  0  0  0  0  0  0
   -4.4378   -0.1479    0.3963 C   0  0  0  0  0  0  0  0  0  0  0  0
   -5.7078    0.1310   -0.4120 C   0  0  0  0  0  0  0  0  0  0  0  0
   -6.9932   -0.0981    0.3874 C   0  0  0  0  0  0  0  0  0  0  0  0
   -8.2586    0.2024   -0.4010 C   0  0  0  0  0  0  0  0  0  0  0  0
    4.9126   -1.3986    1.4294 H   0  0  0  0  0  0  0  0  0  0  0  0
    3.2386   -1.5905    1.9186 H   0  0  0  0  0  0  0  0  0  0  0  0
    4.4544   -0.6532   -2.0479 H   0  0  0  0  0  0  0  0  0  0  0  0
    4.2770    1.0900   -1.9622 H   0  0  0  0  0  0  0  0  0  0  0  0
    2.9314    1.3817    2.0587 H   0  0  0  0  0  0  0  0  0  0  0  0
    4.6022    1.5846    1.5656 H   0  0  0  0  0  0  0  0  0  0  0  0
    1.7737   -0.7863   -1.2698 H   0  0  0  0  0  0  0  0  0  0  0  0
    0.6571    0.4329    1.1716 H   0  0  0  0  0  0  0  0  0  0  0  0
    0.6335   -1.2947    0.7884 H   0  0  0  0  0  0  0  0  0  0  0  0
   -0.6650   -0.7897   -1.3024 H   0  0  0  0  0  0  0  0  0  0  0  0
   -0.6143    0.9323   -0.9148 H   0  0  0  0  0  0  0  0  0  0  0  0
   -1.8396    0.4705    1.2354 H   0  0  0  0  0  0  0  0  0  0  0  0
   -1.9089   -1.2430    0.8163 H   0  0  0  0  0  0  0  0  0  0  0  0
    2.8024   -3.0172   -0.1002 H   0  0  0  0  0  0  0  0  0  0  0  0
    4.4947   -2.8254   -0.5916 H   0  0  0  0  0  0  0  0  0  0  0  0
    4.0992   -3.6616    0.9161 H   0  0  0  0  0  0  0  0  0  0  0  0
    6.2571    1.2243   -0.4271 H   0  0  0  0  0  0  0  0  0  0  0  0
    6.4359   -0.5371   -0.5146 H   0  0  0  0  0  0  0  0  0  0  0  0
    6.6485    0.4486   -1.9681 H   0  0  0  0  0  0  0  0  0  0  0  0
    3.8782    3.0743   -0.3170 H   0  0  0  0  0  0  0  0  0  0  0  0
    2.1875    2.8650    0.1732 H   0  0  0  0  0  0  0  0  0  0  0  0
    3.3322    3.6680    1.2573 H   0  0  0  0  0  0  0  0  0  0  0  0
   -3.1781   -0.6658   -1.2736 H   0  0  0  0  0  0  0  0  0  0  0  0
   -3.1204    1.0378   -0.8307 H   0  0  0  0  0  0  0  0  0  0  0  0
   -4.4081    0.5247    1.2623 H   0  0  0  0  0  0  0  0  0  0  0  0
   -4.4783   -1.1707    0.7907 H   0  0  0  0  0  0  0  0  0  0  0  0
   -5.7195   -0.5128   -1.3002 H   0  0  0  0  0  0  0  0  0  0  0  0
   -5.6847    1.1670   -0.7718 H   0  0  0  0  0  0  0  0  0  0  0  0
   -7.0275   -1.1393    0.7296 H   0  0  0  0  0  0  0  0  0  0  0  0
   -6.9790    0.5313    1.2852 H   0  0  0  0  0  0  0  0  0  0  0  0
   -8.3257   -0.4348   -1.2883 H   0  0  0  0  0  0  0  0  0  0  0  0
   -8.2767    1.2474   -0.7262 H   0  0  0  0  0  0  0  0  0  0  0  0
   -9.1438    0.0219    0.2168 H   0  0  0  0  0  0  0  0  0  0  0  0
  1  2  1  0  0  0  0
  1  3  1  0  0  0  0
  1  4  1  0  0  0  0
  1  5  1  0  0  0  0
  2  6  1  0  0  0  0
  2 23  1  0  0  0  0
  3  9  1  0  0  0  0
  3 17  1  0  0  0  0
  3 18  1  0  0  0  0
  4 10  1  0  0  0  0
  4 19  1  0  0  0  0
  4 20  1  0  0  0  0
  5 11  1  0  0  0  0
  5 21  1  0  0  0  0
  5 22  1  0  0  0  0
  6  7  1  0  0  0  0
  6 24  1  0  0  0  0
  6 25  1  0  0  0  0
  7  8  1  0  0  0  0
  7 26  1  0  0  0  0
  7 27  1  0  0  0  0
  8 12  1  0  0  0  0
  8 28  1  0  0  0  0
  8 29  1  0  0  0  0
  9 30  1  0  0  0  0
  9 31  1  0  0  0  0
  9 32  1  0  0  0  0
 10 33  1  0  0  0  0
 10 34  1  0  0  0  0
 10 35  1  0  0  0  0
 11 36  1  0  0  0  0
 11 37  1  0  0  0  0
 11 38  1  0  0  0  0
 12 13  1  0  0  0  0
 12 39  1  0  0  0  0
 12 40  1  0  0  0  0
 13 14  1  0  0  0  0
 13 41  1  0  0  0  0
 13 42  1  0  0  0  0
 14 15  1  0  0  0  0
 14 43  1  0  0  0  0
 14 44  1  0  0  0  0
 15 16  1  0  0  0  0
 15 45  1  0  0  0  0
 15 46  1  0  0  0  0
 16 47  1  0  0  0  0
 16 48  1  0  0  0  0
 16 49  1  0  0  0  0
M  END
> <PUBCHEM_COMPOUND_CID>
129862434

> <PUBCHEM_CONFORMER_RMSD>
1.2

> <PUBCHEM_CONFORMER_DIVERSEORDER>
1
15
47
56
61
12
42
49
59
23
2
44
66
62
9
32
10
65
24
46
31
4
21
51
34
35
19
43
64
22
14
58
48
70
29
57
25
38
33
50
13
67
53
3
69
28
63
54
30
37
16
55
52
45
41
8
26
36
68
60
27
11
39
20
5
17
40
7
6
18

> <PUBCHEM_MMFF94_PARTIAL_CHARGES>
7
1 0.59
2 -0.98
23 0.36
3 -0.08
4 -0.08
5 -0.08
6 0.27

> <PUBCHEM_EFFECTIVE_ROTOR_COUNT>
11

> <PUBCHEM_PHARMACOPHORE_FEATURES>
3
1 16 hydrophobe
3 13 14 15 hydrophobe
3 7 8 12 hydrophobe

> <PUBCHEM_HEAVY_ATOM_COUNT>
16

> <PUBCHEM_ATOM_DEF_STEREO_COUNT>
0

> <PUBCHEM_ATOM_UDEF_STEREO_COUNT>
0

> <PUBCHEM_BOND_DEF_STEREO_COUNT>
0

> <PUBCHEM_BOND_UDEF_STEREO_COUNT>
0

> <PUBCHEM_ISOTOPIC_ATOM_COUNT>
0

> <PUBCHEM_COMPONENT_COUNT>
1

> <PUBCHEM_CACTVS_TAUTO_COUNT>
1

> <PUBCHEM_CONFORMER_ID>
07BD8B2200000001

> <PUBCHEM_MMFF94_ENERGY>
-9.1464

> <PUBCHEM_FEATURE_SELFOVERLAP>
15.235

> <PUBCHEM_SHAPE_FINGERPRINT>
12616971 3 17775272868657392085
12730499 353 18334582369091265138
12916748 109 15647050452124972215
13167372 99 18202003184295308649
13533116 47 18336544928311162819
14251764 46 17530685416089344190
15183329 4 18060140921330016825
17834072 33 18342453751423032211
17834076 25 17967535683460798557
17844677 252 18412827954530626825
20281389 69 18408882915848474361
20645477 70 18114180779410910970
220451 1 18411419518864075887
221357 26 18272655640610828768
23559900 14 18187368774021991080
3004659 81 17632578253435320649
3060560 45 18060424621247538630
3545911 37 18259988188473786823
522135 26 18409729552217070538
6025842 7 18260833670530915134

> <PUBCHEM_SHAPE_MULTIPOLES>
342.5
19.8
1.92
1.09
46.05
0.03
0.07
0.68
2.77
-4.38
-0.67
-1.33
0.11
0.03

> <PUBCHEM_SHAPE_SELFOVERLAP>
601.59

> <PUBCHEM_SHAPE_VOLUME>
224.2

> <PUBCHEM_COORDINATE_TYPE>
2
5
10

$$$$
