16947
  -OEChem-11012400493D

 30 30  0     0  0  0  0  0  0999 V2000
   -2.8087    0.3392   -0.0049 O   0  0  0  0  0  0  0  0  0  0  0  0
    3.6156   -1.2601   -0.4989 O   0  0  0  0  0  0  0  0  0  0  0  0
   -2.2050   -1.8797    0.0991 O   0  0  0  0  0  0  0  0  0  0  0  0
   -0.2190    1.1497   -0.0647 N   0  0  0  0  0  0  0  0  0  0  0  0
    0.6465   -0.8933    0.0298 C   0  0  0  0  0  0  0  0  0  0  0  0
    1.7070    0.0447   -0.0236 C   0  0  0  0  0  0  0  0  0  0  0  0
    1.1432    1.3000   -0.0809 C   0  0  0  0  0  0  0  0  0  0  0  0
   -0.5331   -0.1825    0.0032 C   0  0  0  0  0  0  0  0  0  0  0  0
    0.7825   -2.3636    0.1002 C   0  0  0  0  0  0  0  0  0  0  0  0
    1.7574    2.6403   -0.1502 C   0  0  0  0  0  0  0  0  0  0  0  0
    3.1187   -0.2164   -0.0208 C   0  0  0  0  0  0  0  0  0  0  0  0
   -1.8755   -0.6731    0.0371 C   0  0  0  0  0  0  0  0  0  0  0  0
    4.0986    0.7908    0.5806 C   0  0  0  0  0  0  0  0  0  0  0  0
   -4.1926   -0.0261    0.0244 C   0  0  0  0  0  0  0  0  0  0  0  0
   -5.0355    1.2302   -0.0303 C   0  0  0  0  0  0  0  0  0  0  0  0
   -0.8908    1.9047   -0.0965 H   0  0  0  0  0  0  0  0  0  0  0  0
    0.0681   -2.7955    0.8084 H   0  0  0  0  0  0  0  0  0  0  0  0
    0.6076   -2.8106   -0.8837 H   0  0  0  0  0  0  0  0  0  0  0  0
    1.7735   -2.6735    0.4431 H   0  0  0  0  0  0  0  0  0  0  0  0
    2.5063    2.6906   -0.9462 H   0  0  0  0  0  0  0  0  0  0  0  0
    1.0083    3.4088   -0.3729 H   0  0  0  0  0  0  0  0  0  0  0  0
    2.2226    2.9121    0.8014 H   0  0  0  0  0  0  0  0  0  0  0  0
    3.6877    1.2283    1.4937 H   0  0  0  0  0  0  0  0  0  0  0  0
    4.3451    1.5614   -0.1520 H   0  0  0  0  0  0  0  0  0  0  0  0
    5.0200    0.2672    0.8560 H   0  0  0  0  0  0  0  0  0  0  0  0
   -4.4174   -0.6637   -0.8374 H   0  0  0  0  0  0  0  0  0  0  0  0
   -4.4028   -0.5760    0.9482 H   0  0  0  0  0  0  0  0  0  0  0  0
   -6.1015    0.9872   -0.0096 H   0  0  0  0  0  0  0  0  0  0  0  0
   -4.8054    1.8856    0.8161 H   0  0  0  0  0  0  0  0  0  0  0  0
   -4.8198    1.7994   -0.9406 H   0  0  0  0  0  0  0  0  0  0  0  0
  1 12  1  0  0  0  0
  1 14  1  0  0  0  0
  2 11  2  0  0  0  0
  3 12  2  0  0  0  0
  4  7  1  0  0  0  0
  4  8  1  0  0  0  0
  4 16  1  0  0  0  0
  5  6  1  0  0  0  0
  5  8  2  0  0  0  0
  5  9  1  0  0  0  0
  6  7  2  0  0  0  0
  6 11  1  0  0  0  0
  7 10  1  0  0  0  0
  8 12  1  0  0  0  0
  9 17  1  0  0  0  0
  9 18  1  0  0  0  0
  9 19  1  0  0  0  0
 10 20  1  0  0  0  0
 10 21  1  0  0  0  0
 10 22  1  0  0  0  0
 11 13  1  0  0  0  0
 13 23  1  0  0  0  0
 13 24  1  0  0  0  0
 13 25  1  0  0  0  0
 14 15  1  0  0  0  0
 14 26  1  0  0  0  0
 14 27  1  0  0  0  0
 15 28  1  0  0  0  0
 15 29  1  0  0  0  0
 15 30  1  0  0  0  0
M  END
> <PUBCHEM_COMPOUND_CID>
16947

> <PUBCHEM_CONFORMER_RMSD>
0.6

> <PUBCHEM_CONFORMER_DIVERSEORDER>
1
26
44
28
20
23
29
25
15
42
13
17
35
5
43
22
14
39
27
9
32
37
40
38
3
34
16
24
18
31
2
33
10
21
36
6
41
30
12
7
4
11
19
8

> <PUBCHEM_MMFF94_PARTIAL_CHARGES>
15
1 -0.43
10 0.18
11 0.6
12 0.81
13 0.06
14 0.28
16 0.27
2 -0.57
3 -0.57
4 0.03
5 -0.18
6 -0.09
7 -0.33
8 -0.24
9 0.18

> <PUBCHEM_EFFECTIVE_ROTOR_COUNT>
4

> <PUBCHEM_PHARMACOPHORE_FEATURES>
5
1 2 acceptor
1 3 acceptor
1 4 cation
1 4 donor
5 4 5 6 7 8 rings

> <PUBCHEM_HEAVY_ATOM_COUNT>
15

> <PUBCHEM_ATOM_DEF_STEREO_COUNT>
0

> <PUBCHEM_ATOM_UDEF_STEREO_COUNT>
0

> <PUBCHEM_BOND_DEF_STEREO_COUNT>
0

> <PUBCHEM_BOND_UDEF_STEREO_COUNT>
0

> <PUBCHEM_ISOTOPIC_ATOM_COUNT>
0

> <PUBCHEM_COMPONENT_COUNT>
1

> <PUBCHEM_CACTVS_TAUTO_COUNT>
20

> <PUBCHEM_CONFORMER_ID>
0000423300000001

> <PUBCHEM_MMFF94_ENERGY>
21.2777

> <PUBCHEM_FEATURE_SELFOVERLAP>
25.371

> <PUBCHEM_SHAPE_FINGERPRINT>
10219947 1 18412547600202490786
10608611 8 18336827601910523465
10967382 1 18410293588438437062
11132069 177 18409164424340618858
11401426 45 18342170072579258185
11471102 20 18410571769154119829
12932764 1 17241028998836144751
13140716 1 18335980986119757489
13380535 76 18409449189500057787
13571099 22 18272939323242329942
13675066 3 18412828018564427883
13922767 16 18412260666111571320
14325111 11 18266178511825944105
14911166 2 18410017610930259758
15196674 1 18411136952358867491
16945 1 18408885118137711270
18186145 218 18261385680500364092
193761 8 17761493995012162990
200 152 18060132159607210895
20645477 70 18059576845457224550
21501502 16 18048595121061079150
231179 274 17968370165810665621
2334 1 18049443935120772365
23402539 116 18130498674517695189
23402655 69 18271237232430623765
23558518 356 17827637276933139354
23559900 14 18342178886817474774
25 1 18334292054845057695
2748010 2 18192151709647813374
3060560 45 18343581806833973134
335352 9 18410575041761035070
34934 24 18411693296963771970
4072396 5 18263064557657719394
5104073 3 18410574002684924563
528886 8 18410851079330312714
53812653 166 18411132550069993930
602551 16 16009615567173546569
6430166 295 18407757032509460789

> <PUBCHEM_SHAPE_MULTIPOLES>
286.1
7.79
2.21
0.63
6.82
0.11
-0.01
2.04
-0.3
-0.75
0.06
-0.16
0.01
0.21

> <PUBCHEM_SHAPE_SELFOVERLAP>
588.639

> <PUBCHEM_SHAPE_VOLUME>
167.2

> <PUBCHEM_COORDINATE_TYPE>
2
5
10

$$$$
