141085
  -OEChem-11012401273D

 22 21  0     1  0  0  0  0  0999 V2000
    0.5627    1.3937   -0.2939 O   0  0  0  0  0  0  0  0  0  0  0  0
    1.8339    1.9030    0.1866 O   0  0  0  0  0  0  0  0  0  0  0  0
    0.4820    0.0638    0.2213 C   0  0  1  0  0  0  0  0  0  0  0  0
   -0.8744   -0.5287   -0.1810 C   0  0  0  0  0  0  0  0  0  0  0  0
    1.6727   -0.7320   -0.3268 C   0  0  0  0  0  0  0  0  0  0  0  0
   -2.0488    0.3228    0.3136 C   0  0  0  0  0  0  0  0  0  0  0  0
    1.7546   -2.1561    0.1982 C   0  0  0  0  0  0  0  0  0  0  0  0
   -3.3827   -0.2665   -0.1181 C   0  0  0  0  0  0  0  0  0  0  0  0
    0.5388    0.1139    1.3165 H   0  0  0  0  0  0  0  0  0  0  0  0
   -0.9782   -1.5441    0.2168 H   0  0  0  0  0  0  0  0  0  0  0  0
   -0.9304   -0.5951   -1.2751 H   0  0  0  0  0  0  0  0  0  0  0  0
    1.6340   -0.7469   -1.4234 H   0  0  0  0  0  0  0  0  0  0  0  0
    2.6205   -0.2420   -0.0768 H   0  0  0  0  0  0  0  0  0  0  0  0
   -1.9747    1.3432   -0.0791 H   0  0  0  0  0  0  0  0  0  0  0  0
   -2.0206    0.3922    1.4071 H   0  0  0  0  0  0  0  0  0  0  0  0
    0.9178   -2.7647   -0.1560 H   0  0  0  0  0  0  0  0  0  0  0  0
    2.6768   -2.6324   -0.1503 H   0  0  0  0  0  0  0  0  0  0  0  0
    1.7585   -2.1718    1.2926 H   0  0  0  0  0  0  0  0  0  0  0  0
   -3.4545   -0.3178   -1.2092 H   0  0  0  0  0  0  0  0  0  0  0  0
   -3.5135   -1.2766    0.2832 H   0  0  0  0  0  0  0  0  0  0  0  0
   -4.2071    0.3535    0.2478 H   0  0  0  0  0  0  0  0  0  0  0  0
    1.4640    2.4105    0.9292 H   0  0  0  0  0  0  0  0  0  0  0  0
  1  2  1  0  0  0  0
  1  3  1  0  0  0  0
  2 22  1  0  0  0  0
  3  4  1  0  0  0  0
  3  5  1  0  0  0  0
  3  9  1  0  0  0  0
  4  6  1  0  0  0  0
  4 10  1  0  0  0  0
  4 11  1  0  0  0  0
  5  7  1  0  0  0  0
  5 12  1  0  0  0  0
  5 13  1  0  0  0  0
  6  8  1  0  0  0  0
  6 14  1  0  0  0  0
  6 15  1  0  0  0  0
  7 16  1  0  0  0  0
  7 17  1  0  0  0  0
  7 18  1  0  0  0  0
  8 19  1  0  0  0  0
  8 20  1  0  0  0  0
  8 21  1  0  0  0  0
M  END
> <PUBCHEM_COMPOUND_CID>
141085

> <PUBCHEM_CONFORMER_RMSD>
0.6

> <PUBCHEM_CONFORMER_DIVERSEORDER>
1
29
6
40
25
18
31
32
2
15
30
14
33
4
26
11
9
27
10
28
35
16
46
8
34
5
41
22
24
7
23
42
36
39
21
38
20
43
12
37
19
13
3
17
44
45

> <PUBCHEM_MMFF94_PARTIAL_CHARGES>
4
1 -0.28
2 -0.4
22 0.4
3 0.28

> <PUBCHEM_EFFECTIVE_ROTOR_COUNT>
4

> <PUBCHEM_PHARMACOPHORE_FEATURES>
2
1 7 hydrophobe
1 8 hydrophobe

> <PUBCHEM_HEAVY_ATOM_COUNT>
8

> <PUBCHEM_ATOM_DEF_STEREO_COUNT>
0

> <PUBCHEM_ATOM_UDEF_STEREO_COUNT>
1

> <PUBCHEM_BOND_DEF_STEREO_COUNT>
0

> <PUBCHEM_BOND_UDEF_STEREO_COUNT>
0

> <PUBCHEM_ISOTOPIC_ATOM_COUNT>
0

> <PUBCHEM_COMPONENT_COUNT>
1

> <PUBCHEM_CACTVS_TAUTO_COUNT>
1

> <PUBCHEM_CONFORMER_ID>
0002271D00000001

> <PUBCHEM_MMFF94_ENERGY>
2.707

> <PUBCHEM_FEATURE_SELFOVERLAP>
10.149

> <PUBCHEM_SHAPE_FINGERPRINT>
12932741 1 17749113305205077659
20653091 64 18342463616435247867
20711978 78 18338784663418840621
20871998 22 18054512409037382150
21040471 1 17905893926366186172
23552333 60 18131074843868516891
23552423 10 18411699915540030183
23552449 1 17690557490486012162
23552449 11 18410852135934426467
29004967 10 18335705983658839706

> <PUBCHEM_SHAPE_MULTIPOLES>
152.9
3.98
1.86
0.65
3.45
0.33
0
-1.04
0.01
-1.78
-0.1
0.01
-0.04
-0.07

> <PUBCHEM_SHAPE_SELFOVERLAP>
267.413

> <PUBCHEM_SHAPE_VOLUME>
102

> <PUBCHEM_COORDINATE_TYPE>
2
5
10

$$$$
