6427134
  -OEChem-11012401263D

 21 21  0     1  0  0  0  0  0999 V2000
    0.7455   -0.6871   -0.4221 C   0  0  2  0  0  0  0  0  0  0  0  0
   -0.7380   -0.6912   -0.4029 C   0  0  1  0  0  0  0  0  0  0  0  0
    0.0315   -1.8534    0.1531 C   0  0  0  0  0  0  0  0  0  0  0  0
    1.4673    0.2483    0.5332 C   0  0  0  0  0  0  0  0  0  0  0  0
   -1.4294    0.2311    0.5308 C   0  0  0  0  0  0  0  0  0  0  0  0
    2.1196    1.4068   -0.2020 C   0  0  0  0  0  0  0  0  0  0  0  0
   -2.1964    1.3455   -0.1900 C   0  0  0  0  0  0  0  0  0  0  0  0
    1.2625   -0.8386   -1.3607 H   0  0  0  0  0  0  0  0  0  0  0  0
   -1.2761   -0.8637   -1.3264 H   0  0  0  0  0  0  0  0  0  0  0  0
    0.0291   -2.7759   -0.4153 H   0  0  0  0  0  0  0  0  0  0  0  0
    0.0464   -1.9979    1.2267 H   0  0  0  0  0  0  0  0  0  0  0  0
    2.2904   -0.3461    0.9554 H   0  0  0  0  0  0  0  0  0  0  0  0
    0.9385    0.6025    1.4138 H   0  0  0  0  0  0  0  0  0  0  0  0
   -0.8669    0.6745    1.3466 H   0  0  0  0  0  0  0  0  0  0  0  0
   -2.1915   -0.3720    1.0449 H   0  0  0  0  0  0  0  0  0  0  0  0
    2.7898    1.0509   -0.9915 H   0  0  0  0  0  0  0  0  0  0  0  0
    1.3610    2.0451   -0.6665 H   0  0  0  0  0  0  0  0  0  0  0  0
    2.7059    2.0184    0.4908 H   0  0  0  0  0  0  0  0  0  0  0  0
   -1.5045    1.9989   -0.7310 H   0  0  0  0  0  0  0  0  0  0  0  0
   -2.9073    0.9313   -0.9124 H   0  0  0  0  0  0  0  0  0  0  0  0
   -2.7543    1.9519    0.5302 H   0  0  0  0  0  0  0  0  0  0  0  0
  1  2  1  0  0  0  0
  1  3  1  0  0  0  0
  1  4  1  0  0  0  0
  1  8  1  0  0  0  0
  2  3  1  0  0  0  0
  2  5  1  0  0  0  0
  2  9  1  0  0  0  0
  3 10  1  0  0  0  0
  3 11  1  0  0  0  0
  4  6  1  0  0  0  0
  4 12  1  0  0  0  0
  4 13  1  0  0  0  0
  5  7  1  0  0  0  0
  5 14  1  0  0  0  0
  5 15  1  0  0  0  0
  6 16  1  0  0  0  0
  6 17  1  0  0  0  0
  6 18  1  0  0  0  0
  7 19  1  0  0  0  0
  7 20  1  0  0  0  0
  7 21  1  0  0  0  0
M  END
> <PUBCHEM_COMPOUND_CID>
6427134

> <PUBCHEM_CONFORMER_RMSD>
0.4

> <PUBCHEM_CONFORMER_DIVERSEORDER>
1
3
2
4

> <PUBCHEM_MMFF94_PARTIAL_CHARGES>
9
1 -0.19
10 0.1
11 0.1
2 -0.19
3 -0.2
4 0.09
5 0.09
8 0.1
9 0.1

> <PUBCHEM_EFFECTIVE_ROTOR_COUNT>
2.6

> <PUBCHEM_PHARMACOPHORE_FEATURES>
2
1 6 hydrophobe
1 7 hydrophobe

> <PUBCHEM_HEAVY_ATOM_COUNT>
7

> <PUBCHEM_ATOM_DEF_STEREO_COUNT>
2

> <PUBCHEM_ATOM_UDEF_STEREO_COUNT>
0

> <PUBCHEM_BOND_DEF_STEREO_COUNT>
0

> <PUBCHEM_BOND_UDEF_STEREO_COUNT>
0

> <PUBCHEM_ISOTOPIC_ATOM_COUNT>
0

> <PUBCHEM_COMPONENT_COUNT>
1

> <PUBCHEM_CACTVS_TAUTO_COUNT>
1

> <PUBCHEM_CONFORMER_ID>
006211FE00000001

> <PUBCHEM_MMFF94_ENERGY>
14.9597

> <PUBCHEM_FEATURE_SELFOVERLAP>
10.149

> <PUBCHEM_SHAPE_FINGERPRINT>
16714656 1 17909838961001096070
20096714 4 18341613685304275091
21040471 1 18412823607574985904
23552449 1 17691402331743122302
29004967 10 17689157811952063235
5084963 1 18272933829646836050
5943 1 15111699700639092078

> <PUBCHEM_SHAPE_MULTIPOLES>
144.06
2.7
1.8
0.76
0.12
0.25
0.02
-1.87
-0.01
-0.05
-0.08
-0.01
0.01
0

> <PUBCHEM_SHAPE_SELFOVERLAP>
266.616

> <PUBCHEM_SHAPE_VOLUME>
93.5

> <PUBCHEM_COORDINATE_TYPE>
2
5
10

$$$$
