3094
  -OEChem-11012401243D

 52 51  0     0  0  0  0  0  0999 V2000
    0.0008    0.2871   -0.0222 N   0  0  0  0  0  0  0  0  0  0  0  0
   -3.7237   -0.5097   -0.0212 C   0  0  0  0  0  0  0  0  0  0  0  0
    3.7234   -0.5089    0.0164 C   0  0  0  0  0  0  0  0  0  0  0  0
   -4.9755    0.3703    0.0039 C   0  0  0  0  0  0  0  0  0  0  0  0
    4.9755    0.3705   -0.0117 C   0  0  0  0  0  0  0  0  0  0  0  0
   -2.4496    0.3392   -0.0313 C   0  0  0  0  0  0  0  0  0  0  0  0
    2.4495    0.3402    0.0047 C   0  0  0  0  0  0  0  0  0  0  0  0
   -1.2002   -0.5398   -0.0211 C   0  0  0  0  0  0  0  0  0  0  0  0
    1.1999   -0.5388   -0.0024 C   0  0  0  0  0  0  0  0  0  0  0  0
   -6.2820   -0.4300   -0.0086 C   0  0  0  0  0  0  0  0  0  0  0  0
    6.2817   -0.4296    0.0221 C   0  0  0  0  0  0  0  0  0  0  0  0
   -7.5325    0.4518    0.0429 C   0  0  0  0  0  0  0  0  0  0  0  0
    7.5328    0.4512   -0.0323 C   0  0  0  0  0  0  0  0  0  0  0  0
   -8.8364   -0.3469   -0.0312 C   0  0  0  0  0  0  0  0  0  0  0  0
    8.8359   -0.3465    0.0631 C   0  0  0  0  0  0  0  0  0  0  0  0
  -10.0835    0.5204    0.0459 C   0  0  0  0  0  0  0  0  0  0  0  0
   10.0838    0.5194   -0.0169 C   0  0  0  0  0  0  0  0  0  0  0  0
   -3.7236   -1.1679    0.8560 H   0  0  0  0  0  0  0  0  0  0  0  0
   -3.7451   -1.1529   -0.9091 H   0  0  0  0  0  0  0  0  0  0  0  0
    3.7299   -1.1795   -0.8514 H   0  0  0  0  0  0  0  0  0  0  0  0
    3.7380   -1.1394    0.9135 H   0  0  0  0  0  0  0  0  0  0  0  0
   -4.9530    1.0042    0.8990 H   0  0  0  0  0  0  0  0  0  0  0  0
   -4.9620    1.0443   -0.8616 H   0  0  0  0  0  0  0  0  0  0  0  0
    4.9600    0.9917   -0.9159 H   0  0  0  0  0  0  0  0  0  0  0  0
    4.9556    1.0568    0.8441 H   0  0  0  0  0  0  0  0  0  0  0  0
   -2.4438    1.0001    0.8448 H   0  0  0  0  0  0  0  0  0  0  0  0
   -2.4470    0.9820   -0.9207 H   0  0  0  0  0  0  0  0  0  0  0  0
    2.4525    0.9881   -0.8811 H   0  0  0  0  0  0  0  0  0  0  0  0
    2.4385    0.9961    0.8845 H   0  0  0  0  0  0  0  0  0  0  0  0
   -1.2161   -1.1752    0.8726 H   0  0  0  0  0  0  0  0  0  0  0  0
   -1.2102   -1.1955   -0.9004 H   0  0  0  0  0  0  0  0  0  0  0  0
    1.2226   -1.1953   -0.8810 H   0  0  0  0  0  0  0  0  0  0  0  0
    1.2041   -1.1738    0.8918 H   0  0  0  0  0  0  0  0  0  0  0  0
   -6.2923   -1.1183    0.8455 H   0  0  0  0  0  0  0  0  0  0  0  0
   -6.3132   -1.0482   -0.9142 H   0  0  0  0  0  0  0  0  0  0  0  0
    6.2985   -1.1299   -0.8220 H   0  0  0  0  0  0  0  0  0  0  0  0
    6.3059   -1.0349    0.9366 H   0  0  0  0  0  0  0  0  0  0  0  0
    0.0066    0.8864   -0.8471 H   0  0  0  0  0  0  0  0  0  0  0  0
   -7.5041    1.1679   -0.7876 H   0  0  0  0  0  0  0  0  0  0  0  0
   -7.5200    1.0398    0.9688 H   0  0  0  0  0  0  0  0  0  0  0  0
    7.4983    1.1791    0.7877 H   0  0  0  0  0  0  0  0  0  0  0  0
    7.5274    1.0260   -0.9666 H   0  0  0  0  0  0  0  0  0  0  0  0
   -8.8624   -1.0758    0.7876 H   0  0  0  0  0  0  0  0  0  0  0  0
   -8.8595   -0.9186   -0.9666 H   0  0  0  0  0  0  0  0  0  0  0  0
    8.8680   -1.0869   -0.7450 H   0  0  0  0  0  0  0  0  0  0  0  0
    8.8517   -0.9050    1.0066 H   0  0  0  0  0  0  0  0  0  0  0  0
  -10.1105    1.2386   -0.7797 H   0  0  0  0  0  0  0  0  0  0  0  0
  -10.1132    1.0778    0.9874 H   0  0  0  0  0  0  0  0  0  0  0  0
  -10.9829   -0.1004   -0.0120 H   0  0  0  0  0  0  0  0  0  0  0  0
   10.1047    1.2493    0.7986 H   0  0  0  0  0  0  0  0  0  0  0  0
   10.1209    1.0634   -0.9660 H   0  0  0  0  0  0  0  0  0  0  0  0
   10.9826   -0.1006    0.0566 H   0  0  0  0  0  0  0  0  0  0  0  0
  1  8  1  0  0  0  0
  1  9  1  0  0  0  0
  1 38  1  0  0  0  0
  2  4  1  0  0  0  0
  2  6  1  0  0  0  0
  2 18  1  0  0  0  0
  2 19  1  0  0  0  0
  3  5  1  0  0  0  0
  3  7  1  0  0  0  0
  3 20  1  0  0  0  0
  3 21  1  0  0  0  0
  4 10  1  0  0  0  0
  4 22  1  0  0  0  0
  4 23  1  0  0  0  0
  5 11  1  0  0  0  0
  5 24  1  0  0  0  0
  5 25  1  0  0  0  0
  6  8  1  0  0  0  0
  6 26  1  0  0  0  0
  6 27  1  0  0  0  0
  7  9  1  0  0  0  0
  7 28  1  0  0  0  0
  7 29  1  0  0  0  0
  8 30  1  0  0  0  0
  8 31  1  0  0  0  0
  9 32  1  0  0  0  0
  9 33  1  0  0  0  0
 10 12  1  0  0  0  0
 10 34  1  0  0  0  0
 10 35  1  0  0  0  0
 11 13  1  0  0  0  0
 11 36  1  0  0  0  0
 11 37  1  0  0  0  0
 12 14  1  0  0  0  0
 12 39  1  0  0  0  0
 12 40  1  0  0  0  0
 13 15  1  0  0  0  0
 13 41  1  0  0  0  0
 13 42  1  0  0  0  0
 14 16  1  0  0  0  0
 14 43  1  0  0  0  0
 14 44  1  0  0  0  0
 15 17  1  0  0  0  0
 15 45  1  0  0  0  0
 15 46  1  0  0  0  0
 16 47  1  0  0  0  0
 16 48  1  0  0  0  0
 16 49  1  0  0  0  0
 17 50  1  0  0  0  0
 17 51  1  0  0  0  0
 17 52  1  0  0  0  0
M  END
> <PUBCHEM_COMPOUND_CID>
3094

> <PUBCHEM_CONFORMER_RMSD>
1.2

> <PUBCHEM_CONFORMER_DIVERSEORDER>
1
2
26
54
8
9
14
48
18
15
17
58
21
34
33
62
46
35
55
30
68
10
29
28
24
25
44
43
59
53
3
50
23
12
71
13
64
40
56
36
39
38
47
11
27
31
19
49
41
5
65
32
52
7
69
61
72
42
51
67
4
6
66
45
63
37
20
57
70
16
22
60

> <PUBCHEM_MMFF94_PARTIAL_CHARGES>
4
1 -0.9
38 0.36
8 0.27
9 0.27

> <PUBCHEM_EFFECTIVE_ROTOR_COUNT>
14

> <PUBCHEM_PHARMACOPHORE_FEATURES>
8
1 1 cation
1 1 donor
1 16 hydrophobe
1 17 hydrophobe
3 10 12 14 hydrophobe
3 11 13 15 hydrophobe
3 2 4 6 hydrophobe
3 3 5 7 hydrophobe

> <PUBCHEM_HEAVY_ATOM_COUNT>
17

> <PUBCHEM_ATOM_DEF_STEREO_COUNT>
0

> <PUBCHEM_ATOM_UDEF_STEREO_COUNT>
0

> <PUBCHEM_BOND_DEF_STEREO_COUNT>
0

> <PUBCHEM_BOND_UDEF_STEREO_COUNT>
0

> <PUBCHEM_ISOTOPIC_ATOM_COUNT>
0

> <PUBCHEM_COMPONENT_COUNT>
1

> <PUBCHEM_CACTVS_TAUTO_COUNT>
1

> <PUBCHEM_CONFORMER_ID>
00000C1600000001

> <PUBCHEM_MMFF94_ENERGY>
-9.6843

> <PUBCHEM_FEATURE_SELFOVERLAP>
40.622

> <PUBCHEM_SHAPE_FINGERPRINT>
14123256 10 18410855460128161798
14251764 46 18410573989446424931
14251920 1 18410573980861791090
15510794 2 18410860957692348470
22224240 67 16660363692392972211
232437 2 18410011035203609906
23521765 1 18341894090834057575
23581129 1 18409448089539575815
33684 2 18410573985151451138
67123 10 18410855468718096391
8209 1 18410855464423142086

> <PUBCHEM_SHAPE_MULTIPOLES>
344.87
39.04
0.8
0.61
0
0.01
0
-4.67
-0.35
0
0
0
0
-0.06

> <PUBCHEM_SHAPE_SELFOVERLAP>
612.629

> <PUBCHEM_SHAPE_VOLUME>
222.7

> <PUBCHEM_COORDINATE_TYPE>
2
5
10

$$$$
