66604
  -OEChem-11012400513D

 14 14  0     0  0  0  0  0  0999 V2000
    3.0969   -0.5927   -0.0003 Cl  0  0  0  0  0  0  0  0  0  0  0  0
   -3.0969    0.5927   -0.0005 Cl  0  0  0  0  0  0  0  0  0  0  0  0
    1.8527    2.1249   -0.0003 O   0  0  0  0  0  0  0  0  0  0  0  0
   -1.8527   -2.1250   -0.0002 O   0  0  0  0  0  0  0  0  0  0  0  0
    0.8687   -2.5226    0.0004 O   0  0  0  0  0  0  0  0  0  0  0  0
   -0.8687    2.5226    0.0006 O   0  0  0  0  0  0  0  0  0  0  0  0
    0.9775    1.0564   -0.0001 C   0  0  0  0  0  0  0  0  0  0  0  0
   -0.9775   -1.0565    0.0000 C   0  0  0  0  0  0  0  0  0  0  0  0
    1.4114   -0.2104   -0.0001 C   0  0  0  0  0  0  0  0  0  0  0  0
   -1.4114    0.2103   -0.0001 C   0  0  0  0  0  0  0  0  0  0  0  0
    0.4748   -1.3601    0.0002 C   0  0  0  0  0  0  0  0  0  0  0  0
   -0.4748    1.3601    0.0003 C   0  0  0  0  0  0  0  0  0  0  0  0
    2.7587    1.7704   -0.0005 H   0  0  0  0  0  0  0  0  0  0  0  0
   -1.3202   -2.9392   -0.0001 H   0  0  0  0  0  0  0  0  0  0  0  0
  1  9  1  0  0  0  0
  2 10  1  0  0  0  0
  3  7  1  0  0  0  0
  3 13  1  0  0  0  0
  4  8  1  0  0  0  0
  4 14  1  0  0  0  0
  5 11  2  0  0  0  0
  6 12  2  0  0  0  0
  7  9  2  0  0  0  0
  7 12  1  0  0  0  0
  8 10  2  0  0  0  0
  8 11  1  0  0  0  0
  9 11  1  0  0  0  0
 10 12  1  0  0  0  0
M  END
> <PUBCHEM_COMPOUND_CID>
66604

> <PUBCHEM_CONFORMER_RMSD>
0.4

> <PUBCHEM_CONFORMER_DIVERSEORDER>
1

> <PUBCHEM_MMFF94_PARTIAL_CHARGES>
14
1 -0.14
10 0.15
11 0.54
12 0.54
13 0.45
14 0.45
2 -0.14
3 -0.53
4 -0.53
5 -0.57
6 -0.57
7 0.09
8 0.09
9 0.15

> <PUBCHEM_EFFECTIVE_ROTOR_COUNT>
0

> <PUBCHEM_PHARMACOPHORE_FEATURES>
5
1 3 donor
1 4 donor
1 5 acceptor
1 6 acceptor
6 7 8 9 10 11 12 rings

> <PUBCHEM_HEAVY_ATOM_COUNT>
12

> <PUBCHEM_ATOM_DEF_STEREO_COUNT>
0

> <PUBCHEM_ATOM_UDEF_STEREO_COUNT>
0

> <PUBCHEM_BOND_DEF_STEREO_COUNT>
0

> <PUBCHEM_BOND_UDEF_STEREO_COUNT>
0

> <PUBCHEM_ISOTOPIC_ATOM_COUNT>
0

> <PUBCHEM_COMPONENT_COUNT>
1

> <PUBCHEM_CACTVS_TAUTO_COUNT>
4

> <PUBCHEM_CONFORMER_ID>
0001042C00000001

> <PUBCHEM_MMFF94_ENERGY>
21.369

> <PUBCHEM_FEATURE_SELFOVERLAP>
25.371

> <PUBCHEM_SHAPE_FINGERPRINT>
10967382 1 18410855434368927012
11206711 2 18265335001718890261
12423570 1 11880276344206269705
13140716 1 18410856606884430296
16945 1 18338517439085543430
193761 8 17906172102491242503
20588541 1 18339083687632065239
21040471 1 18122626321022178208
21501502 16 18266741461758246951
2334 1 18194683902080057351
23552423 10 18189335839121063380
23559900 14 18342465838062104532
241688 4 17617941331228933121
2748010 2 18266459991076503654
5084963 1 18131067104316473744
528886 8 18411414024925300794
53812653 166 18126559025138641832
66348 1 18410855442948292611

> <PUBCHEM_SHAPE_MULTIPOLES>
227.22
3.62
2.6
0.59
0
0
0
0
0
0
0
0
0
0

> <PUBCHEM_SHAPE_SELFOVERLAP>
463.489

> <PUBCHEM_SHAPE_VOLUME>
132.8

> <PUBCHEM_COORDINATE_TYPE>
2
5
10

$$$$
