140076
  -OEChem-11012400393D

 23 24  0     1  0  0  0  0  0999 V2000
   -0.7078    1.1998    0.3897 C   0  0  2  0  0  0  0  0  0  0  0  0
   -0.7054   -1.2011    0.3893 C   0  0  1  0  0  0  0  0  0  0  0  0
   -0.8564   -0.0009    1.3141 C   0  0  0  0  0  0  0  0  0  0  0  0
   -1.3745    0.7623   -0.9184 C   0  0  0  0  0  0  0  0  0  0  0  0
   -1.3721   -0.7643   -0.9191 C   0  0  0  0  0  0  0  0  0  0  0  0
    0.7459    1.6442    0.1961 C   0  0  0  0  0  0  0  0  0  0  0  0
    0.7490   -1.6431    0.1962 C   0  0  0  0  0  0  0  0  0  0  0  0
    1.7600    0.6711   -0.3241 C   0  0  0  0  0  0  0  0  0  0  0  0
    1.7614   -0.6680   -0.3239 C   0  0  0  0  0  0  0  0  0  0  0  0
   -1.2523    2.0559    0.8078 H   0  0  0  0  0  0  0  0  0  0  0  0
   -1.2487   -2.0582    0.8068 H   0  0  0  0  0  0  0  0  0  0  0  0
   -0.1447   -0.0004    2.1459 H   0  0  0  0  0  0  0  0  0  0  0  0
   -1.8659   -0.0020    1.7450 H   0  0  0  0  0  0  0  0  0  0  0  0
   -0.8770    1.1683   -1.8055 H   0  0  0  0  0  0  0  0  0  0  0  0
   -2.4111    1.1199   -0.9448 H   0  0  0  0  0  0  0  0  0  0  0  0
   -2.4075   -1.1253   -0.9473 H   0  0  0  0  0  0  0  0  0  0  0  0
   -0.8722   -1.1677   -1.8061 H   0  0  0  0  0  0  0  0  0  0  0  0
    1.1251    2.0344    1.1496 H   0  0  0  0  0  0  0  0  0  0  0  0
    0.7384    2.5004   -0.4922 H   0  0  0  0  0  0  0  0  0  0  0  0
    0.7433   -2.4993   -0.4920 H   0  0  0  0  0  0  0  0  0  0  0  0
    1.1287   -2.0324    1.1499 H   0  0  0  0  0  0  0  0  0  0  0  0
    2.6490    1.1474   -0.7382 H   0  0  0  0  0  0  0  0  0  0  0  0
    2.6514   -1.1426   -0.7380 H   0  0  0  0  0  0  0  0  0  0  0  0
  1  3  1  0  0  0  0
  1  4  1  0  0  0  0
  1  6  1  0  0  0  0
  1 10  1  0  0  0  0
  2  3  1  0  0  0  0
  2  5  1  0  0  0  0
  2  7  1  0  0  0  0
  2 11  1  0  0  0  0
  3 12  1  0  0  0  0
  3 13  1  0  0  0  0
  4  5  1  0  0  0  0
  4 14  1  0  0  0  0
  4 15  1  0  0  0  0
  5 16  1  0  0  0  0
  5 17  1  0  0  0  0
  6  8  1  0  0  0  0
  6 18  1  0  0  0  0
  6 19  1  0  0  0  0
  7  9  1  0  0  0  0
  7 20  1  0  0  0  0
  7 21  1  0  0  0  0
  8  9  2  0  0  0  0
  8 22  1  0  0  0  0
  9 23  1  0  0  0  0
M  END
> <PUBCHEM_COMPOUND_CID>
140076

> <PUBCHEM_CONFORMER_RMSD>
0.4

> <PUBCHEM_CONFORMER_DIVERSEORDER>
1
2

> <PUBCHEM_MMFF94_PARTIAL_CHARGES>
6
22 0.15
23 0.15
6 0.14
7 0.14
8 -0.29
9 -0.29

> <PUBCHEM_EFFECTIVE_ROTOR_COUNT>
1

> <PUBCHEM_PHARMACOPHORE_FEATURES>
2
5 1 2 3 4 5 rings
7 1 2 3 6 7 8 9 rings

> <PUBCHEM_HEAVY_ATOM_COUNT>
9

> <PUBCHEM_ATOM_DEF_STEREO_COUNT>
0

> <PUBCHEM_ATOM_UDEF_STEREO_COUNT>
2

> <PUBCHEM_BOND_DEF_STEREO_COUNT>
0

> <PUBCHEM_BOND_UDEF_STEREO_COUNT>
0

> <PUBCHEM_ISOTOPIC_ATOM_COUNT>
0

> <PUBCHEM_COMPONENT_COUNT>
1

> <PUBCHEM_CACTVS_TAUTO_COUNT>
1

> <PUBCHEM_CONFORMER_ID>
0002232C00000001

> <PUBCHEM_MMFF94_ENERGY>
18.6647

> <PUBCHEM_FEATURE_SELFOVERLAP>
11.533

> <PUBCHEM_SHAPE_FINGERPRINT>
12423570 1 11079165558101471353
13024252 1 17823154387822348550
137420 1 16320363563093342859
16945 1 18410566288754673189
18185500 45 18124303918062787046
21040471 1 18193842539635823688
21922407 69 15984829297617089928
241688 4 18341328877675516528
29004967 10 17906173210724732305
5084963 1 18269275840687566828

> <PUBCHEM_SHAPE_MULTIPOLES>
185.22
2.04
1.77
1.06
0.58
0
0.09
0
-0.43
0.22
0.09
-0.4
0
0

> <PUBCHEM_SHAPE_SELFOVERLAP>
380.27

> <PUBCHEM_SHAPE_VOLUME>
100.4

> <PUBCHEM_COORDINATE_TYPE>
2
5
10

$$$$
