4168167
  -OEChem-10312420442D

140139  0     0  0  0  0  0  0999 V2000
   24.5167   -0.0950    0.0000 O   0  0  0  0  0  0  0  0  0  0  0  0
   21.0526   -0.0950    0.0000 O   0  0  0  0  0  0  0  0  0  0  0  0
   25.3827    1.4050    0.0000 O   0  0  0  0  0  0  0  0  0  0  0  0
   20.1865    1.4050    0.0000 O   0  0  0  0  0  0  0  0  0  0  0  0
   22.7846   -1.0950    0.0000 O   0  0  0  0  0  0  0  0  0  0  0  0
   30.5788    0.4050    0.0000 C   0  0  0  0  0  0  0  0  0  0  0  0
   14.9904    0.4050    0.0000 C   0  0  0  0  0  0  0  0  0  0  0  0
   31.4449   -0.0950    0.0000 C   0  0  0  0  0  0  0  0  0  0  0  0
   14.1244   -0.0950    0.0000 C   0  0  0  0  0  0  0  0  0  0  0  0
   29.7128   -0.0950    0.0000 C   0  0  0  0  0  0  0  0  0  0  0  0
   15.8564   -0.0950    0.0000 C   0  0  0  0  0  0  0  0  0  0  0  0
   32.3109    0.4050    0.0000 C   0  0  0  0  0  0  0  0  0  0  0  0
   13.2583    0.4050    0.0000 C   0  0  0  0  0  0  0  0  0  0  0  0
   28.8468    0.4050    0.0000 C   0  0  0  0  0  0  0  0  0  0  0  0
   16.7224    0.4050    0.0000 C   0  0  0  0  0  0  0  0  0  0  0  0
   33.1769   -0.0950    0.0000 C   0  0  0  0  0  0  0  0  0  0  0  0
   12.3923   -0.0950    0.0000 C   0  0  0  0  0  0  0  0  0  0  0  0
   27.9808   -0.0950    0.0000 C   0  0  0  0  0  0  0  0  0  0  0  0
   17.5885   -0.0950    0.0000 C   0  0  0  0  0  0  0  0  0  0  0  0
   34.0429    0.4050    0.0000 C   0  0  0  0  0  0  0  0  0  0  0  0
   11.5263    0.4050    0.0000 C   0  0  0  0  0  0  0  0  0  0  0  0
   27.1147    0.4050    0.0000 C   0  0  0  0  0  0  0  0  0  0  0  0
   18.4545    0.4050    0.0000 C   0  0  0  0  0  0  0  0  0  0  0  0
   34.9090   -0.0950    0.0000 C   0  0  0  0  0  0  0  0  0  0  0  0
   10.6603   -0.0950    0.0000 C   0  0  0  0  0  0  0  0  0  0  0  0
   39.2391    0.4050    0.0000 C   0  0  0  0  0  0  0  0  0  0  0  0
    6.3301    0.4050    0.0000 C   0  0  0  0  0  0  0  0  0  0  0  0
   26.2487   -0.0950    0.0000 C   0  0  0  0  0  0  0  0  0  0  0  0
   19.3205   -0.0950    0.0000 C   0  0  0  0  0  0  0  0  0  0  0  0
   40.1051   -0.0950    0.0000 C   0  0  0  0  0  0  0  0  0  0  0  0
    5.4641   -0.0950    0.0000 C   0  0  0  0  0  0  0  0  0  0  0  0
   38.3731   -0.0950    0.0000 C   0  0  0  0  0  0  0  0  0  0  0  0
    7.1962   -0.0950    0.0000 C   0  0  0  0  0  0  0  0  0  0  0  0
   40.9711    0.4050    0.0000 C   0  0  0  0  0  0  0  0  0  0  0  0
    4.5981    0.4050    0.0000 C   0  0  0  0  0  0  0  0  0  0  0  0
   37.5070    0.4050    0.0000 C   0  0  0  0  0  0  0  0  0  0  0  0
    8.0622    0.4050    0.0000 C   0  0  0  0  0  0  0  0  0  0  0  0
   35.7750    0.4050    0.0000 C   0  0  0  0  0  0  0  0  0  0  0  0
    9.7942    0.4050    0.0000 C   0  0  0  0  0  0  0  0  0  0  0  0
   41.8372   -0.0950    0.0000 C   0  0  0  0  0  0  0  0  0  0  0  0
    3.7320   -0.0950    0.0000 C   0  0  0  0  0  0  0  0  0  0  0  0
   36.6410   -0.0950    0.0000 C   0  0  0  0  0  0  0  0  0  0  0  0
    8.9282   -0.0950    0.0000 C   0  0  0  0  0  0  0  0  0  0  0  0
   42.7032    0.4050    0.0000 C   0  0  0  0  0  0  0  0  0  0  0  0
    2.8660    0.4050    0.0000 C   0  0  0  0  0  0  0  0  0  0  0  0
   25.3827    0.4050    0.0000 C   0  0  0  0  0  0  0  0  0  0  0  0
   20.1865    0.4050    0.0000 C   0  0  0  0  0  0  0  0  0  0  0  0
   22.7846   -0.0950    0.0000 C   0  0  0  0  0  0  0  0  0  0  0  0
   23.6506    0.4050    0.0000 C   0  0  0  0  0  0  0  0  0  0  0  0
   21.9186    0.4050    0.0000 C   0  0  0  0  0  0  0  0  0  0  0  0
   43.5692   -0.0950    0.0000 C   0  0  0  0  0  0  0  0  0  0  0  0
    2.0000   -0.0950    0.0000 C   0  0  0  0  0  0  0  0  0  0  0  0
   30.9774    0.8799    0.0000 H   0  0  0  0  0  0  0  0  0  0  0  0
   30.1803    0.8799    0.0000 H   0  0  0  0  0  0  0  0  0  0  0  0
   15.3889    0.8799    0.0000 H   0  0  0  0  0  0  0  0  0  0  0  0
   14.5919    0.8799    0.0000 H   0  0  0  0  0  0  0  0  0  0  0  0
   31.0463   -0.5699    0.0000 H   0  0  0  0  0  0  0  0  0  0  0  0
   31.8434   -0.5699    0.0000 H   0  0  0  0  0  0  0  0  0  0  0  0
   13.7258   -0.5699    0.0000 H   0  0  0  0  0  0  0  0  0  0  0  0
   14.5229   -0.5699    0.0000 H   0  0  0  0  0  0  0  0  0  0  0  0
   29.3143   -0.5699    0.0000 H   0  0  0  0  0  0  0  0  0  0  0  0
   30.1113   -0.5699    0.0000 H   0  0  0  0  0  0  0  0  0  0  0  0
   15.4579   -0.5699    0.0000 H   0  0  0  0  0  0  0  0  0  0  0  0
   16.2549   -0.5699    0.0000 H   0  0  0  0  0  0  0  0  0  0  0  0
   32.7094    0.8799    0.0000 H   0  0  0  0  0  0  0  0  0  0  0  0
   31.9124    0.8799    0.0000 H   0  0  0  0  0  0  0  0  0  0  0  0
   13.6569    0.8799    0.0000 H   0  0  0  0  0  0  0  0  0  0  0  0
   12.8598    0.8799    0.0000 H   0  0  0  0  0  0  0  0  0  0  0  0
   29.2453    0.8799    0.0000 H   0  0  0  0  0  0  0  0  0  0  0  0
   28.4483    0.8799    0.0000 H   0  0  0  0  0  0  0  0  0  0  0  0
   17.1210    0.8799    0.0000 H   0  0  0  0  0  0  0  0  0  0  0  0
   16.3239    0.8799    0.0000 H   0  0  0  0  0  0  0  0  0  0  0  0
   32.7784   -0.5699    0.0000 H   0  0  0  0  0  0  0  0  0  0  0  0
   33.5754   -0.5699    0.0000 H   0  0  0  0  0  0  0  0  0  0  0  0
   11.9938   -0.5699    0.0000 H   0  0  0  0  0  0  0  0  0  0  0  0
   12.7908   -0.5699    0.0000 H   0  0  0  0  0  0  0  0  0  0  0  0
   27.5822   -0.5699    0.0000 H   0  0  0  0  0  0  0  0  0  0  0  0
   28.3793   -0.5699    0.0000 H   0  0  0  0  0  0  0  0  0  0  0  0
   17.1899   -0.5699    0.0000 H   0  0  0  0  0  0  0  0  0  0  0  0
   17.9870   -0.5699    0.0000 H   0  0  0  0  0  0  0  0  0  0  0  0
   34.4415    0.8799    0.0000 H   0  0  0  0  0  0  0  0  0  0  0  0
   33.6444    0.8799    0.0000 H   0  0  0  0  0  0  0  0  0  0  0  0
   11.9248    0.8799    0.0000 H   0  0  0  0  0  0  0  0  0  0  0  0
   11.1278    0.8799    0.0000 H   0  0  0  0  0  0  0  0  0  0  0  0
   27.5133    0.8799    0.0000 H   0  0  0  0  0  0  0  0  0  0  0  0
   26.7162    0.8799    0.0000 H   0  0  0  0  0  0  0  0  0  0  0  0
   18.8530    0.8799    0.0000 H   0  0  0  0  0  0  0  0  0  0  0  0
   18.0560    0.8799    0.0000 H   0  0  0  0  0  0  0  0  0  0  0  0
   34.5104   -0.5699    0.0000 H   0  0  0  0  0  0  0  0  0  0  0  0
   35.3075   -0.5699    0.0000 H   0  0  0  0  0  0  0  0  0  0  0  0
   10.2617   -0.5699    0.0000 H   0  0  0  0  0  0  0  0  0  0  0  0
   11.0588   -0.5699    0.0000 H   0  0  0  0  0  0  0  0  0  0  0  0
   39.6376    0.8799    0.0000 H   0  0  0  0  0  0  0  0  0  0  0  0
   38.8406    0.8799    0.0000 H   0  0  0  0  0  0  0  0  0  0  0  0
    6.7287    0.8799    0.0000 H   0  0  0  0  0  0  0  0  0  0  0  0
    5.9316    0.8799    0.0000 H   0  0  0  0  0  0  0  0  0  0  0  0
   25.8502   -0.5699    0.0000 H   0  0  0  0  0  0  0  0  0  0  0  0
   26.6472   -0.5699    0.0000 H   0  0  0  0  0  0  0  0  0  0  0  0
   18.9220   -0.5699    0.0000 H   0  0  0  0  0  0  0  0  0  0  0  0
   19.7190   -0.5699    0.0000 H   0  0  0  0  0  0  0  0  0  0  0  0
   39.7066   -0.5699    0.0000 H   0  0  0  0  0  0  0  0  0  0  0  0
   40.5036   -0.5699    0.0000 H   0  0  0  0  0  0  0  0  0  0  0  0
    5.0656   -0.5699    0.0000 H   0  0  0  0  0  0  0  0  0  0  0  0
    5.8626   -0.5699    0.0000 H   0  0  0  0  0  0  0  0  0  0  0  0
   37.9745   -0.5699    0.0000 H   0  0  0  0  0  0  0  0  0  0  0  0
   38.7716   -0.5699    0.0000 H   0  0  0  0  0  0  0  0  0  0  0  0
    6.7976   -0.5699    0.0000 H   0  0  0  0  0  0  0  0  0  0  0  0
    7.5947   -0.5699    0.0000 H   0  0  0  0  0  0  0  0  0  0  0  0
   41.3697    0.8799    0.0000 H   0  0  0  0  0  0  0  0  0  0  0  0
   40.5726    0.8799    0.0000 H   0  0  0  0  0  0  0  0  0  0  0  0
    4.9966    0.8799    0.0000 H   0  0  0  0  0  0  0  0  0  0  0  0
    4.1996    0.8799    0.0000 H   0  0  0  0  0  0  0  0  0  0  0  0
   37.9056    0.8799    0.0000 H   0  0  0  0  0  0  0  0  0  0  0  0
   37.1085    0.8799    0.0000 H   0  0  0  0  0  0  0  0  0  0  0  0
    8.4607    0.8799    0.0000 H   0  0  0  0  0  0  0  0  0  0  0  0
    7.6636    0.8799    0.0000 H   0  0  0  0  0  0  0  0  0  0  0  0
   35.7750    1.0250    0.0000 H   0  0  0  0  0  0  0  0  0  0  0  0
    9.7942    1.0250    0.0000 H   0  0  0  0  0  0  0  0  0  0  0  0
   41.4386   -0.5699    0.0000 H   0  0  0  0  0  0  0  0  0  0  0  0
   42.2357   -0.5699    0.0000 H   0  0  0  0  0  0  0  0  0  0  0  0
    3.3335   -0.5699    0.0000 H   0  0  0  0  0  0  0  0  0  0  0  0
    4.1306   -0.5699    0.0000 H   0  0  0  0  0  0  0  0  0  0  0  0
   36.6410   -0.7150    0.0000 H   0  0  0  0  0  0  0  0  0  0  0  0
    8.9282   -0.7150    0.0000 H   0  0  0  0  0  0  0  0  0  0  0  0
   43.1017    0.8799    0.0000 H   0  0  0  0  0  0  0  0  0  0  0  0
   42.3047    0.8799    0.0000 H   0  0  0  0  0  0  0  0  0  0  0  0
    3.2646    0.8799    0.0000 H   0  0  0  0  0  0  0  0  0  0  0  0
    2.4675    0.8799    0.0000 H   0  0  0  0  0  0  0  0  0  0  0  0
   22.2477   -0.4050    0.0000 H   0  0  0  0  0  0  0  0  0  0  0  0
   24.0492    0.8799    0.0000 H   0  0  0  0  0  0  0  0  0  0  0  0
   23.2521    0.8799    0.0000 H   0  0  0  0  0  0  0  0  0  0  0  0
   22.3171    0.8799    0.0000 H   0  0  0  0  0  0  0  0  0  0  0  0
   21.5201    0.8799    0.0000 H   0  0  0  0  0  0  0  0  0  0  0  0
   43.2592   -0.6319    0.0000 H   0  0  0  0  0  0  0  0  0  0  0  0
   44.1062   -0.4050    0.0000 H   0  0  0  0  0  0  0  0  0  0  0  0
   43.8792    0.4419    0.0000 H   0  0  0  0  0  0  0  0  0  0  0  0
    1.6900    0.4419    0.0000 H   0  0  0  0  0  0  0  0  0  0  0  0
    1.4631   -0.4050    0.0000 H   0  0  0  0  0  0  0  0  0  0  0  0
    2.3100   -0.6319    0.0000 H   0  0  0  0  0  0  0  0  0  0  0  0
   22.2477   -1.4050    0.0000 H   0  0  0  0  0  0  0  0  0  0  0  0
  1 46  1  0  0  0  0
  1 49  1  0  0  0  0
  2 47  1  0  0  0  0
  2 50  1  0  0  0  0
  3 46  2  0  0  0  0
  4 47  2  0  0  0  0
  5 48  1  0  0  0  0
  5140  1  0  0  0  0
  6  8  1  0  0  0  0
  6 10  1  0  0  0  0
  6 53  1  0  0  0  0
  6 54  1  0  0  0  0
  7  9  1  0  0  0  0
  7 11  1  0  0  0  0
  7 55  1  0  0  0  0
  7 56  1  0  0  0  0
  8 12  1  0  0  0  0
  8 57  1  0  0  0  0
  8 58  1  0  0  0  0
  9 13  1  0  0  0  0
  9 59  1  0  0  0  0
  9 60  1  0  0  0  0
 10 14  1  0  0  0  0
 10 61  1  0  0  0  0
 10 62  1  0  0  0  0
 11 15  1  0  0  0  0
 11 63  1  0  0  0  0
 11 64  1  0  0  0  0
 12 16  1  0  0  0  0
 12 65  1  0  0  0  0
 12 66  1  0  0  0  0
 13 17  1  0  0  0  0
 13 67  1  0  0  0  0
 13 68  1  0  0  0  0
 14 18  1  0  0  0  0
 14 69  1  0  0  0  0
 14 70  1  0  0  0  0
 15 19  1  0  0  0  0
 15 71  1  0  0  0  0
 15 72  1  0  0  0  0
 16 20  1  0  0  0  0
 16 73  1  0  0  0  0
 16 74  1  0  0  0  0
 17 21  1  0  0  0  0
 17 75  1  0  0  0  0
 17 76  1  0  0  0  0
 18 22  1  0  0  0  0
 18 77  1  0  0  0  0
 18 78  1  0  0  0  0
 19 23  1  0  0  0  0
 19 79  1  0  0  0  0
 19 80  1  0  0  0  0
 20 24  1  0  0  0  0
 20 81  1  0  0  0  0
 20 82  1  0  0  0  0
 21 25  1  0  0  0  0
 21 83  1  0  0  0  0
 21 84  1  0  0  0  0
 22 28  1  0  0  0  0
 22 85  1  0  0  0  0
 22 86  1  0  0  0  0
 23 29  1  0  0  0  0
 23 87  1  0  0  0  0
 23 88  1  0  0  0  0
 24 38  1  0  0  0  0
 24 89  1  0  0  0  0
 24 90  1  0  0  0  0
 25 39  1  0  0  0  0
 25 91  1  0  0  0  0
 25 92  1  0  0  0  0
 26 30  1  0  0  0  0
 26 32  1  0  0  0  0
 26 93  1  0  0  0  0
 26 94  1  0  0  0  0
 27 31  1  0  0  0  0
 27 33  1  0  0  0  0
 27 95  1  0  0  0  0
 27 96  1  0  0  0  0
 28 46  1  0  0  0  0
 28 97  1  0  0  0  0
 28 98  1  0  0  0  0
 29 47  1  0  0  0  0
 29 99  1  0  0  0  0
 29100  1  0  0  0  0
 30 34  1  0  0  0  0
 30101  1  0  0  0  0
 30102  1  0  0  0  0
 31 35  1  0  0  0  0
 31103  1  0  0  0  0
 31104  1  0  0  0  0
 32 36  1  0  0  0  0
 32105  1  0  0  0  0
 32106  1  0  0  0  0
 33 37  1  0  0  0  0
 33107  1  0  0  0  0
 33108  1  0  0  0  0
 34 40  1  0  0  0  0
 34109  1  0  0  0  0
 34110  1  0  0  0  0
 35 41  1  0  0  0  0
 35111  1  0  0  0  0
 35112  1  0  0  0  0
 36 42  1  0  0  0  0
 36113  1  0  0  0  0
 36114  1  0  0  0  0
 37 43  1  0  0  0  0
 37115  1  0  0  0  0
 37116  1  0  0  0  0
 38 42  2  3  0  0  0
 38117  1  0  0  0  0
 39 43  2  3  0  0  0
 39118  1  0  0  0  0
 40 44  1  0  0  0  0
 40119  1  0  0  0  0
 40120  1  0  0  0  0
 41 45  1  0  0  0  0
 41121  1  0  0  0  0
 41122  1  0  0  0  0
 42123  1  0  0  0  0
 43124  1  0  0  0  0
 44 51  1  0  0  0  0
 44125  1  0  0  0  0
 44126  1  0  0  0  0
 45 52  1  0  0  0  0
 45127  1  0  0  0  0
 45128  1  0  0  0  0
 48 49  1  0  0  0  0
 48 50  1  0  0  0  0
 48129  1  0  0  0  0
 49130  1  0  0  0  0
 49131  1  0  0  0  0
 50132  1  0  0  0  0
 50133  1  0  0  0  0
 51134  1  0  0  0  0
 51135  1  0  0  0  0
 51136  1  0  0  0  0
 52137  1  0  0  0  0
 52138  1  0  0  0  0
 52139  1  0  0  0  0
M  END
> <PUBCHEM_COMPOUND_CID>
4168167

> <PUBCHEM_COMPOUND_CANONICALIZED>
1

> <PUBCHEM_CACTVS_COMPLEXITY>
727

> <PUBCHEM_CACTVS_HBOND_ACCEPTOR>
5

> <PUBCHEM_CACTVS_HBOND_DONOR>
1

> <PUBCHEM_CACTVS_ROTATABLE_BOND>
44

> <PUBCHEM_CACTVS_SUBSKEYS>
AAADcfB8OAAAAAAAAAAAAAAAAAAAAAAAAAAAAAAAAAAAAAAAAAAAGgAACAAACBSggAICCAAABgCIACDSCAAAAAAgAAAICAEAAAgBEBIAAQACAAAFgAALAAOIyKCAAAAAAAAAAAAAAAAAAAAAAAAAAAAAAA==

> <PUBCHEM_IUPAC_OPENEYE_NAME>
(3-docos-13-enoyloxy-2-hydroxy-propyl) docos-13-enoate

> <PUBCHEM_IUPAC_CAS_NAME>
13-docosenoic acid [2-hydroxy-3-(1-oxodocos-13-enoxy)propyl] ester

> <PUBCHEM_IUPAC_NAME_MARKUP>
(3-docos-13-enoyloxy-2-hydroxypropyl) docos-13-enoate

> <PUBCHEM_IUPAC_NAME>
(3-docos-13-enoyloxy-2-hydroxypropyl) docos-13-enoate

> <PUBCHEM_IUPAC_SYSTEMATIC_NAME>
(3-docos-13-enoyloxy-2-oxidanyl-propyl) docos-13-enoate

> <PUBCHEM_IUPAC_TRADITIONAL_NAME>
docos-13-enoic acid (3-docos-13-enoyloxy-2-hydroxy-propyl) ester

> <PUBCHEM_IUPAC_INCHI>
InChI=1S/C47H88O5/c1-3-5-7-9-11-13-15-17-19-21-23-25-27-29-31-33-35-37-39-41-46(49)51-43-45(48)44-52-47(50)42-40-38-36-34-32-30-28-26-24-22-20-18-16-14-12-10-8-6-4-2/h17-20,45,48H,3-16,21-44H2,1-2H3

> <PUBCHEM_IUPAC_INCHIKEY>
CBTMTZFHKUDGSX-UHFFFAOYSA-N

> <PUBCHEM_XLOGP3_AA>
18.7

> <PUBCHEM_EXACT_MASS>
732.66317590

> <PUBCHEM_MOLECULAR_FORMULA>
C47H88O5

> <PUBCHEM_MOLECULAR_WEIGHT>
733.2

> <PUBCHEM_OPENEYE_CAN_SMILES>
CCCCCCCCC=CCCCCCCCCCCCC(=O)OCC(COC(=O)CCCCCCCCCCCC=CCCCCCCCC)O

> <PUBCHEM_OPENEYE_ISO_SMILES>
CCCCCCCCC=CCCCCCCCCCCCC(=O)OCC(COC(=O)CCCCCCCCCCCC=CCCCCCCCC)O

> <PUBCHEM_CACTVS_TPSA>
72.8

> <PUBCHEM_MONOISOTOPIC_WEIGHT>
732.66317590

> <PUBCHEM_TOTAL_CHARGE>
0

> <PUBCHEM_HEAVY_ATOM_COUNT>
52

> <PUBCHEM_ATOM_DEF_STEREO_COUNT>
0

> <PUBCHEM_ATOM_UDEF_STEREO_COUNT>
0

> <PUBCHEM_BOND_DEF_STEREO_COUNT>
0

> <PUBCHEM_BOND_UDEF_STEREO_COUNT>
2

> <PUBCHEM_ISOTOPIC_ATOM_COUNT>
0

> <PUBCHEM_COMPONENT_COUNT>
1

> <PUBCHEM_CACTVS_TAUTO_COUNT>
-1

> <PUBCHEM_COORDINATE_TYPE>
1
5
255

> <PUBCHEM_BONDANNOTATIONS>
38  42  1
39  43  1

$$$$
