37047
  -OEChem-11012400333D

 20 19  0     0  0  0  0  0  0999 V2000
    3.3158    0.7684   -0.0610 O   0  5  0  0  0  0  0  0  0  0  0  0
    1.2819    1.5578    0.2283 O   0  0  0  0  0  0  0  0  0  0  0  0
   -0.6894   -0.1664    0.1622 N   0  0  0  0  0  0  0  0  0  0  0  0
    1.6403   -0.6432   -0.1074 N   0  0  0  0  0  0  0  0  0  0  0  0
    0.1588   -2.3620   -0.2157 N   0  0  0  0  0  0  0  0  0  0  0  0
    2.0900    0.6454    0.0302 N   0  3  0  0  0  0  0  0  0  0  0  0
   -3.0389    0.4229    0.4465 C   0  0  0  0  0  0  0  0  0  0  0  0
   -2.0421   -0.7040    0.2061 C   0  0  0  0  0  0  0  0  0  0  0  0
   -3.0072    1.4769   -0.6510 C   0  0  0  0  0  0  0  0  0  0  0  0
    0.2909   -0.9959   -0.0382 C   0  0  0  0  0  0  0  0  0  0  0  0
   -4.0487    0.0015    0.5106 H   0  0  0  0  0  0  0  0  0  0  0  0
   -2.8280    0.9057    1.4082 H   0  0  0  0  0  0  0  0  0  0  0  0
   -2.1392   -1.4305    1.0216 H   0  0  0  0  0  0  0  0  0  0  0  0
   -2.2907   -1.2050   -0.7375 H   0  0  0  0  0  0  0  0  0  0  0  0
   -3.7746    2.2353   -0.4656 H   0  0  0  0  0  0  0  0  0  0  0  0
   -2.0391    1.9858   -0.6923 H   0  0  0  0  0  0  0  0  0  0  0  0
   -3.2038    1.0291   -1.6304 H   0  0  0  0  0  0  0  0  0  0  0  0
    2.2946   -1.4048   -0.2703 H   0  0  0  0  0  0  0  0  0  0  0  0
   -0.7424   -2.8257   -0.1999 H   0  0  0  0  0  0  0  0  0  0  0  0
    0.9690   -2.9529   -0.3678 H   0  0  0  0  0  0  0  0  0  0  0  0
  1  6  1  0  0  0  0
  2  6  2  0  0  0  0
  3  8  1  0  0  0  0
  3 10  2  0  0  0  0
  4  6  1  0  0  0  0
  4 10  1  0  0  0  0
  4 18  1  0  0  0  0
  5 10  1  0  0  0  0
  5 19  1  0  0  0  0
  5 20  1  0  0  0  0
  7  8  1  0  0  0  0
  7  9  1  0  0  0  0
  7 11  1  0  0  0  0
  7 12  1  0  0  0  0
  8 13  1  0  0  0  0
  8 14  1  0  0  0  0
  9 15  1  0  0  0  0
  9 16  1  0  0  0  0
  9 17  1  0  0  0  0
M  CHG  2   1  -1   6   1
M  END
> <PUBCHEM_COMPOUND_CID>
37047

> <PUBCHEM_CONFORMER_RMSD>
0.6

> <PUBCHEM_CONFORMER_DIVERSEORDER>
1
37
32
28
23
25
10
18
30
7
12
17
14
9
35
13
8
15
22
34
3
36
19
21
29
24
20
31
26
11
16
2
33
6
27
5
4

> <PUBCHEM_MMFF94_PARTIAL_CHARGES>
11
1 -0.52
10 0.55
18 0.4
19 0.4
2 -0.52
20 0.4
3 -0.7
4 -0.45
5 -0.85
6 1.04
8 0.25

> <PUBCHEM_EFFECTIVE_ROTOR_COUNT>
4

> <PUBCHEM_PHARMACOPHORE_FEATURES>
6
1 1 acceptor
1 2 acceptor
1 4 donor
1 5 donor
1 9 hydrophobe
4 3 4 5 10 cation

> <PUBCHEM_HEAVY_ATOM_COUNT>
10

> <PUBCHEM_ATOM_DEF_STEREO_COUNT>
0

> <PUBCHEM_ATOM_UDEF_STEREO_COUNT>
0

> <PUBCHEM_BOND_DEF_STEREO_COUNT>
0

> <PUBCHEM_BOND_UDEF_STEREO_COUNT>
0

> <PUBCHEM_ISOTOPIC_ATOM_COUNT>
0

> <PUBCHEM_COMPONENT_COUNT>
1

> <PUBCHEM_CACTVS_TAUTO_COUNT>
3

> <PUBCHEM_CONFORMER_ID>
000090B700000001

> <PUBCHEM_MMFF94_ENERGY>
19.6258

> <PUBCHEM_FEATURE_SELFOVERLAP>
30.584

> <PUBCHEM_SHAPE_FINGERPRINT>
10149128 76 18337387141506846565
10857977 72 17096105614380452177
14325111 11 18410857684921234130
14390081 3 18409730634422163521
15775835 57 18413110571657226341
19973954 147 18194122911170020577
21028194 46 18409453617320747945
21040471 1 18340207513238508978
23211744 41 18187651271586189603
305870 269 18261386719872218539

> <PUBCHEM_SHAPE_MULTIPOLES>
174.13
4.91
1.84
0.65
0.54
0.54
-0.02
-2.62
-0.11
-0.22
-0.2
0.28
-0.05
0.36

> <PUBCHEM_SHAPE_SELFOVERLAP>
324.291

> <PUBCHEM_SHAPE_VOLUME>
109.1

> <PUBCHEM_COORDINATE_TYPE>
2
5
10

$$$$
