522021
  -OEChem-11012400423D

 26 25  0     1  0  0  0  0  0999 V2000
    3.6665    0.9592   -0.3820 Cl  0  0  0  0  0  0  0  0  0  0  0  0
   -0.1410    0.0420   -0.3762 O   0  0  0  0  0  0  0  0  0  0  0  0
    1.0962    1.5832    0.8069 O   0  0  0  0  0  0  0  0  0  0  0  0
   -2.5223   -0.2648   -0.2845 C   0  0  0  0  0  0  0  0  0  0  0  0
   -3.8370    0.2156    0.3233 C   0  0  0  0  0  0  0  0  0  0  0  0
   -1.3359    0.5304    0.2420 C   0  0  0  0  0  0  0  0  0  0  0  0
    2.1806    0.0375   -0.7395 C   0  0  1  0  0  0  0  0  0  0  0  0
    2.3510   -1.4494   -0.4162 C   0  0  0  0  0  0  0  0  0  0  0  0
    1.0164    0.6652    0.0015 C   0  0  0  0  0  0  0  0  0  0  0  0
   -5.0234   -0.5522   -0.2373 C   0  0  0  0  0  0  0  0  0  0  0  0
    2.5488   -1.7667    1.0619 C   0  0  0  0  0  0  0  0  0  0  0  0
   -2.3706   -1.3302   -0.0705 H   0  0  0  0  0  0  0  0  0  0  0  0
   -2.5562   -0.1812   -1.3780 H   0  0  0  0  0  0  0  0  0  0  0  0
   -3.9737    1.2840    0.1193 H   0  0  0  0  0  0  0  0  0  0  0  0
   -3.8100    0.0941    1.4124 H   0  0  0  0  0  0  0  0  0  0  0  0
   -1.4577    1.5930    0.0019 H   0  0  0  0  0  0  0  0  0  0  0  0
   -1.2552    0.4115    1.3288 H   0  0  0  0  0  0  0  0  0  0  0  0
    2.0028    0.1684   -1.8123 H   0  0  0  0  0  0  0  0  0  0  0  0
    3.2027   -1.8492   -0.9805 H   0  0  0  0  0  0  0  0  0  0  0  0
    1.4683   -1.9993   -0.7655 H   0  0  0  0  0  0  0  0  0  0  0  0
   -5.0981   -0.4222   -1.3217 H   0  0  0  0  0  0  0  0  0  0  0  0
   -4.9340   -1.6223   -0.0245 H   0  0  0  0  0  0  0  0  0  0  0  0
   -5.9542   -0.1930    0.2127 H   0  0  0  0  0  0  0  0  0  0  0  0
    2.6513   -2.8483    1.1992 H   0  0  0  0  0  0  0  0  0  0  0  0
    3.4526   -1.2958    1.4592 H   0  0  0  0  0  0  0  0  0  0  0  0
    1.6945   -1.4362    1.6605 H   0  0  0  0  0  0  0  0  0  0  0  0
  1  7  1  0  0  0  0
  2  6  1  0  0  0  0
  2  9  1  0  0  0  0
  3  9  2  0  0  0  0
  4  5  1  0  0  0  0
  4  6  1  0  0  0  0
  4 12  1  0  0  0  0
  4 13  1  0  0  0  0
  5 10  1  0  0  0  0
  5 14  1  0  0  0  0
  5 15  1  0  0  0  0
  6 16  1  0  0  0  0
  6 17  1  0  0  0  0
  7  8  1  0  0  0  0
  7  9  1  0  0  0  0
  7 18  1  0  0  0  0
  8 11  1  0  0  0  0
  8 19  1  0  0  0  0
  8 20  1  0  0  0  0
 10 21  1  0  0  0  0
 10 22  1  0  0  0  0
 10 23  1  0  0  0  0
 11 24  1  0  0  0  0
 11 25  1  0  0  0  0
 11 26  1  0  0  0  0
M  END
> <PUBCHEM_COMPOUND_CID>
522021

> <PUBCHEM_CONFORMER_RMSD>
0.8

> <PUBCHEM_CONFORMER_DIVERSEORDER>
1
780
432
779
565
52
771
7
555
280
533
698
256
14
382
496
12
400
307
19
373
770
733
279
290
47
322
344
24
463
545
552
20
102
80
318
204
69
346
8
213
133
781
371
453
647
374
691
535
654
25
189
707
39
338
320
621
237
566
569
162
60
755
49
65
2
295
120
324
560
203
458
11
421
115
114
412
247
778
16
456
223
28
488
116
27
214
23
40
238
522
409
132
774
5
439
540
258
32
760
348
70
53
177
616
335
396
285
149
3
178
67
292
264
658
45
54
640
559
619
700
93
231
454
110
784
84

> <PUBCHEM_MMFF94_PARTIAL_CHARGES>
6
1 -0.29
2 -0.43
3 -0.57
6 0.28
7 0.35
9 0.66

> <PUBCHEM_EFFECTIVE_ROTOR_COUNT>
6

> <PUBCHEM_PHARMACOPHORE_FEATURES>
3
1 10 hydrophobe
1 11 hydrophobe
1 3 acceptor

> <PUBCHEM_HEAVY_ATOM_COUNT>
11

> <PUBCHEM_ATOM_DEF_STEREO_COUNT>
0

> <PUBCHEM_ATOM_UDEF_STEREO_COUNT>
1

> <PUBCHEM_BOND_DEF_STEREO_COUNT>
0

> <PUBCHEM_BOND_UDEF_STEREO_COUNT>
0

> <PUBCHEM_ISOTOPIC_ATOM_COUNT>
0

> <PUBCHEM_COMPONENT_COUNT>
1

> <PUBCHEM_CACTVS_TAUTO_COUNT>
1

> <PUBCHEM_CONFORMER_ID>
0007F72500000001

> <PUBCHEM_MMFF94_ENERGY>
4.5518

> <PUBCHEM_FEATURE_SELFOVERLAP>
15.223

> <PUBCHEM_SHAPE_FINGERPRINT>
12932764 1 18272360993021740269
14144814 61 18131356289023140281
14251717 144 18408882910804641731
14252887 29 17846789494057536750
177051 138 18202283567896398183
17834074 16 18186810213931627251
190213 19 16298391258000315701
20279233 1 17458070377950714947
20645477 70 18335420132284794071
20871998 22 18058171609694068830
21501925 9 18339071597457311266
22485316 2 18334294275633163727
23402539 116 16226042353025344134
23402655 69 18413107251916564589
23532345 1 18113625619968716077
23557571 272 16226036778189397516
3248919 1 16660940905901167085
522135 26 18261111859603800103
581208 293 18259703410619804650

> <PUBCHEM_SHAPE_MULTIPOLES>
216.51
8.35
1.48
0.87
10.18
0.42
0.08
1.12
-0.63
-1.64
0.33
-0.38
0.09
-0.42

> <PUBCHEM_SHAPE_SELFOVERLAP>
388.825

> <PUBCHEM_SHAPE_VOLUME>
140.5

> <PUBCHEM_COORDINATE_TYPE>
2
5
10

$$$$
