6427133
  -OEChem-11012400423D

 21 21  0     1  0  0  0  0  0999 V2000
   -0.6349    0.4369    0.3804 C   0  0  1  0  0  0  0  0  0  0  0  0
    0.6439    0.4336   -0.3717 C   0  0  1  0  0  0  0  0  0  0  0  0
   -0.0160    1.7297   -0.0023 C   0  0  0  0  0  0  0  0  0  0  0  0
   -1.8934    0.0049   -0.3531 C   0  0  0  0  0  0  0  0  0  0  0  0
    1.8763    0.0204    0.3433 C   0  0  0  0  0  0  0  0  0  0  0  0
   -2.4227   -1.3186    0.1725 C   0  0  0  0  0  0  0  0  0  0  0  0
    2.4468   -1.3069   -0.1692 C   0  0  0  0  0  0  0  0  0  0  0  0
   -0.6545    0.2042    1.4374 H   0  0  0  0  0  0  0  0  0  0  0  0
    0.6588    0.1889   -1.4265 H   0  0  0  0  0  0  0  0  0  0  0  0
   -0.4671    2.3093   -0.7988 H   0  0  0  0  0  0  0  0  0  0  0  0
    0.4280    2.3309    0.7823 H   0  0  0  0  0  0  0  0  0  0  0  0
   -1.7150   -0.0735   -1.4318 H   0  0  0  0  0  0  0  0  0  0  0  0
   -2.6623    0.7729   -0.2081 H   0  0  0  0  0  0  0  0  0  0  0  0
    1.7082   -0.0613    1.4239 H   0  0  0  0  0  0  0  0  0  0  0  0
    2.6419    0.7933    0.2036 H   0  0  0  0  0  0  0  0  0  0  0  0
   -1.6783   -2.1120    0.0483 H   0  0  0  0  0  0  0  0  0  0  0  0
   -2.6648   -1.2503    1.2382 H   0  0  0  0  0  0  0  0  0  0  0  0
   -3.3295   -1.6092   -0.3665 H   0  0  0  0  0  0  0  0  0  0  0  0
    1.7184   -2.1143   -0.0424 H   0  0  0  0  0  0  0  0  0  0  0  0
    2.6954   -1.2399   -1.2334 H   0  0  0  0  0  0  0  0  0  0  0  0
    3.3553   -1.5685    0.3817 H   0  0  0  0  0  0  0  0  0  0  0  0
  1  2  1  0  0  0  0
  1  3  1  0  0  0  0
  1  4  1  0  0  0  0
  1  8  1  0  0  0  0
  2  3  1  0  0  0  0
  2  5  1  0  0  0  0
  2  9  1  0  0  0  0
  3 10  1  0  0  0  0
  3 11  1  0  0  0  0
  4  6  1  0  0  0  0
  4 12  1  0  0  0  0
  4 13  1  0  0  0  0
  5  7  1  0  0  0  0
  5 14  1  0  0  0  0
  5 15  1  0  0  0  0
  6 16  1  0  0  0  0
  6 17  1  0  0  0  0
  6 18  1  0  0  0  0
  7 19  1  0  0  0  0
  7 20  1  0  0  0  0
  7 21  1  0  0  0  0
M  END
> <PUBCHEM_COMPOUND_CID>
6427133

> <PUBCHEM_CONFORMER_RMSD>
0.4

> <PUBCHEM_CONFORMER_DIVERSEORDER>
1
3
6
4
2
5

> <PUBCHEM_MMFF94_PARTIAL_CHARGES>
9
1 -0.19
10 0.1
11 0.1
2 -0.19
3 -0.2
4 0.09
5 0.09
8 0.1
9 0.1

> <PUBCHEM_EFFECTIVE_ROTOR_COUNT>
2.6

> <PUBCHEM_PHARMACOPHORE_FEATURES>
2
1 6 hydrophobe
1 7 hydrophobe

> <PUBCHEM_HEAVY_ATOM_COUNT>
7

> <PUBCHEM_ATOM_DEF_STEREO_COUNT>
2

> <PUBCHEM_ATOM_UDEF_STEREO_COUNT>
0

> <PUBCHEM_BOND_DEF_STEREO_COUNT>
0

> <PUBCHEM_BOND_UDEF_STEREO_COUNT>
0

> <PUBCHEM_ISOTOPIC_ATOM_COUNT>
0

> <PUBCHEM_COMPONENT_COUNT>
1

> <PUBCHEM_CACTVS_TAUTO_COUNT>
1

> <PUBCHEM_CONFORMER_ID>
006211FD00000001

> <PUBCHEM_MMFF94_ENERGY>
7.2202

> <PUBCHEM_FEATURE_SELFOVERLAP>
10.149

> <PUBCHEM_SHAPE_FINGERPRINT>
10857977 72 18270101492299804514
14128692 85 18334303092763133646
20653085 51 8285915834685548190
21040471 1 17545317480376892968
23552423 10 18187651267027185694
23552449 11 18191008196143542993
29004967 10 18339637944524141856

> <PUBCHEM_SHAPE_MULTIPOLES>
144.06
3.44
1.59
0.7
0.04
0.12
0
-2.16
-0.01
-0.01
0
0
0.01
0.13

> <PUBCHEM_SHAPE_SELFOVERLAP>
265.152

> <PUBCHEM_SHAPE_VOLUME>
93.9

> <PUBCHEM_COORDINATE_TYPE>
2
5
10

$$$$
