140617
  -OEChem-11012401213D

 30 29  0     0  0  0  0  0  0999 V2000
   -2.7942    1.9569    1.7982 O   0  5  0  0  0  0  0  0  0  0  0  0
   -3.3050   -1.6681    0.9957 O   0  5  0  0  0  0  0  0  0  0  0  0
   -1.4586   -0.1694   -2.0109 O   0  5  0  0  0  0  0  0  0  0  0  0
    1.0891    2.2093    0.2428 O   0  5  0  0  0  0  0  0  0  0  0  0
    1.9762   -0.8187   -1.9341 O   0  5  0  0  0  0  0  0  0  0  0  0
    3.6964    0.2999    2.1408 O   0  5  0  0  0  0  0  0  0  0  0  0
   -4.0888    1.7787    0.0360 O   0  0  0  0  0  0  0  0  0  0  0  0
   -3.7589   -1.0370   -1.0544 O   0  0  0  0  0  0  0  0  0  0  0  0
   -1.4182    1.9162   -1.3310 O   0  0  0  0  0  0  0  0  0  0  0  0
    2.2494    1.7793   -1.5672 O   0  0  0  0  0  0  0  0  0  0  0  0
    3.5642   -1.6466   -0.6665 O   0  0  0  0  0  0  0  0  0  0  0  0
    4.5574    1.0319    0.2604 O   0  0  0  0  0  0  0  0  0  0  0  0
   -0.2550   -2.8429    1.2916 O   0  5  0  0  0  0  0  0  0  0  0  0
   -0.3717   -2.4693   -0.8750 O   0  0  0  0  0  0  0  0  0  0  0  0
    0.0264   -0.7502    0.5195 N   0  0  0  0  0  0  0  0  0  0  0  0
   -3.1187    1.4304    0.7230 N   0  3  0  0  0  0  0  0  0  0  0  0
   -3.1868   -0.8930    0.0345 N   0  3  0  0  0  0  0  0  0  0  0  0
   -1.6796    0.7148   -1.1715 N   0  3  0  0  0  0  0  0  0  0  0  0
    1.8628    1.5047   -0.4231 N   0  3  0  0  0  0  0  0  0  0  0  0
    2.6646   -0.8271   -0.9038 N   0  3  0  0  0  0  0  0  0  0  0  0
    3.6334    0.5454    0.9265 N   0  3  0  0  0  0  0  0  0  0  0  0
   -0.2306   -2.1057    0.2988 N   0  3  0  0  0  0  0  0  0  0  0  0
   -1.0615    0.0127    1.1387 C   0  0  0  0  0  0  0  0  0  0  0  0
    1.3099   -0.4373    1.1517 C   0  0  0  0  0  0  0  0  0  0  0  0
   -2.2402    0.2957    0.1884 C   0  0  0  0  0  0  0  0  0  0  0  0
    2.3380    0.1895    0.1910 C   0  0  0  0  0  0  0  0  0  0  0  0
   -0.6625    0.9869    1.4450 H   0  0  0  0  0  0  0  0  0  0  0  0
   -1.3896   -0.4590    2.0754 H   0  0  0  0  0  0  0  0  0  0  0  0
    1.7461   -1.3485    1.5890 H   0  0  0  0  0  0  0  0  0  0  0  0
    1.1715    0.2186    2.0237 H   0  0  0  0  0  0  0  0  0  0  0  0
  1 16  1  0  0  0  0
  2 17  1  0  0  0  0
  3 18  1  0  0  0  0
  4 19  1  0  0  0  0
  5 20  1  0  0  0  0
  6 21  1  0  0  0  0
  7 16  2  0  0  0  0
  8 17  2  0  0  0  0
  9 18  2  0  0  0  0
 10 19  2  0  0  0  0
 11 20  2  0  0  0  0
 12 21  2  0  0  0  0
 13 22  1  0  0  0  0
 14 22  2  0  0  0  0
 15 22  1  0  0  0  0
 15 23  1  0  0  0  0
 15 24  1  0  0  0  0
 16 25  1  0  0  0  0
 17 25  1  0  0  0  0
 18 25  1  0  0  0  0
 19 26  1  0  0  0  0
 20 26  1  0  0  0  0
 21 26  1  0  0  0  0
 23 25  1  0  0  0  0
 23 27  1  0  0  0  0
 23 28  1  0  0  0  0
 24 26  1  0  0  0  0
 24 29  1  0  0  0  0
 24 30  1  0  0  0  0
M  CHG  8   1  -1   2  -1   3  -1   4  -1   5  -1   6  -1  13  -1  16   1
M  CHG  6  17   1  18   1  19   1  20   1  21   1  22   1
M  END
> <PUBCHEM_COMPOUND_CID>
140617

> <PUBCHEM_CONFORMER_RMSD>
1

> <PUBCHEM_CONFORMER_DIVERSEORDER>
1
3
4
2
5
6

> <PUBCHEM_MMFF94_PARTIAL_CHARGES>
26
1 -0.52
10 -0.52
11 -0.52
12 -0.52
13 -0.52
14 -0.52
15 -0.53
16 0.8
17 0.8
18 0.8
19 0.8
2 -0.52
20 0.8
21 0.8
22 1.03
23 0.27
24 0.27
25 0.72
26 0.72
3 -0.52
4 -0.52
5 -0.52
6 -0.52
7 -0.52
8 -0.52
9 -0.52

> <PUBCHEM_EFFECTIVE_ROTOR_COUNT>
11

> <PUBCHEM_PHARMACOPHORE_FEATURES>
20
1 1 acceptor
1 1 anion
1 10 acceptor
1 11 acceptor
1 12 acceptor
1 13 acceptor
1 14 acceptor
1 2 acceptor
1 2 anion
1 3 acceptor
1 3 anion
1 4 acceptor
1 4 anion
1 5 acceptor
1 5 anion
1 6 acceptor
1 6 anion
1 7 acceptor
1 8 acceptor
1 9 acceptor

> <PUBCHEM_HEAVY_ATOM_COUNT>
26

> <PUBCHEM_ATOM_DEF_STEREO_COUNT>
0

> <PUBCHEM_ATOM_UDEF_STEREO_COUNT>
0

> <PUBCHEM_BOND_DEF_STEREO_COUNT>
0

> <PUBCHEM_BOND_UDEF_STEREO_COUNT>
0

> <PUBCHEM_ISOTOPIC_ATOM_COUNT>
0

> <PUBCHEM_COMPONENT_COUNT>
1

> <PUBCHEM_CACTVS_TAUTO_COUNT>
1

> <PUBCHEM_CONFORMER_ID>
0002254900000001

> <PUBCHEM_MMFF94_ENERGY>
97.0915

> <PUBCHEM_FEATURE_SELFOVERLAP>
102.132

> <PUBCHEM_SHAPE_FINGERPRINT>
10863032 1 17632858590150765340
11132069 177 18334016064594357593
12173636 292 18130786712088317877
12596599 1 18200324220874253023
12633257 1 17676207935782861905
13224815 77 17240773899269403617
14142880 1 18336255791481898545
14178342 30 18337951182155088745
15309172 13 18186801361629113529
15775835 57 18040996236923920777
16945 1 18057612164296596343
18186145 218 18341051805040375106
23402539 116 18270104825015123350
23419403 2 16396841769258220935
23493267 7 13686303516806101798
23557571 272 18201438116126093762
23559900 14 18272374127627862682
3286 77 18411698828580845629
81228 2 17972045995922229683

> <PUBCHEM_SHAPE_MULTIPOLES>
413.05
6.91
2.45
1.7
1.16
0.56
0.15
-1.59
-0.89
-0.76
-0.08
0.3
-0.09
-0.02

> <PUBCHEM_SHAPE_SELFOVERLAP>
835.798

> <PUBCHEM_SHAPE_VOLUME>
229.1

> <PUBCHEM_COORDINATE_TYPE>
2
5
10

$$$$
