138044
  -OEChem-11012401253D

 21 20  0     0  0  0  0  0  0999 V2000
    2.8712   -0.7918   -0.8984 O   0  5  0  0  0  0  0  0  0  0  0  0
    0.9670    2.2521   -0.5953 O   0  5  0  0  0  0  0  0  0  0  0  0
    1.8219   -1.6201    0.8485 O   0  0  0  0  0  0  0  0  0  0  0  0
    0.9220    1.2992    1.3865 O   0  0  0  0  0  0  0  0  0  0  0  0
    1.8872   -0.8957   -0.1534 N   0  3  0  0  0  0  0  0  0  0  0  0
    0.8666    1.2683    0.1502 N   0  3  0  0  0  0  0  0  0  0  0  0
   -0.6028   -0.7715    0.0417 C   0  0  0  0  0  0  0  0  0  0  0  0
   -1.8722    0.0285   -0.2755 C   0  0  0  0  0  0  0  0  0  0  0  0
    0.6577   -0.0849   -0.4791 C   0  0  0  0  0  0  0  0  0  0  0  0
   -3.1275   -0.7269    0.1623 C   0  0  0  0  0  0  0  0  0  0  0  0
   -4.3911    0.0430   -0.1873 C   0  0  0  0  0  0  0  0  0  0  0  0
   -0.5592   -0.9260    1.1281 H   0  0  0  0  0  0  0  0  0  0  0  0
   -0.6829   -1.7684   -0.4116 H   0  0  0  0  0  0  0  0  0  0  0  0
   -1.8453    1.0017    0.2283 H   0  0  0  0  0  0  0  0  0  0  0  0
   -1.9205    0.2225   -1.3540 H   0  0  0  0  0  0  0  0  0  0  0  0
    0.6348    0.0453   -1.5666 H   0  0  0  0  0  0  0  0  0  0  0  0
   -3.1611   -1.7087   -0.3244 H   0  0  0  0  0  0  0  0  0  0  0  0
   -3.0985   -0.9015    1.2441 H   0  0  0  0  0  0  0  0  0  0  0  0
   -4.4663    0.2042   -1.2675 H   0  0  0  0  0  0  0  0  0  0  0  0
   -5.2760   -0.5145    0.1353 H   0  0  0  0  0  0  0  0  0  0  0  0
   -4.4052    1.0192    0.3079 H   0  0  0  0  0  0  0  0  0  0  0  0
  1  5  1  0  0  0  0
  2  6  1  0  0  0  0
  3  5  2  0  0  0  0
  4  6  2  0  0  0  0
  5  9  1  0  0  0  0
  6  9  1  0  0  0  0
  7  8  1  0  0  0  0
  7  9  1  0  0  0  0
  7 12  1  0  0  0  0
  7 13  1  0  0  0  0
  8 10  1  0  0  0  0
  8 14  1  0  0  0  0
  8 15  1  0  0  0  0
  9 16  1  0  0  0  0
 10 11  1  0  0  0  0
 10 17  1  0  0  0  0
 10 18  1  0  0  0  0
 11 19  1  0  0  0  0
 11 20  1  0  0  0  0
 11 21  1  0  0  0  0
M  CHG  4   1  -1   2  -1   5   1   6   1
M  END
> <PUBCHEM_COMPOUND_CID>
138044

> <PUBCHEM_CONFORMER_RMSD>
0.6

> <PUBCHEM_CONFORMER_DIVERSEORDER>
1
31
38
20
35
23
10
43
40
2
32
46
41
33
19
15
26
14
34
44
9
36
42
3
5
37
29
11
28
39
18
8
30
25
13
21
16
17
6
12
27
45
4
22
7
24

> <PUBCHEM_MMFF94_PARTIAL_CHARGES>
7
1 -0.52
2 -0.52
3 -0.52
4 -0.52
5 0.8
6 0.8
9 0.48

> <PUBCHEM_EFFECTIVE_ROTOR_COUNT>
5

> <PUBCHEM_PHARMACOPHORE_FEATURES>
7
1 1 acceptor
1 1 anion
1 11 hydrophobe
1 2 acceptor
1 2 anion
1 3 acceptor
1 4 acceptor

> <PUBCHEM_HEAVY_ATOM_COUNT>
11

> <PUBCHEM_ATOM_DEF_STEREO_COUNT>
0

> <PUBCHEM_ATOM_UDEF_STEREO_COUNT>
0

> <PUBCHEM_BOND_DEF_STEREO_COUNT>
0

> <PUBCHEM_BOND_UDEF_STEREO_COUNT>
0

> <PUBCHEM_ISOTOPIC_ATOM_COUNT>
0

> <PUBCHEM_COMPONENT_COUNT>
1

> <PUBCHEM_CACTVS_TAUTO_COUNT>
2

> <PUBCHEM_CONFORMER_ID>
00021B3C00000001

> <PUBCHEM_MMFF94_ENERGY>
11.4848

> <PUBCHEM_FEATURE_SELFOVERLAP>
35.683

> <PUBCHEM_SHAPE_FINGERPRINT>
10219947 1 17560804307559256431
12932764 1 17967524693125070551
13922767 16 18272363157885470497
18186145 218 18409442597141658567
20653091 64 18412269449287796417
23380061 81 18260835933925497373
23552423 10 18264486359552781919
3248919 1 18190448553937321087

> <PUBCHEM_SHAPE_MULTIPOLES>
192.94
5.41
1.64
0.89
6.39
0.73
-0.16
-1.16
0.56
-1.26
-0.11
-0.41
0.1
0.09

> <PUBCHEM_SHAPE_SELFOVERLAP>
359.117

> <PUBCHEM_SHAPE_VOLUME>
118.5

> <PUBCHEM_COORDINATE_TYPE>
2
5
10

$$$$
