79087
  -OEChem-11012401233D

 22 21  0     1  0  0  0  0  0999 V2000
   -3.6491   -0.6866   -0.2842 O   0  0  0  0  0  0  0  0  0  0  0  0
   -2.6347    1.2443    0.3486 O   0  0  0  0  0  0  0  0  0  0  0  0
    2.6569    1.2998   -0.5391 N   0  0  0  0  0  0  0  0  0  0  0  0
    1.2414   -0.6824   -0.0130 C   0  0  0  0  0  0  0  0  0  0  0  0
    2.5187    0.1144    0.3070 C   0  0  1  0  0  0  0  0  0  0  0  0
   -0.0467    0.1246    0.1800 C   0  0  0  0  0  0  0  0  0  0  0  0
   -1.2817   -0.7226   -0.1280 C   0  0  0  0  0  0  0  0  0  0  0  0
    3.7559   -0.7619    0.1157 C   0  0  0  0  0  0  0  0  0  0  0  0
   -2.5606    0.0704    0.0131 C   0  0  0  0  0  0  0  0  0  0  0  0
    1.2840   -1.0500   -1.0469 H   0  0  0  0  0  0  0  0  0  0  0  0
    1.2053   -1.5695    0.6324 H   0  0  0  0  0  0  0  0  0  0  0  0
    2.4856    0.4412    1.3529 H   0  0  0  0  0  0  0  0  0  0  0  0
   -0.0995    0.4980    1.2101 H   0  0  0  0  0  0  0  0  0  0  0  0
   -0.0504    1.0016   -0.4773 H   0  0  0  0  0  0  0  0  0  0  0  0
   -1.3299   -1.5736    0.5602 H   0  0  0  0  0  0  0  0  0  0  0  0
   -1.2276   -1.0968   -1.1564 H   0  0  0  0  0  0  0  0  0  0  0  0
    4.6697   -0.2117    0.3667 H   0  0  0  0  0  0  0  0  0  0  0  0
    3.8458   -1.1139   -0.9184 H   0  0  0  0  0  0  0  0  0  0  0  0
    3.7105   -1.6412    0.7674 H   0  0  0  0  0  0  0  0  0  0  0  0
    1.8941    1.9500   -0.3597 H   0  0  0  0  0  0  0  0  0  0  0  0
    2.5827    1.0352   -1.5206 H   0  0  0  0  0  0  0  0  0  0  0  0
   -4.4831   -0.1779   -0.1955 H   0  0  0  0  0  0  0  0  0  0  0  0
  1  9  1  0  0  0  0
  1 22  1  0  0  0  0
  2  9  2  0  0  0  0
  3  5  1  0  0  0  0
  3 20  1  0  0  0  0
  3 21  1  0  0  0  0
  4  5  1  0  0  0  0
  4  6  1  0  0  0  0
  4 10  1  0  0  0  0
  4 11  1  0  0  0  0
  5  8  1  0  0  0  0
  5 12  1  0  0  0  0
  6  7  1  0  0  0  0
  6 13  1  0  0  0  0
  6 14  1  0  0  0  0
  7  9  1  0  0  0  0
  7 15  1  0  0  0  0
  7 16  1  0  0  0  0
  8 17  1  0  0  0  0
  8 18  1  0  0  0  0
  8 19  1  0  0  0  0
M  END
> <PUBCHEM_COMPOUND_CID>
79087

> <PUBCHEM_CONFORMER_RMSD>
0.6

> <PUBCHEM_CONFORMER_DIVERSEORDER>
1
38
35
22
37
3
16
30
36
26
2
11
21
5
29
32
14
34
10
20
31
25
13
6
33
23
24
19
27
4
7
9
15
18
17
12
8
28

> <PUBCHEM_MMFF94_PARTIAL_CHARGES>
9
1 -0.65
2 -0.57
20 0.36
21 0.36
22 0.5
3 -0.99
5 0.27
7 0.06
9 0.66

> <PUBCHEM_EFFECTIVE_ROTOR_COUNT>
4

> <PUBCHEM_PHARMACOPHORE_FEATURES>
5
1 1 acceptor
1 2 acceptor
1 3 cation
1 3 donor
3 1 2 9 anion

> <PUBCHEM_HEAVY_ATOM_COUNT>
9

> <PUBCHEM_ATOM_DEF_STEREO_COUNT>
0

> <PUBCHEM_ATOM_UDEF_STEREO_COUNT>
1

> <PUBCHEM_BOND_DEF_STEREO_COUNT>
0

> <PUBCHEM_BOND_UDEF_STEREO_COUNT>
0

> <PUBCHEM_ISOTOPIC_ATOM_COUNT>
0

> <PUBCHEM_COMPONENT_COUNT>
1

> <PUBCHEM_CACTVS_TAUTO_COUNT>
1

> <PUBCHEM_CONFORMER_ID>
000134EF00000001

> <PUBCHEM_MMFF94_ENERGY>
-0.524

> <PUBCHEM_FEATURE_SELFOVERLAP>
25.43

> <PUBCHEM_SHAPE_FINGERPRINT>
11062470 55 9295288352259763026
12162725 195 18410013234247815040
12932764 1 17132106953088047231
14325111 11 18411981360114223186
14390081 3 18342455954234742577
190213 19 18409726266028966890
20711983 171 18271813397365528901
22485316 2 9655576292363344259
3248919 1 18408038524280918826

> <PUBCHEM_SHAPE_MULTIPOLES>
168.5
6.68
1.11
0.65
0.17
0.24
0
-0.29
0.13
-0.12
0.06
-0.09
0.03
-0.37

> <PUBCHEM_SHAPE_SELFOVERLAP>
306.382

> <PUBCHEM_SHAPE_VOLUME>
108

> <PUBCHEM_COORDINATE_TYPE>
2
5
10

$$$$
