135485325
  -OEChem-11012401143D

 16 16  0     0  0  0  0  0  0999 V2000
    0.5247    2.2419   -0.0010 O   0  0  0  0  0  0  0  0  0  0  0  0
   -2.3756   -1.4625   -0.0001 O   0  0  0  0  0  0  0  0  0  0  0  0
   -3.2137    0.4718    0.0005 O   0  0  0  0  0  0  0  0  0  0  0  0
    3.6189   -0.4945    0.0003 O   0  0  0  0  0  0  0  0  0  0  0  0
   -2.0603    1.2586    0.0004 N   0  0  0  0  0  0  0  0  0  0  0  0
    2.7218    0.5755    0.0005 N   0  0  0  0  0  0  0  0  0  0  0  0
   -1.0345    0.4759    0.0000 C   0  0  0  0  0  0  0  0  0  0  0  0
    1.5223    0.1004    0.0003 C   0  0  0  0  0  0  0  0  0  0  0  0
    0.3507    1.0374    0.0000 C   0  0  0  0  0  0  0  0  0  0  0  0
   -1.2446   -1.0063   -0.0003 C   0  0  0  0  0  0  0  0  0  0  0  0
    1.2170   -1.3509   -0.0003 C   0  0  0  0  0  0  0  0  0  0  0  0
   -0.0267   -1.8472   -0.0004 C   0  0  0  0  0  0  0  0  0  0  0  0
    2.0285   -2.0710   -0.0004 H   0  0  0  0  0  0  0  0  0  0  0  0
   -0.1831   -2.9213   -0.0007 H   0  0  0  0  0  0  0  0  0  0  0  0
   -3.9119    1.1482    0.0007 H   0  0  0  0  0  0  0  0  0  0  0  0
    4.4742   -0.0326    0.0005 H   0  0  0  0  0  0  0  0  0  0  0  0
  1  9  2  0  0  0  0
  2 10  2  0  0  0  0
  3  5  1  0  0  0  0
  3 15  1  0  0  0  0
  4  6  1  0  0  0  0
  4 16  1  0  0  0  0
  5  7  2  3  0  0  0
  6  8  2  3  0  0  0
  7  9  1  0  0  0  0
  7 10  1  0  0  0  0
  8  9  1  0  0  0  0
  8 11  1  0  0  0  0
 10 12  1  0  0  0  0
 11 12  2  0  0  0  0
 11 13  1  0  0  0  0
 12 14  1  0  0  0  0
M  END
> <PUBCHEM_COMPOUND_CID>
135485325

> <PUBCHEM_CONFORMER_RMSD>
0.4

> <PUBCHEM_CONFORMER_DIVERSEORDER>
1

> <PUBCHEM_MMFF94_PARTIAL_CHARGES>
16
1 -0.57
10 0.56
11 -0.14
12 -0.14
13 0.15
14 0.15
15 0.4
16 0.4
2 -0.57
3 -0.34
4 -0.34
5 -0.51
6 -0.51
7 0.45
8 0.44
9 0.57

> <PUBCHEM_EFFECTIVE_ROTOR_COUNT>
0

> <PUBCHEM_PHARMACOPHORE_FEATURES>
7
1 1 acceptor
1 2 acceptor
1 3 anion
1 4 anion
1 5 acceptor
1 6 acceptor
6 7 8 9 10 11 12 rings

> <PUBCHEM_HEAVY_ATOM_COUNT>
12

> <PUBCHEM_ATOM_DEF_STEREO_COUNT>
0

> <PUBCHEM_ATOM_UDEF_STEREO_COUNT>
0

> <PUBCHEM_BOND_DEF_STEREO_COUNT>
0

> <PUBCHEM_BOND_UDEF_STEREO_COUNT>
2

> <PUBCHEM_ISOTOPIC_ATOM_COUNT>
0

> <PUBCHEM_COMPONENT_COUNT>
1

> <PUBCHEM_CACTVS_TAUTO_COUNT>
-1

> <PUBCHEM_CONFORMER_ID>
0813578D00000001

> <PUBCHEM_MMFF94_ENERGY>
36.7146

> <PUBCHEM_FEATURE_SELFOVERLAP>
35.537

> <PUBCHEM_SHAPE_FINGERPRINT>
11206711 2 18337105769451069943
12032990 46 18411145727040467190
12423570 1 17677056737084110964
12524768 44 18197503921920034639
13380535 76 18410572847207112031
14325111 11 18410575102175335428
16945 1 18410573981046407397
193761 8 17906452486614864228
20588541 1 18338801117427995239
20645476 183 17822875167941215718
21040471 1 18410856525295894946
23235685 24 18411412882500988105
23402655 69 18124015864082896461
23463225 33 18335417933393108402
23552423 10 18117557550932621517
23559900 14 18343024381426507188
241688 4 18337387261481133465
2748010 2 18339646646138666942
5084963 1 18058171802608777491
528886 8 18411412886774811090
53812653 166 18342453742315996824
66348 1 18411698746918334147

> <PUBCHEM_SHAPE_MULTIPOLES>
213.52
4.07
1.96
0.57
0.89
0.08
0
0.01
0
-0.26
0
0.01
-0.02
0

> <PUBCHEM_SHAPE_SELFOVERLAP>
449.932

> <PUBCHEM_SHAPE_VOLUME>
118.4

> <PUBCHEM_COORDINATE_TYPE>
2
5
10

$$$$
