77049
  -OEChem-11012400373D

 11 10  0     0  0  0  0  0  0999 V2000
   -2.5102   -0.6405    0.0097 O   0  0  0  0  0  0  0  0  0  0  0  0
    2.9118    0.0782    0.0108 N   0  0  0  0  0  0  0  0  0  0  0  0
   -0.5200    0.7578   -0.0047 C   0  0  0  0  0  0  0  0  0  0  0  0
    0.3452   -0.4979   -0.0165 C   0  0  0  0  0  0  0  0  0  0  0  0
   -2.0064    0.4775    0.0013 C   0  0  0  0  0  0  0  0  0  0  0  0
    1.7796   -0.1751   -0.0006 C   0  0  0  0  0  0  0  0  0  0  0  0
   -0.3004    1.3643    0.8817 H   0  0  0  0  0  0  0  0  0  0  0  0
   -0.3080    1.3742   -0.8862 H   0  0  0  0  0  0  0  0  0  0  0  0
    0.1141   -1.0976   -0.9048 H   0  0  0  0  0  0  0  0  0  0  0  0
    0.1024   -1.1227    0.8514 H   0  0  0  0  0  0  0  0  0  0  0  0
   -2.6466    1.3767    0.0004 H   0  0  0  0  0  0  0  0  0  0  0  0
  1  5  2  0  0  0  0
  2  6  3  0  0  0  0
  3  4  1  0  0  0  0
  3  5  1  0  0  0  0
  3  7  1  0  0  0  0
  3  8  1  0  0  0  0
  4  6  1  0  0  0  0
  4  9  1  0  0  0  0
  4 10  1  0  0  0  0
  5 11  1  0  0  0  0
M  END
> <PUBCHEM_COMPOUND_CID>
77049

> <PUBCHEM_CONFORMER_RMSD>
0.4

> <PUBCHEM_CONFORMER_DIVERSEORDER>
1
3
7
2
4
6
8
5
9

> <PUBCHEM_MMFF94_PARTIAL_CHARGES>
7
1 -0.57
11 0.06
2 -0.56
3 0.06
4 0.2
5 0.45
6 0.36

> <PUBCHEM_EFFECTIVE_ROTOR_COUNT>
2

> <PUBCHEM_PHARMACOPHORE_FEATURES>
2
1 1 acceptor
1 2 acceptor

> <PUBCHEM_HEAVY_ATOM_COUNT>
6

> <PUBCHEM_ATOM_DEF_STEREO_COUNT>
0

> <PUBCHEM_ATOM_UDEF_STEREO_COUNT>
0

> <PUBCHEM_BOND_DEF_STEREO_COUNT>
0

> <PUBCHEM_BOND_UDEF_STEREO_COUNT>
0

> <PUBCHEM_ISOTOPIC_ATOM_COUNT>
0

> <PUBCHEM_COMPONENT_COUNT>
1

> <PUBCHEM_CACTVS_TAUTO_COUNT>
2

> <PUBCHEM_CONFORMER_ID>
00012CF900000001

> <PUBCHEM_MMFF94_ENERGY>
1.4225

> <PUBCHEM_FEATURE_SELFOVERLAP>
10.149

> <PUBCHEM_SHAPE_FINGERPRINT>
10857977 72 18341883130114506721
14390081 3 18343015567025104576
16714656 1 18343300370553769479
29004967 10 16845575305221289282
5460574 1 9223230749763593892

> <PUBCHEM_SHAPE_MULTIPOLES>
112.63
3.97
0.83
0.59
0.89
0.03
0
-0.21
0.02
-0.26
0
0
0.01
0

> <PUBCHEM_SHAPE_SELFOVERLAP>
201.153

> <PUBCHEM_SHAPE_VOLUME>
70.4

> <PUBCHEM_COORDINATE_TYPE>
2
5
10

$$$$
