18711397
  -OEChem-11012400493D

 33 33  0     1  0  0  0  0  0999 V2000
   -0.2508    0.0377   -0.5197 C   0  0  1  0  0  0  0  0  0  0  0  0
    0.5977   -1.0885    0.1317 C   0  0  2  0  0  0  0  0  0  0  0  0
   -1.6691    0.0567    0.0586 C   0  0  0  0  0  0  0  0  0  0  0  0
    0.3813    1.4341   -0.3738 C   0  0  0  0  0  0  0  0  0  0  0  0
    1.6691   -0.5258    1.0754 C   0  0  0  0  0  0  0  0  0  0  0  0
    1.8861    1.3944   -0.5995 C   0  0  0  0  0  0  0  0  0  0  0  0
    2.5962    0.4890    0.4061 C   0  0  0  0  0  0  0  0  0  0  0  0
    1.2297   -1.9871   -0.9388 C   0  0  0  0  0  0  0  0  0  0  0  0
   -2.3326   -1.3125   -0.1570 C   0  0  0  0  0  0  0  0  0  0  0  0
   -1.6086    0.3611    1.5636 C   0  0  0  0  0  0  0  0  0  0  0  0
   -2.4991    1.1408   -0.6466 C   0  0  0  0  0  0  0  0  0  0  0  0
   -0.3276   -0.1681   -1.5975 H   0  0  0  0  0  0  0  0  0  0  0  0
   -0.0003   -1.7653    0.7454 H   0  0  0  0  0  0  0  0  0  0  0  0
    0.2178    1.8978    0.6007 H   0  0  0  0  0  0  0  0  0  0  0  0
   -0.0475    2.1153   -1.1186 H   0  0  0  0  0  0  0  0  0  0  0  0
    2.2714   -1.3395    1.4978 H   0  0  0  0  0  0  0  0  0  0  0  0
    1.1880   -0.0404    1.9324 H   0  0  0  0  0  0  0  0  0  0  0  0
    2.3051    2.4059   -0.5440 H   0  0  0  0  0  0  0  0  0  0  0  0
    2.0880    1.0367   -1.6169 H   0  0  0  0  0  0  0  0  0  0  0  0
    3.4185   -0.0305   -0.1008 H   0  0  0  0  0  0  0  0  0  0  0  0
    3.0640    1.1018    1.1864 H   0  0  0  0  0  0  0  0  0  0  0  0
    1.8714   -1.4236   -1.6228 H   0  0  0  0  0  0  0  0  0  0  0  0
    1.8374   -2.7729   -0.4774 H   0  0  0  0  0  0  0  0  0  0  0  0
    0.4528   -2.4776   -1.5352 H   0  0  0  0  0  0  0  0  0  0  0  0
   -3.4080   -1.2527    0.0520 H   0  0  0  0  0  0  0  0  0  0  0  0
   -2.2281   -1.6463   -1.1955 H   0  0  0  0  0  0  0  0  0  0  0  0
   -1.9511   -2.1012    0.4964 H   0  0  0  0  0  0  0  0  0  0  0  0
   -2.6236    0.3110    1.9808 H   0  0  0  0  0  0  0  0  0  0  0  0
   -1.0252   -0.3668    2.1327 H   0  0  0  0  0  0  0  0  0  0  0  0
   -1.2518    1.3642    1.8069 H   0  0  0  0  0  0  0  0  0  0  0  0
   -3.5512    1.0826   -0.3424 H   0  0  0  0  0  0  0  0  0  0  0  0
   -2.4687    1.0214   -1.7355 H   0  0  0  0  0  0  0  0  0  0  0  0
   -2.1663    2.1547   -0.4023 H   0  0  0  0  0  0  0  0  0  0  0  0
  1  2  1  0  0  0  0
  1  3  1  0  0  0  0
  1  4  1  0  0  0  0
  1 12  1  0  0  0  0
  2  5  1  0  0  0  0
  2  8  1  0  0  0  0
  2 13  1  0  0  0  0
  3  9  1  0  0  0  0
  3 10  1  0  0  0  0
  3 11  1  0  0  0  0
  4  6  1  0  0  0  0
  4 14  1  0  0  0  0
  4 15  1  0  0  0  0
  5  7  1  0  0  0  0
  5 16  1  0  0  0  0
  5 17  1  0  0  0  0
  6  7  1  0  0  0  0
  6 18  1  0  0  0  0
  6 19  1  0  0  0  0
  7 20  1  0  0  0  0
  7 21  1  0  0  0  0
  8 22  1  0  0  0  0
  8 23  1  0  0  0  0
  8 24  1  0  0  0  0
  9 25  1  0  0  0  0
  9 26  1  0  0  0  0
  9 27  1  0  0  0  0
 10 28  1  0  0  0  0
 10 29  1  0  0  0  0
 10 30  1  0  0  0  0
 11 31  1  0  0  0  0
 11 32  1  0  0  0  0
 11 33  1  0  0  0  0
M  END
> <PUBCHEM_COMPOUND_CID>
18711397

> <PUBCHEM_CONFORMER_RMSD>
0.6

> <PUBCHEM_CONFORMER_DIVERSEORDER>
1
5
6
3
7
2
4

> <PUBCHEM_MMFF94_PARTIAL_CHARGES>
0

> <PUBCHEM_EFFECTIVE_ROTOR_COUNT>
2.2

> <PUBCHEM_PHARMACOPHORE_FEATURES>
2
4 3 9 10 11 hydrophobe
6 1 2 4 5 6 7 rings

> <PUBCHEM_HEAVY_ATOM_COUNT>
11

> <PUBCHEM_ATOM_DEF_STEREO_COUNT>
0

> <PUBCHEM_ATOM_UDEF_STEREO_COUNT>
2

> <PUBCHEM_BOND_DEF_STEREO_COUNT>
0

> <PUBCHEM_BOND_UDEF_STEREO_COUNT>
0

> <PUBCHEM_ISOTOPIC_ATOM_COUNT>
0

> <PUBCHEM_COMPONENT_COUNT>
1

> <PUBCHEM_CACTVS_TAUTO_COUNT>
1

> <PUBCHEM_CONFORMER_ID>
011D836500000001

> <PUBCHEM_MMFF94_ENERGY>
36.8122

> <PUBCHEM_FEATURE_SELFOVERLAP>
10.148

> <PUBCHEM_SHAPE_FINGERPRINT>
12423570 1 16101965399467610964
12524768 44 18264769848568266175
15775835 57 18264494064355008156
16945 1 18341616949526925312
17990270 104 18334854996034373670
20082192 1 18410860927848487019
21028194 46 18341048631117494264
21040471 1 18267582588507007964
21501502 16 18113892775824966893
21922407 69 18129961047269172217
23235687 12 18334569127432596291
23552423 10 18411703145139314919
241688 4 17329707617956288432
2748010 2 18337955588781153567
29004967 10 17967253083123691032
369184 2 17530958081840295409
5084963 1 18339924938660330952
528886 8 18337659867265955560
8030462 33 17346315960242593993

> <PUBCHEM_SHAPE_MULTIPOLES>
226.37
3.55
1.78
1.15
0.56
0.38
0.33
-0.43
0.13
-0.33
-0.55
0.08
0.02
0.04

> <PUBCHEM_SHAPE_SELFOVERLAP>
440.325

> <PUBCHEM_SHAPE_VOLUME>
138.8

> <PUBCHEM_COORDINATE_TYPE>
2
5
10

$$$$
