140116
  -OEChem-11012401223D

 34 33  0     0  0  0  0  0  0999 V2000
    2.1055    1.3679    0.2438 O   0  0  0  0  0  0  0  0  0  0  0  0
   -2.1194   -1.8703   -0.4134 C   0  0  0  0  0  0  0  0  0  0  0  0
   -2.9280   -0.5935   -0.1518 C   0  0  0  0  0  0  0  0  0  0  0  0
   -0.7303   -1.8425    0.1869 C   0  0  0  0  0  0  0  0  0  0  0  0
   -2.2557    0.6410   -0.6875 C   0  0  0  0  0  0  0  0  0  0  0  0
   -1.8678    1.7361   -0.0068 C   0  0  0  0  0  0  0  0  0  0  0  0
   -0.5983   -2.3970    1.5777 C   0  0  0  0  0  0  0  0  0  0  0  0
   -1.2290    2.8937   -0.7271 C   0  0  0  0  0  0  0  0  0  0  0  0
   -2.0031    1.9306    1.4766 C   0  0  0  0  0  0  0  0  0  0  0  0
    0.2935   -1.3638   -0.4675 C   0  0  0  0  0  0  0  0  0  0  0  0
    2.7062   -0.8136   -0.6254 C   0  0  0  0  0  0  0  0  0  0  0  0
    1.3021   -0.8825   -1.1350 C   0  0  0  0  0  0  0  0  0  0  0  0
    2.9671    0.5032    0.0888 C   0  0  0  0  0  0  0  0  0  0  0  0
    4.3570    0.6906    0.6406 C   0  0  0  0  0  0  0  0  0  0  0  0
   -2.6736   -2.7316   -0.0198 H   0  0  0  0  0  0  0  0  0  0  0  0
   -2.0434   -2.0363   -1.4968 H   0  0  0  0  0  0  0  0  0  0  0  0
   -3.9005   -0.6902   -0.6504 H   0  0  0  0  0  0  0  0  0  0  0  0
   -3.1467   -0.5197    0.9167 H   0  0  0  0  0  0  0  0  0  0  0  0
   -2.1005    0.6298   -1.7660 H   0  0  0  0  0  0  0  0  0  0  0  0
    0.4270   -2.3086    1.9531 H   0  0  0  0  0  0  0  0  0  0  0  0
   -1.2550   -1.8571    2.2674 H   0  0  0  0  0  0  0  0  0  0  0  0
   -0.8717   -3.4568    1.5926 H   0  0  0  0  0  0  0  0  0  0  0  0
   -1.8287    3.8000   -0.5931 H   0  0  0  0  0  0  0  0  0  0  0  0
   -1.1331    2.7148   -1.8032 H   0  0  0  0  0  0  0  0  0  0  0  0
   -0.2250    3.0798   -0.3321 H   0  0  0  0  0  0  0  0  0  0  0  0
   -2.4027    1.0623    2.0028 H   0  0  0  0  0  0  0  0  0  0  0  0
   -1.0229    2.1459    1.9160 H   0  0  0  0  0  0  0  0  0  0  0  0
   -2.6656    2.7773    1.6847 H   0  0  0  0  0  0  0  0  0  0  0  0
    3.4019   -0.8956   -1.4668 H   0  0  0  0  0  0  0  0  0  0  0  0
    2.9057   -1.6338    0.0730 H   0  0  0  0  0  0  0  0  0  0  0  0
    1.1114   -0.4580   -2.1168 H   0  0  0  0  0  0  0  0  0  0  0  0
    4.4421    1.6797    1.0992 H   0  0  0  0  0  0  0  0  0  0  0  0
    4.5552   -0.0708    1.3989 H   0  0  0  0  0  0  0  0  0  0  0  0
    5.0861    0.6154   -0.1699 H   0  0  0  0  0  0  0  0  0  0  0  0
  1 13  2  0  0  0  0
  2  3  1  0  0  0  0
  2  4  1  0  0  0  0
  2 15  1  0  0  0  0
  2 16  1  0  0  0  0
  3  5  1  0  0  0  0
  3 17  1  0  0  0  0
  3 18  1  0  0  0  0
  4  7  1  0  0  0  0
  4 10  2  0  0  0  0
  5  6  2  0  0  0  0
  5 19  1  0  0  0  0
  6  8  1  0  0  0  0
  6  9  1  0  0  0  0
  7 20  1  0  0  0  0
  7 21  1  0  0  0  0
  7 22  1  0  0  0  0
  8 23  1  0  0  0  0
  8 24  1  0  0  0  0
  8 25  1  0  0  0  0
  9 26  1  0  0  0  0
  9 27  1  0  0  0  0
  9 28  1  0  0  0  0
 10 12  2  0  0  0  0
 11 12  1  0  0  0  0
 11 13  1  0  0  0  0
 11 29  1  0  0  0  0
 11 30  1  0  0  0  0
 12 31  1  0  0  0  0
 13 14  1  0  0  0  0
 14 32  1  0  0  0  0
 14 33  1  0  0  0  0
 14 34  1  0  0  0  0
M  END
> <PUBCHEM_COMPOUND_CID>
140116

> <PUBCHEM_CONFORMER_RMSD>
0.8

> <PUBCHEM_CONFORMER_DIVERSEORDER>
1
92
162
80
137
194
36
114
134
176
77
132
16
195
37
72
104
4
101
109
158
52
7
30
146
95
70
148
115
83
14
142
50
127
75
128
56
93
68
170
111
138
46
118
97
149
35
144
185
53
184
116
177
173
178
18
117
91
121
136
131
2
79
65
81
74
124
129
87
122
49
64
107
112
9
159
94
31
44
161
106
102
105
135
58
163
119
55
51
186
190
78
154
28
15
175
125
188
61
21
96
66
172
19
42
41
193
43
179
47
171
191
141
54
12
156
76
17
120
98
140
139
29
192
174
123
99
86
10
59
110
11
187
38
145
34
157
85
27
8
196
153
89
165
20
26
182
100
45
33
6
5
126
3
133
39
155
23
168
103
108
22
143
151
24
147
25
48
62
69
160
88
166
113
152
63
164
32
67
40
181
150
71
57
90
169
183
189
130
84
167
180
13
82
60
73

> <PUBCHEM_MMFF94_PARTIAL_CHARGES>
16
1 -0.57
10 -0.13
11 0.2
12 -0.22
13 0.45
14 0.06
19 0.15
2 0.14
3 0.14
31 0.15
4 -0.21
5 -0.29
6 -0.28
7 0.14
8 0.14
9 0.14

> <PUBCHEM_EFFECTIVE_ROTOR_COUNT>
5

> <PUBCHEM_PHARMACOPHORE_FEATURES>
4
1 1 acceptor
1 7 hydrophobe
3 6 8 9 hydrophobe
4 2 3 4 5 hydrophobe

> <PUBCHEM_HEAVY_ATOM_COUNT>
14

> <PUBCHEM_ATOM_DEF_STEREO_COUNT>
0

> <PUBCHEM_ATOM_UDEF_STEREO_COUNT>
0

> <PUBCHEM_BOND_DEF_STEREO_COUNT>
0

> <PUBCHEM_BOND_UDEF_STEREO_COUNT>
0

> <PUBCHEM_ISOTOPIC_ATOM_COUNT>
0

> <PUBCHEM_COMPONENT_COUNT>
1

> <PUBCHEM_CACTVS_TAUTO_COUNT>
5

> <PUBCHEM_CONFORMER_ID>
0002235400000001

> <PUBCHEM_MMFF94_ENERGY>
10.3635

> <PUBCHEM_FEATURE_SELFOVERLAP>
20.303

> <PUBCHEM_SHAPE_FINGERPRINT>
14123250 116 17702670929979455977
14251711 518 17763465011096324653
14251745 187 18272360980026094648
15775835 57 18120384163468016909
20510252 161 18410292544640344307
21524375 3 18121511150186481135
2306618 200 17846223314347023658
23402539 116 18269544095681665903
23419403 2 17253403100475284999
23557571 272 18200323245711507559
25610 171 18190471643043506362
305870 269 17971188127839009978
3524813 1 17916295207612361288
353137 74 18411410683846874247
526903 126 18341609278974031393
8050 44 18270676455044890844
81228 2 18264788682031806403

> <PUBCHEM_SHAPE_MULTIPOLES>
282.24
5.58
3.08
1.21
5.91
0.66
0.35
1.86
0.47
-2.01
0.45
-0.22
-0.12
0.28

> <PUBCHEM_SHAPE_SELFOVERLAP>
534.392

> <PUBCHEM_SHAPE_VOLUME>
174.6

> <PUBCHEM_COORDINATE_TYPE>
2
5
10

$$$$
