10997059
  -OEChem-11012401093D

 21 20  0     0  0  0  0  0  0999 V2000
    1.5200   -0.0510    0.4549 O   0  0  0  0  0  0  0  0  0  0  0  0
    0.1658    0.6804   -1.2629 O   0  0  0  0  0  0  0  0  0  0  0  0
   -0.7306    0.3280    0.9780 C   0  0  0  0  0  0  0  0  0  0  0  0
    2.6356   -0.0894   -0.4408 C   0  0  0  0  0  0  0  0  0  0  0  0
    0.3365    0.3561   -0.0956 C   0  0  0  0  0  0  0  0  0  0  0  0
   -2.0400    0.8075    0.4314 C   0  0  0  0  0  0  0  0  0  0  0  0
    3.8602   -0.5564    0.3165 C   0  0  0  0  0  0  0  0  0  0  0  0
   -2.9578    0.0008   -0.1210 C   0  0  0  0  0  0  0  0  0  0  0  0
   -2.7897   -1.4760   -0.2604 C   0  0  0  0  0  0  0  0  0  0  0  0
   -0.7987   -0.6775    1.4036 H   0  0  0  0  0  0  0  0  0  0  0  0
   -0.4262    1.0058    1.7839 H   0  0  0  0  0  0  0  0  0  0  0  0
    2.4210   -0.7829   -1.2615 H   0  0  0  0  0  0  0  0  0  0  0  0
    2.8118    0.9126   -0.8477 H   0  0  0  0  0  0  0  0  0  0  0  0
   -2.2468    1.8730    0.4887 H   0  0  0  0  0  0  0  0  0  0  0  0
    4.7339   -0.5975   -0.3398 H   0  0  0  0  0  0  0  0  0  0  0  0
    4.0769    0.1175    1.1520 H   0  0  0  0  0  0  0  0  0  0  0  0
    3.6926   -1.5502    0.7450 H   0  0  0  0  0  0  0  0  0  0  0  0
   -3.8865    0.4333   -0.4827 H   0  0  0  0  0  0  0  0  0  0  0  0
   -3.1141   -1.7794   -1.2618 H   0  0  0  0  0  0  0  0  0  0  0  0
   -3.4221   -1.9939    0.4671 H   0  0  0  0  0  0  0  0  0  0  0  0
   -1.7624   -1.8283   -0.1456 H   0  0  0  0  0  0  0  0  0  0  0  0
  1  4  1  0  0  0  0
  1  5  1  0  0  0  0
  2  5  2  0  0  0  0
  3  5  1  0  0  0  0
  3  6  1  0  0  0  0
  3 10  1  0  0  0  0
  3 11  1  0  0  0  0
  4  7  1  0  0  0  0
  4 12  1  0  0  0  0
  4 13  1  0  0  0  0
  6  8  2  0  0  0  0
  6 14  1  0  0  0  0
  7 15  1  0  0  0  0
  7 16  1  0  0  0  0
  7 17  1  0  0  0  0
  8  9  1  0  0  0  0
  8 18  1  0  0  0  0
  9 19  1  0  0  0  0
  9 20  1  0  0  0  0
  9 21  1  0  0  0  0
M  END
> <PUBCHEM_COMPOUND_CID>
10997059

> <PUBCHEM_CONFORMER_RMSD>
0.6

> <PUBCHEM_CONFORMER_DIVERSEORDER>
1
64
48
19
44
53
51
25
57
55
23
43
39
24
61
21
14
8
7
56
11
58
17
12
42
3
59
54
5
9
13
4
40
65
32
2
16
49
47
52
37
63
36
29
60
28
45
26
35
18
38
20
10
50
31
41
33
6
22
30
62
34
46
27
15

> <PUBCHEM_MMFF94_PARTIAL_CHARGES>
10
1 -0.43
14 0.15
18 0.15
2 -0.57
3 0.2
4 0.28
5 0.66
6 -0.29
8 -0.29
9 0.14

> <PUBCHEM_EFFECTIVE_ROTOR_COUNT>
4

> <PUBCHEM_PHARMACOPHORE_FEATURES>
2
1 2 acceptor
1 9 hydrophobe

> <PUBCHEM_HEAVY_ATOM_COUNT>
9

> <PUBCHEM_ATOM_DEF_STEREO_COUNT>
0

> <PUBCHEM_ATOM_UDEF_STEREO_COUNT>
0

> <PUBCHEM_BOND_DEF_STEREO_COUNT>
1

> <PUBCHEM_BOND_UDEF_STEREO_COUNT>
0

> <PUBCHEM_ISOTOPIC_ATOM_COUNT>
0

> <PUBCHEM_COMPONENT_COUNT>
1

> <PUBCHEM_CACTVS_TAUTO_COUNT>
1

> <PUBCHEM_CONFORMER_ID>
00A7CD4300000001

> <PUBCHEM_MMFF94_ENERGY>
4.0022

> <PUBCHEM_FEATURE_SELFOVERLAP>
10.148

> <PUBCHEM_SHAPE_FINGERPRINT>
10857977 72 17060616702686350419
11062470 55 18040718051929056016
12932764 1 18260265226622849160
14128692 85 18336266863638211445
14325111 11 14979958030180800800
14390081 3 11241967100968251127
177051 138 18060139846986935934
20211469 26 18343295963880465494
20651381 32 15068616085044835080
21061003 4 15913332407217234707
21293036 1 15791733026807960707
22485316 2 18335696118503926690
29004967 10 16056609767638414209
3248919 1 17846787282086101620
75552 356 18131071536875703863

> <PUBCHEM_SHAPE_MULTIPOLES>
173.48
5.91
1.04
0.92
3.46
0.29
0.14
1.81
-0.54
-0.84
-0.07
0.12
-0.09
-0.1

> <PUBCHEM_SHAPE_SELFOVERLAP>
318.674

> <PUBCHEM_SHAPE_VOLUME>
110.1

> <PUBCHEM_COORDINATE_TYPE>
2
5
10

$$$$
