15046926
  -OEChem-11012401233D

 66 68  0     0  0  0  0  0  0999 V2000
    1.2694    0.1470   -0.0302 Si  0  0  0  0  0  0  0  0  0  0  0  0
   -3.6694    0.8362   -0.5480 O   0  0  0  0  0  0  0  0  0  0  0  0
   -3.6597    1.5297    0.7317 O   0  0  0  0  0  0  0  0  0  0  0  0
   -4.7631   -0.0801   -0.4638 C   0  0  0  0  0  0  0  0  0  0  0  0
   -4.5208   -1.0165    0.7373 C   0  0  0  0  0  0  0  0  0  0  0  0
   -3.2253   -1.8329    0.6552 C   0  0  0  0  0  0  0  0  0  0  0  0
   -6.0411    0.7330   -0.2321 C   0  0  0  0  0  0  0  0  0  0  0  0
   -4.8613   -0.8408   -1.7880 C   0  0  0  0  0  0  0  0  0  0  0  0
    1.9628   -0.6526    1.5289 C   0  0  0  0  0  0  0  0  0  0  0  0
    2.6986    1.2199   -0.6271 C   0  0  0  0  0  0  0  0  0  0  0  0
    0.9954   -1.2108   -1.3024 C   0  0  0  0  0  0  0  0  0  0  0  0
   -2.5738    2.4417    0.6526 C   0  0  0  0  0  0  0  0  0  0  0  0
   -0.3041    1.0867    0.2497 C   0  0  0  0  0  0  0  0  0  0  0  0
   -3.0180   -2.6684    1.9101 C   0  0  0  0  0  0  0  0  0  0  0  0
   -1.3229    1.6957    0.4308 C   0  0  0  0  0  0  0  0  0  0  0  0
    1.0920   -1.0556    2.5271 C   0  0  0  0  0  0  0  0  0  0  0  0
    3.1352    2.2678    0.1658 C   0  0  0  0  0  0  0  0  0  0  0  0
    0.0449   -1.0304   -2.2955 C   0  0  0  0  0  0  0  0  0  0  0  0
    3.3315   -0.8235    1.6507 C   0  0  0  0  0  0  0  0  0  0  0  0
    3.2885    0.9432   -1.8490 C   0  0  0  0  0  0  0  0  0  0  0  0
    1.7470   -2.3735   -1.2295 C   0  0  0  0  0  0  0  0  0  0  0  0
   -2.8353    3.4097   -0.5009 C   0  0  0  0  0  0  0  0  0  0  0  0
   -2.5129    3.1948    1.9803 C   0  0  0  0  0  0  0  0  0  0  0  0
    1.6050   -1.6469    3.6816 C   0  0  0  0  0  0  0  0  0  0  0  0
    4.1929    3.0626   -0.2762 C   0  0  0  0  0  0  0  0  0  0  0  0
   -0.1589   -2.0375   -3.2389 C   0  0  0  0  0  0  0  0  0  0  0  0
    3.8444   -1.4150    2.8052 C   0  0  0  0  0  0  0  0  0  0  0  0
    4.3462    1.7381   -2.2910 C   0  0  0  0  0  0  0  0  0  0  0  0
    1.5431   -3.3804   -2.1729 C   0  0  0  0  0  0  0  0  0  0  0  0
    2.9811   -1.8266    3.8206 C   0  0  0  0  0  0  0  0  0  0  0  0
    4.7983    2.7978   -1.5045 C   0  0  0  0  0  0  0  0  0  0  0  0
    0.5901   -3.2124   -3.1777 C   0  0  0  0  0  0  0  0  0  0  0  0
   -5.3658   -1.7139    0.8176 H   0  0  0  0  0  0  0  0  0  0  0  0
   -4.5129   -0.4526    1.6786 H   0  0  0  0  0  0  0  0  0  0  0  0
   -2.3628   -1.1731    0.5258 H   0  0  0  0  0  0  0  0  0  0  0  0
   -3.2538   -2.5055   -0.2085 H   0  0  0  0  0  0  0  0  0  0  0  0
   -6.1439    1.5191   -0.9893 H   0  0  0  0  0  0  0  0  0  0  0  0
   -6.0522    1.2343    0.7420 H   0  0  0  0  0  0  0  0  0  0  0  0
   -6.9289    0.0927   -0.2784 H   0  0  0  0  0  0  0  0  0  0  0  0
   -3.9067   -1.3074   -2.0531 H   0  0  0  0  0  0  0  0  0  0  0  0
   -5.0950   -0.1535   -2.6095 H   0  0  0  0  0  0  0  0  0  0  0  0
   -5.6361   -1.6132   -1.7542 H   0  0  0  0  0  0  0  0  0  0  0  0
   -3.8475   -3.3670    2.0585 H   0  0  0  0  0  0  0  0  0  0  0  0
   -2.9401   -2.0314    2.7969 H   0  0  0  0  0  0  0  0  0  0  0  0
   -2.0938   -3.2494    1.8288 H   0  0  0  0  0  0  0  0  0  0  0  0
    0.0155   -0.9322    2.4428 H   0  0  0  0  0  0  0  0  0  0  0  0
    2.6783    2.4962    1.1253 H   0  0  0  0  0  0  0  0  0  0  0  0
   -0.5504   -0.1246   -2.3727 H   0  0  0  0  0  0  0  0  0  0  0  0
    4.0387   -0.5410    0.8773 H   0  0  0  0  0  0  0  0  0  0  0  0
    2.9694    0.1331   -2.4960 H   0  0  0  0  0  0  0  0  0  0  0  0
    2.5038   -2.5414   -0.4705 H   0  0  0  0  0  0  0  0  0  0  0  0
   -3.8244    3.8725   -0.4054 H   0  0  0  0  0  0  0  0  0  0  0  0
   -2.0834    4.2070   -0.5292 H   0  0  0  0  0  0  0  0  0  0  0  0
   -2.8117    2.9148   -1.4789 H   0  0  0  0  0  0  0  0  0  0  0  0
   -1.6927    3.9209    2.0006 H   0  0  0  0  0  0  0  0  0  0  0  0
   -3.4525    3.7259    2.1715 H   0  0  0  0  0  0  0  0  0  0  0  0
   -2.3724    2.5014    2.8185 H   0  0  0  0  0  0  0  0  0  0  0  0
    0.9329   -1.9689    4.4716 H   0  0  0  0  0  0  0  0  0  0  0  0
    4.5447    3.8881    0.3356 H   0  0  0  0  0  0  0  0  0  0  0  0
   -0.9004   -1.9065   -4.0217 H   0  0  0  0  0  0  0  0  0  0  0  0
    4.9155   -1.5603    2.9116 H   0  0  0  0  0  0  0  0  0  0  0  0
    4.8176    1.5330   -3.2478 H   0  0  0  0  0  0  0  0  0  0  0  0
    2.1275   -4.2948   -2.1269 H   0  0  0  0  0  0  0  0  0  0  0  0
    3.3804   -2.2886    4.7188 H   0  0  0  0  0  0  0  0  0  0  0  0
    5.6216    3.4168   -1.8488 H   0  0  0  0  0  0  0  0  0  0  0  0
    0.4318   -3.9962   -3.9126 H   0  0  0  0  0  0  0  0  0  0  0  0
  1  9  1  0  0  0  0
  1 10  1  0  0  0  0
  1 11  1  0  0  0  0
  1 13  1  0  0  0  0
  2  3  1  0  0  0  0
  2  4  1  0  0  0  0
  3 12  1  0  0  0  0
  4  5  1  0  0  0  0
  4  7  1  0  0  0  0
  4  8  1  0  0  0  0
  5  6  1  0  0  0  0
  5 33  1  0  0  0  0
  5 34  1  0  0  0  0
  6 14  1  0  0  0  0
  6 35  1  0  0  0  0
  6 36  1  0  0  0  0
  7 37  1  0  0  0  0
  7 38  1  0  0  0  0
  7 39  1  0  0  0  0
  8 40  1  0  0  0  0
  8 41  1  0  0  0  0
  8 42  1  0  0  0  0
  9 16  2  0  0  0  0
  9 19  1  0  0  0  0
 10 17  2  0  0  0  0
 10 20  1  0  0  0  0
 11 18  2  0  0  0  0
 11 21  1  0  0  0  0
 12 15  1  0  0  0  0
 12 22  1  0  0  0  0
 12 23  1  0  0  0  0
 13 15  3  0  0  0  0
 14 43  1  0  0  0  0
 14 44  1  0  0  0  0
 14 45  1  0  0  0  0
 16 24  1  0  0  0  0
 16 46  1  0  0  0  0
 17 25  1  0  0  0  0
 17 47  1  0  0  0  0
 18 26  1  0  0  0  0
 18 48  1  0  0  0  0
 19 27  2  0  0  0  0
 19 49  1  0  0  0  0
 20 28  2  0  0  0  0
 20 50  1  0  0  0  0
 21 29  2  0  0  0  0
 21 51  1  0  0  0  0
 22 52  1  0  0  0  0
 22 53  1  0  0  0  0
 22 54  1  0  0  0  0
 23 55  1  0  0  0  0
 23 56  1  0  0  0  0
 23 57  1  0  0  0  0
 24 30  2  0  0  0  0
 24 58  1  0  0  0  0
 25 31  2  0  0  0  0
 25 59  1  0  0  0  0
 26 32  2  0  0  0  0
 26 60  1  0  0  0  0
 27 30  1  0  0  0  0
 27 61  1  0  0  0  0
 28 31  1  0  0  0  0
 28 62  1  0  0  0  0
 29 32  1  0  0  0  0
 29 63  1  0  0  0  0
 30 64  1  0  0  0  0
 31 65  1  0  0  0  0
 32 66  1  0  0  0  0
M  END
> <PUBCHEM_COMPOUND_CID>
15046926

> <PUBCHEM_CONFORMER_RMSD>
1

> <PUBCHEM_CONFORMER_DIVERSEORDER>
1
7
11
6
3
8
12
2
10
5
13
9
4

> <PUBCHEM_MMFF94_PARTIAL_CHARGES>
40
1 0.96
10 -0.22
11 -0.22
12 0.48
13 -0.29
15 -0.2
16 -0.15
17 -0.15
18 -0.15
19 -0.15
2 -0.28
20 -0.15
21 -0.15
24 -0.15
25 -0.15
26 -0.15
27 -0.15
28 -0.15
29 -0.15
3 -0.28
30 -0.15
31 -0.15
32 -0.15
4 0.28
46 0.15
47 0.15
48 0.15
49 0.15
50 0.15
51 0.15
58 0.15
59 0.15
60 0.15
61 0.15
62 0.15
63 0.15
64 0.15
65 0.15
66 0.15
9 -0.22

> <PUBCHEM_EFFECTIVE_ROTOR_COUNT>
8

> <PUBCHEM_PHARMACOPHORE_FEATURES>
6
1 14 hydrophobe
3 12 22 23 hydrophobe
3 4 7 8 hydrophobe
6 10 17 20 25 28 31 rings
6 11 18 21 26 29 32 rings
6 9 16 19 24 27 30 rings

> <PUBCHEM_HEAVY_ATOM_COUNT>
32

> <PUBCHEM_ATOM_DEF_STEREO_COUNT>
0

> <PUBCHEM_ATOM_UDEF_STEREO_COUNT>
0

> <PUBCHEM_BOND_DEF_STEREO_COUNT>
0

> <PUBCHEM_BOND_UDEF_STEREO_COUNT>
0

> <PUBCHEM_ISOTOPIC_ATOM_COUNT>
0

> <PUBCHEM_COMPONENT_COUNT>
1

> <PUBCHEM_CACTVS_TAUTO_COUNT>
1

> <PUBCHEM_CONFORMER_ID>
00E5990E00000001

> <PUBCHEM_MMFF94_ENERGY>
74.1584

> <PUBCHEM_FEATURE_SELFOVERLAP>
30.448

> <PUBCHEM_SHAPE_FINGERPRINT>
10032420 55 17537988556904906371
11135609 12 18126854798272159225
11443803 9 18340767143826275948
11488393 25 17985858993388482894
11578080 2 15740881662565462660
12788726 201 18412829058611860193
13636023 51 15068616115669613352
13726171 33 18341348767944235353
14955137 171 18339070490115215824
17809404 112 16588034515226248433
17980427 23 18121754180842444624
18681886 176 18273493468914201792
19319366 153 18042954561996881784
20600515 1 17543614349818961512
23559900 14 17842839915357679845
25222932 49 18042691787735416395
3052486 1 17700673310693756990
3493558 16 15150833484134709421
44802255 64 17694534785322144004
469060 322 17414393387155938205
550186 7 17974029519515269534
563151 248 18339346575034889088
5895379 119 18196094347965454664

> <PUBCHEM_SHAPE_MULTIPOLES>
665.02
10.04
4.31
3.92
9.45
1.04
-1.29
4.99
0.32
-0.99
0.91
-3.69
-4.08
-2.58

> <PUBCHEM_SHAPE_SELFOVERLAP>
1381.498

> <PUBCHEM_SHAPE_VOLUME>
380.7

> <PUBCHEM_COORDINATE_TYPE>
2
5
10

$$$$
