141105
  -OEChem-11012400323D

 28 32  0     0  0  0  0  0  0999 V2000
    1.0220   -0.2575    0.0822 C   0  0  0  0  0  0  0  0  0  0  0  0
    0.2576    1.0220   -0.0822 C   0  0  0  0  0  0  0  0  0  0  0  0
   -0.2575   -1.0219   -0.0819 C   0  0  0  0  0  0  0  0  0  0  0  0
   -1.0219    0.2575    0.0825 C   0  0  0  0  0  0  0  0  0  0  0  0
    2.3890   -0.6022   -0.4086 C   0  0  0  0  0  0  0  0  0  0  0  0
    2.1143   -0.5328    1.0693 C   0  0  0  0  0  0  0  0  0  0  0  0
    0.6022    2.3890    0.4083 C   0  0  0  0  0  0  0  0  0  0  0  0
    0.5325    2.1143   -1.0694 C   0  0  0  0  0  0  0  0  0  0  0  0
   -0.6020   -2.3892    0.4083 C   0  0  0  0  0  0  0  0  0  0  0  0
   -0.5330   -2.1139   -1.0694 C   0  0  0  0  0  0  0  0  0  0  0  0
   -2.3890    0.6014   -0.4085 C   0  0  0  0  0  0  0  0  0  0  0  0
   -2.1143    0.5332    1.0693 C   0  0  0  0  0  0  0  0  0  0  0  0
    2.9973    0.1829   -0.8400 H   0  0  0  0  0  0  0  0  0  0  0  0
    2.5524   -1.5818   -0.8400 H   0  0  0  0  0  0  0  0  0  0  0  0
    2.0926   -1.4657    1.6186 H   0  0  0  0  0  0  0  0  0  0  0  0
    2.5374    0.2988    1.6186 H   0  0  0  0  0  0  0  0  0  0  0  0
    1.5819    2.5525    0.8394 H   0  0  0  0  0  0  0  0  0  0  0  0
   -0.1829    2.9972    0.8400 H   0  0  0  0  0  0  0  0  0  0  0  0
   -0.2993    2.5373   -1.6184 H   0  0  0  0  0  0  0  0  0  0  0  0
    1.4652    2.0927   -1.6190 H   0  0  0  0  0  0  0  0  0  0  0  0
   -1.5814   -2.5527    0.8399 H   0  0  0  0  0  0  0  0  0  0  0  0
    0.1833   -2.9976    0.8393 H   0  0  0  0  0  0  0  0  0  0  0  0
    0.2985   -2.5368   -1.6191 H   0  0  0  0  0  0  0  0  0  0  0  0
   -1.4660   -2.0921   -1.6186 H   0  0  0  0  0  0  0  0  0  0  0  0
   -2.9972   -0.1841   -0.8394 H   0  0  0  0  0  0  0  0  0  0  0  0
   -2.5527    1.5808   -0.8406 H   0  0  0  0  0  0  0  0  0  0  0  0
   -2.0930    1.4664    1.6180 H   0  0  0  0  0  0  0  0  0  0  0  0
   -2.5372   -0.2982    1.6192 H   0  0  0  0  0  0  0  0  0  0  0  0
  1  2  1  0  0  0  0
  1  3  1  0  0  0  0
  1  5  1  0  0  0  0
  1  6  1  0  0  0  0
  2  4  1  0  0  0  0
  2  7  1  0  0  0  0
  2  8  1  0  0  0  0
  3  4  1  0  0  0  0
  3  9  1  0  0  0  0
  3 10  1  0  0  0  0
  4 11  1  0  0  0  0
  4 12  1  0  0  0  0
  5  6  1  0  0  0  0
  5 13  1  0  0  0  0
  5 14  1  0  0  0  0
  6 15  1  0  0  0  0
  6 16  1  0  0  0  0
  7  8  1  0  0  0  0
  7 17  1  0  0  0  0
  7 18  1  0  0  0  0
  8 19  1  0  0  0  0
  8 20  1  0  0  0  0
  9 10  1  0  0  0  0
  9 21  1  0  0  0  0
  9 22  1  0  0  0  0
 10 23  1  0  0  0  0
 10 24  1  0  0  0  0
 11 12  1  0  0  0  0
 11 25  1  0  0  0  0
 11 26  1  0  0  0  0
 12 27  1  0  0  0  0
 12 28  1  0  0  0  0
M  END
> <PUBCHEM_COMPOUND_CID>
141105

> <PUBCHEM_CONFORMER_RMSD>
0.4

> <PUBCHEM_CONFORMER_DIVERSEORDER>
1

> <PUBCHEM_MMFF94_PARTIAL_CHARGES>
24
10 -0.2
11 -0.2
12 -0.2
13 0.1
14 0.1
15 0.1
16 0.1
17 0.1
18 0.1
19 0.1
20 0.1
21 0.1
22 0.1
23 0.1
24 0.1
25 0.1
26 0.1
27 0.1
28 0.1
5 -0.2
6 -0.2
7 -0.2
8 -0.2
9 -0.2

> <PUBCHEM_EFFECTIVE_ROTOR_COUNT>
1.6

> <PUBCHEM_PHARMACOPHORE_FEATURES>
1
4 1 2 3 4 rings

> <PUBCHEM_HEAVY_ATOM_COUNT>
12

> <PUBCHEM_ATOM_DEF_STEREO_COUNT>
0

> <PUBCHEM_ATOM_UDEF_STEREO_COUNT>
0

> <PUBCHEM_BOND_DEF_STEREO_COUNT>
0

> <PUBCHEM_BOND_UDEF_STEREO_COUNT>
0

> <PUBCHEM_ISOTOPIC_ATOM_COUNT>
0

> <PUBCHEM_COMPONENT_COUNT>
1

> <PUBCHEM_CACTVS_TAUTO_COUNT>
1

> <PUBCHEM_CONFORMER_ID>
0002273100000001

> <PUBCHEM_MMFF94_ENERGY>
32.5405

> <PUBCHEM_FEATURE_SELFOVERLAP>
5.074

> <PUBCHEM_SHAPE_FINGERPRINT>
10219947 1 18338522919759296865
12423570 1 11247389858120390260
12524768 44 18413387631512960734
13024252 1 16661199227030873530
13172582 1 18410573955086680274
13380535 220 18337107994027805742
13380536 237 17908394185595323589
14614273 12 17543621384980563045
14993402 34 18410855451543502229
15219459 52 18410014368150700031
16945 1 18410575041713406192
193761 8 18050567635967410183
20511035 2 18262529207285526161
23419403 2 16041317862639805019
23552423 10 17757829305197069406
241688 4 18340750577271790874
2748010 2 17978509732691837111
5084963 1 18272652355013003739
68250623 7 17832176035210079014

> <PUBCHEM_SHAPE_MULTIPOLES>
246.95
2.61
2.61
1.06
0
0
0
0
-0.18
0
0.18
0
0
-0.41

> <PUBCHEM_SHAPE_SELFOVERLAP>
542.033

> <PUBCHEM_SHAPE_VOLUME>
142.7

> <PUBCHEM_COORDINATE_TYPE>
2
5
10

$$$$
