98155
  -OEChem-11012400503D

 23 23  0     1  0  0  0  0  0999 V2000
   -3.4367    0.4077    0.1908 O   0  0  0  0  0  0  0  0  0  0  0  0
   -0.0117   -0.0650   -0.0922 O   0  0  0  0  0  0  0  0  0  0  0  0
   -2.3615   -0.2036   -0.5073 C   0  0  2  0  0  0  0  0  0  0  0  0
   -2.8171   -0.7304    0.8038 C   0  0  0  0  0  0  0  0  0  0  0  0
   -1.1247    0.6656   -0.5892 C   0  0  0  0  0  0  0  0  0  0  0  0
    2.3588   -0.1225    0.3823 C   0  0  0  0  0  0  0  0  0  0  0  0
    1.1827    0.7041   -0.1448 C   0  0  0  0  0  0  0  0  0  0  0  0
    2.5801   -1.3789   -0.4627 C   0  0  0  0  0  0  0  0  0  0  0  0
    3.6300    0.7230    0.4192 C   0  0  0  0  0  0  0  0  0  0  0  0
   -2.5645   -0.7748   -1.4014 H   0  0  0  0  0  0  0  0  0  0  0  0
   -3.3781   -1.6558    0.8176 H   0  0  0  0  0  0  0  0  0  0  0  0
   -2.2121   -0.5550    1.6839 H   0  0  0  0  0  0  0  0  0  0  0  0
   -1.2572    1.5800    0.0017 H   0  0  0  0  0  0  0  0  0  0  0  0
   -0.9530    0.9453   -1.6347 H   0  0  0  0  0  0  0  0  0  0  0  0
    2.1242   -0.4510    1.4028 H   0  0  0  0  0  0  0  0  0  0  0  0
    1.0574    1.6030    0.4711 H   0  0  0  0  0  0  0  0  0  0  0  0
    1.3726    1.0167   -1.1791 H   0  0  0  0  0  0  0  0  0  0  0  0
    3.4249   -1.9604   -0.0782 H   0  0  0  0  0  0  0  0  0  0  0  0
    2.7931   -1.1226   -1.5061 H   0  0  0  0  0  0  0  0  0  0  0  0
    1.6984   -2.0276   -0.4461 H   0  0  0  0  0  0  0  0  0  0  0  0
    4.4686    0.1471    0.8247 H   0  0  0  0  0  0  0  0  0  0  0  0
    3.4926    1.6044    1.0545 H   0  0  0  0  0  0  0  0  0  0  0  0
    3.9086    1.0672   -0.5827 H   0  0  0  0  0  0  0  0  0  0  0  0
  1  3  1  0  0  0  0
  1  4  1  0  0  0  0
  2  5  1  0  0  0  0
  2  7  1  0  0  0  0
  3  4  1  0  0  0  0
  3  5  1  0  0  0  0
  3 10  1  0  0  0  0
  4 11  1  0  0  0  0
  4 12  1  0  0  0  0
  5 13  1  0  0  0  0
  5 14  1  0  0  0  0
  6  7  1  0  0  0  0
  6  8  1  0  0  0  0
  6  9  1  0  0  0  0
  6 15  1  0  0  0  0
  7 16  1  0  0  0  0
  7 17  1  0  0  0  0
  8 18  1  0  0  0  0
  8 19  1  0  0  0  0
  8 20  1  0  0  0  0
  9 21  1  0  0  0  0
  9 22  1  0  0  0  0
  9 23  1  0  0  0  0
M  END
> <PUBCHEM_COMPOUND_CID>
98155

> <PUBCHEM_CONFORMER_RMSD>
0.6

> <PUBCHEM_CONFORMER_DIVERSEORDER>
2
15
13
4
10
3
14
9
8
5
12
7
16
6
17
11
1

> <PUBCHEM_MMFF94_PARTIAL_CHARGES>
9
1 -0.3
10 0.1
11 0.1
12 0.1
2 -0.56
3 -0.05
4 -0.05
5 0.38
7 0.28

> <PUBCHEM_EFFECTIVE_ROTOR_COUNT>
4.6

> <PUBCHEM_PHARMACOPHORE_FEATURES>
3
1 1 acceptor
1 2 acceptor
3 6 8 9 hydrophobe

> <PUBCHEM_HEAVY_ATOM_COUNT>
9

> <PUBCHEM_ATOM_DEF_STEREO_COUNT>
0

> <PUBCHEM_ATOM_UDEF_STEREO_COUNT>
1

> <PUBCHEM_BOND_DEF_STEREO_COUNT>
0

> <PUBCHEM_BOND_UDEF_STEREO_COUNT>
0

> <PUBCHEM_ISOTOPIC_ATOM_COUNT>
0

> <PUBCHEM_COMPONENT_COUNT>
1

> <PUBCHEM_CACTVS_TAUTO_COUNT>
1

> <PUBCHEM_CONFORMER_ID>
00017F6B00000002

> <PUBCHEM_MMFF94_ENERGY>
13.5092

> <PUBCHEM_FEATURE_SELFOVERLAP>
15.223

> <PUBCHEM_SHAPE_FINGERPRINT>
10857977 72 18113611317774898169
11062470 55 18343863324812779009
12897270 3 8430320134137063527
12932764 1 17275092929921716748
14325111 11 18413669110394235623
14390081 3 11095884852241141135
20201158 50 18260828202377696762
20279233 1 18186515501469798279
20281407 28 18113341898839855251
20645477 70 18200022937329499894
22485316 2 17967526883067631691
3248919 1 18260266360546813373

> <PUBCHEM_SHAPE_MULTIPOLES>
173.48
6.52
1.08
0.81
0.31
0.24
0.02
0.18
1.06
-0.56
-0.08
0.14
0.06
0.49

> <PUBCHEM_SHAPE_SELFOVERLAP>
320.104

> <PUBCHEM_SHAPE_VOLUME>
111.7

> <PUBCHEM_COORDINATE_TYPE>
2
5
10

$$$$
