8386
  -OEChem-11012401203D

 24 25  0     0  0  0  0  0  0999 V2000
   -3.0337   -0.2647    0.0824 S   0  0  0  0  0  0  0  0  0  0  0  0
   -3.4695   -0.4079   -1.4868 O   0  0  0  0  0  0  0  0  0  0  0  0
   -3.0751   -1.6008    0.6584 O   0  0  0  0  0  0  0  0  0  0  0  0
   -3.8054    0.8201    0.6684 O   0  0  0  0  0  0  0  0  0  0  0  0
    1.7999   -2.6146    0.0227 N   0  0  0  0  0  0  0  0  0  0  0  0
    1.0047   -0.2840    0.0145 C   0  0  0  0  0  0  0  0  0  0  0  0
    1.3121    1.0973   -0.0035 C   0  0  0  0  0  0  0  0  0  0  0  0
   -1.3672    0.2567    0.0495 C   0  0  0  0  0  0  0  0  0  0  0  0
   -0.3402   -0.6878    0.0408 C   0  0  0  0  0  0  0  0  0  0  0  0
    2.0511   -1.2206    0.0057 C   0  0  0  0  0  0  0  0  0  0  0  0
    0.2658    2.0341    0.0050 C   0  0  0  0  0  0  0  0  0  0  0  0
   -1.0648    1.6151    0.0313 C   0  0  0  0  0  0  0  0  0  0  0  0
    2.6569    1.5013   -0.0300 C   0  0  0  0  0  0  0  0  0  0  0  0
    3.3815   -0.8014   -0.0204 C   0  0  0  0  0  0  0  0  0  0  0  0
    3.6839    0.5571   -0.0381 C   0  0  0  0  0  0  0  0  0  0  0  0
   -0.6144   -1.7375    0.0452 H   0  0  0  0  0  0  0  0  0  0  0  0
    0.4791    3.1010   -0.0105 H   0  0  0  0  0  0  0  0  0  0  0  0
   -1.8473    2.3686    0.0292 H   0  0  0  0  0  0  0  0  0  0  0  0
    2.9165    2.5579   -0.0443 H   0  0  0  0  0  0  0  0  0  0  0  0
    4.1936   -1.5242   -0.0272 H   0  0  0  0  0  0  0  0  0  0  0  0
    4.7198    0.8829   -0.0585 H   0  0  0  0  0  0  0  0  0  0  0  0
    0.8671   -2.9965    0.0469 H   0  0  0  0  0  0  0  0  0  0  0  0
    2.5838   -3.2548    0.0157 H   0  0  0  0  0  0  0  0  0  0  0  0
   -2.9622   -1.0743   -2.0073 H   0  0  0  0  0  0  0  0  0  0  0  0
  1  2  1  0  0  0  0
  1  3  2  0  0  0  0
  1  4  2  0  0  0  0
  1  8  1  0  0  0  0
  2 24  1  0  0  0  0
  5 10  1  0  0  0  0
  5 22  1  0  0  0  0
  5 23  1  0  0  0  0
  6  7  2  0  0  0  0
  6  9  1  0  0  0  0
  6 10  1  0  0  0  0
  7 11  1  0  0  0  0
  7 13  1  0  0  0  0
  8  9  2  0  0  0  0
  8 12  1  0  0  0  0
  9 16  1  0  0  0  0
 10 14  2  0  0  0  0
 11 12  2  0  0  0  0
 11 17  1  0  0  0  0
 12 18  1  0  0  0  0
 13 15  2  0  0  0  0
 13 19  1  0  0  0  0
 14 15  1  0  0  0  0
 14 20  1  0  0  0  0
 15 21  1  0  0  0  0
M  END
> <PUBCHEM_COMPOUND_CID>
8386

> <PUBCHEM_CONFORMER_RMSD>
0.4

> <PUBCHEM_CONFORMER_DIVERSEORDER>
1
2

> <PUBCHEM_MMFF94_PARTIAL_CHARGES>
22
1 1.49
10 0.1
11 -0.15
12 -0.15
13 -0.15
14 -0.15
15 -0.15
16 0.15
17 0.15
18 0.15
19 0.15
2 -0.68
20 0.15
21 0.15
22 0.4
23 0.4
24 0.5
3 -0.65
4 -0.65
5 -0.9
8 -0.01
9 -0.15

> <PUBCHEM_EFFECTIVE_ROTOR_COUNT>
1

> <PUBCHEM_PHARMACOPHORE_FEATURES>
8
1 2 acceptor
1 3 acceptor
1 4 acceptor
1 5 cation
1 5 donor
4 1 2 3 4 anion
6 6 7 10 13 14 15 rings
6 6 7 8 9 11 12 rings

> <PUBCHEM_HEAVY_ATOM_COUNT>
15

> <PUBCHEM_ATOM_DEF_STEREO_COUNT>
0

> <PUBCHEM_ATOM_UDEF_STEREO_COUNT>
0

> <PUBCHEM_BOND_DEF_STEREO_COUNT>
0

> <PUBCHEM_BOND_UDEF_STEREO_COUNT>
0

> <PUBCHEM_ISOTOPIC_ATOM_COUNT>
0

> <PUBCHEM_COMPONENT_COUNT>
1

> <PUBCHEM_CACTVS_TAUTO_COUNT>
1

> <PUBCHEM_CONFORMER_ID>
000020C200000001

> <PUBCHEM_MMFF94_ENERGY>
46.3618

> <PUBCHEM_FEATURE_SELFOVERLAP>
40.678

> <PUBCHEM_SHAPE_FINGERPRINT>
10608611 8 18408038507132990437
10967382 1 18410294705098331042
10980938 120 18410854369454401450
11132069 177 18409725188150470336
11471102 20 18410007745327122652
11578080 2 17343748622278285369
11806522 49 18268988868152905743
12032990 46 18410300224178662202
12932764 1 17489585696991426009
13140716 1 18266456697200636816
13221675 6 18412545418327404006
13296908 3 18334579070297840851
13380535 76 18335701680397066722
14144814 61 18411983567748428033
14251717 144 18412257371903128446
14576447 43 18128802218017233775
15196674 1 18410577305393260120
15375462 189 18273496779900931377
15442244 35 18124318194528771832
15536298 74 18272373062006351392
16945 1 18409729569033007724
17844478 74 17967817136973488589
18186145 218 17894911823543719563
19107657 46 18409451413902590507
193761 8 18050006584685192672
200 152 18201710760897918221
20201158 50 18334857216426996707
20645477 70 18341045242420284335
21267235 1 18411430504752005011
21501502 16 18266742376918824288
21501925 9 18336535033112207450
2334 1 17834113422085097004
23402539 116 18342733022975823804
23402655 69 18340765953381571045
23463225 33 18409732854693538664
23559900 14 18335978667428274178
2748010 2 17976826707134423440
2871803 45 18408601440048616702
3312278 4 18410860966487361977
34934 24 18411694357657040353
5104073 3 18411139147034136425
528886 8 18339357569517890992
581208 293 18413101788549306752
7364860 26 18271247114949924510
77492 1 17775287183424615165
8809292 202 18186809092470305467

> <PUBCHEM_SHAPE_MULTIPOLES>
289.95
6.35
2.08
0.76
2.51
0.33
-0.14
0.86
-0.11
-0.78
0.11
0.53
0.05
-0.06

> <PUBCHEM_SHAPE_SELFOVERLAP>
621.475

> <PUBCHEM_SHAPE_VOLUME>
161.1

> <PUBCHEM_COORDINATE_TYPE>
2
5
10

$$$$
