5273472
  -OEChem-11012400373D

 20 20  0     0  0  0  0  0  0999 V2000
    3.4448   -1.1419   -0.2500 O   0  0  0  0  0  0  0  0  0  0  0  0
    3.9313    1.0449    0.2736 N   0  0  0  0  0  0  0  0  0  0  0  0
   -0.7597   -0.2308   -0.0595 C   0  0  0  0  0  0  0  0  0  0  0  0
   -1.2219    1.0796   -0.1825 C   0  0  0  0  0  0  0  0  0  0  0  0
   -1.6659   -1.2759    0.1206 C   0  0  0  0  0  0  0  0  0  0  0  0
    0.6671   -0.5072   -0.1188 C   0  0  0  0  0  0  0  0  0  0  0  0
   -2.5900    1.3450   -0.1253 C   0  0  0  0  0  0  0  0  0  0  0  0
   -3.0341   -1.0104    0.1777 C   0  0  0  0  0  0  0  0  0  0  0  0
   -3.4961    0.3000    0.0547 C   0  0  0  0  0  0  0  0  0  0  0  0
    1.6473    0.3995    0.0935 C   0  0  0  0  0  0  0  0  0  0  0  0
    3.0772   -0.0027    0.0159 C   0  0  0  0  0  0  0  0  0  0  0  0
   -0.5562    1.9224   -0.3443 H   0  0  0  0  0  0  0  0  0  0  0  0
   -1.3247   -2.3036    0.2199 H   0  0  0  0  0  0  0  0  0  0  0  0
    0.9337   -1.5378   -0.3435 H   0  0  0  0  0  0  0  0  0  0  0  0
   -2.9508    2.3645   -0.2257 H   0  0  0  0  0  0  0  0  0  0  0  0
   -3.7400   -1.8239    0.3179 H   0  0  0  0  0  0  0  0  0  0  0  0
   -4.5615    0.5065    0.0980 H   0  0  0  0  0  0  0  0  0  0  0  0
    1.4400    1.4331    0.3469 H   0  0  0  0  0  0  0  0  0  0  0  0
    3.6076    1.9822    0.4913 H   0  0  0  0  0  0  0  0  0  0  0  0
    4.9368    0.9099    0.2534 H   0  0  0  0  0  0  0  0  0  0  0  0
  1 11  2  0  0  0  0
  2 11  1  0  0  0  0
  2 19  1  0  0  0  0
  2 20  1  0  0  0  0
  3  4  2  0  0  0  0
  3  5  1  0  0  0  0
  3  6  1  0  0  0  0
  4  7  1  0  0  0  0
  4 12  1  0  0  0  0
  5  8  2  0  0  0  0
  5 13  1  0  0  0  0
  6 10  2  0  0  0  0
  6 14  1  0  0  0  0
  7  9  2  0  0  0  0
  7 15  1  0  0  0  0
  8  9  1  0  0  0  0
  8 16  1  0  0  0  0
  9 17  1  0  0  0  0
 10 11  1  0  0  0  0
 10 18  1  0  0  0  0
M  END
> <PUBCHEM_COMPOUND_CID>
5273472

> <PUBCHEM_CONFORMER_RMSD>
0.4

> <PUBCHEM_CONFORMER_DIVERSEORDER>
1
3
5
2
4

> <PUBCHEM_MMFF94_PARTIAL_CHARGES>
20
1 -0.57
10 -0.14
11 0.62
12 0.15
13 0.15
14 0.15
15 0.15
16 0.15
17 0.15
18 0.15
19 0.37
2 -0.8
20 0.37
3 0.03
4 -0.15
5 -0.15
6 -0.18
7 -0.15
8 -0.15
9 -0.15

> <PUBCHEM_EFFECTIVE_ROTOR_COUNT>
2

> <PUBCHEM_PHARMACOPHORE_FEATURES>
3
1 1 acceptor
1 2 donor
6 3 4 5 7 8 9 rings

> <PUBCHEM_HEAVY_ATOM_COUNT>
11

> <PUBCHEM_ATOM_DEF_STEREO_COUNT>
0

> <PUBCHEM_ATOM_UDEF_STEREO_COUNT>
0

> <PUBCHEM_BOND_DEF_STEREO_COUNT>
1

> <PUBCHEM_BOND_UDEF_STEREO_COUNT>
0

> <PUBCHEM_ISOTOPIC_ATOM_COUNT>
0

> <PUBCHEM_COMPONENT_COUNT>
1

> <PUBCHEM_CACTVS_TAUTO_COUNT>
2

> <PUBCHEM_CONFORMER_ID>
0050778000000001

> <PUBCHEM_MMFF94_ENERGY>
28.0951

> <PUBCHEM_FEATURE_SELFOVERLAP>
15.223

> <PUBCHEM_SHAPE_FINGERPRINT>
10608611 8 18412259519487223904
11132069 177 18334292076108910581
12032990 46 18408892849332253083
12932764 1 17458337507763036964
13024252 1 15646772289069089441
14144814 61 18334293149903306834
14325111 11 18410855447438432236
15219456 202 18272657804983819046
18186145 218 18342182124574021328
190213 19 17676206874788574974
20201158 50 18273216374117986599
20279233 1 18272653445934833398
20528008 55 18411976970789476501
20645464 45 18201445748752399183
20645477 70 17988363672334036206
20871998 184 18271530909119622807
23402539 116 18342167882953091615
23559900 14 18340763759227853810
3248919 1 17167869677083451618
6333449 129 18412260636452637791

> <PUBCHEM_SHAPE_MULTIPOLES>
215.52
6.85
1.36
0.62
4.65
0.03
0
0.39
0.29
-0.45
-0.01
-0.03
0
0.28

> <PUBCHEM_SHAPE_SELFOVERLAP>
445.732

> <PUBCHEM_SHAPE_VOLUME>
123.2

> <PUBCHEM_COORDINATE_TYPE>
2
5
10

$$$$
