74445
  -OEChem-11012400583D

 20 20  0     0  0  0  0  0  0999 V2000
   -2.4993   -1.8719    0.0129 O   0  0  0  0  0  0  0  0  0  0  0  0
    2.4994   -1.8718   -0.0129 O   0  0  0  0  0  0  0  0  0  0  0  0
   -3.6443    0.1150   -0.0051 N   0  0  0  0  0  0  0  0  0  0  0  0
    3.6443    0.1150    0.0050 N   0  0  0  0  0  0  0  0  0  0  0  0
   -1.2080    0.0978   -0.0020 C   0  0  0  0  0  0  0  0  0  0  0  0
    1.2080    0.0977    0.0020 C   0  0  0  0  0  0  0  0  0  0  0  0
    0.0000   -0.5997    0.0001 C   0  0  0  0  0  0  0  0  0  0  0  0
   -1.2080    1.4927   -0.0020 C   0  0  0  0  0  0  0  0  0  0  0  0
    1.2079    1.4926    0.0019 C   0  0  0  0  0  0  0  0  0  0  0  0
    0.0000    2.1901    0.0001 C   0  0  0  0  0  0  0  0  0  0  0  0
   -2.4677   -0.6287   -0.0036 C   0  0  0  0  0  0  0  0  0  0  0  0
    2.4677   -0.6288    0.0036 C   0  0  0  0  0  0  0  0  0  0  0  0
    0.0000   -1.6870    0.0001 H   0  0  0  0  0  0  0  0  0  0  0  0
   -2.1058    2.0987   -0.0030 H   0  0  0  0  0  0  0  0  0  0  0  0
    2.1058    2.0986    0.0029 H   0  0  0  0  0  0  0  0  0  0  0  0
   -0.0001    3.2764    0.0000 H   0  0  0  0  0  0  0  0  0  0  0  0
   -3.7101    1.1244   -0.0138 H   0  0  0  0  0  0  0  0  0  0  0  0
   -4.5369   -0.3687    0.0007 H   0  0  0  0  0  0  0  0  0  0  0  0
    3.7100    1.1245    0.0138 H   0  0  0  0  0  0  0  0  0  0  0  0
    4.5370   -0.3686   -0.0009 H   0  0  0  0  0  0  0  0  0  0  0  0
  1 11  2  0  0  0  0
  2 12  2  0  0  0  0
  3 11  1  0  0  0  0
  3 17  1  0  0  0  0
  3 18  1  0  0  0  0
  4 12  1  0  0  0  0
  4 19  1  0  0  0  0
  4 20  1  0  0  0  0
  5  7  2  0  0  0  0
  5  8  1  0  0  0  0
  5 11  1  0  0  0  0
  6  7  1  0  0  0  0
  6  9  2  0  0  0  0
  6 12  1  0  0  0  0
  7 13  1  0  0  0  0
  8 10  2  0  0  0  0
  8 14  1  0  0  0  0
  9 10  1  0  0  0  0
  9 15  1  0  0  0  0
 10 16  1  0  0  0  0
M  END
> <PUBCHEM_COMPOUND_CID>
74445

> <PUBCHEM_CONFORMER_RMSD>
0.6

> <PUBCHEM_CONFORMER_DIVERSEORDER>
1
3
2

> <PUBCHEM_MMFF94_PARTIAL_CHARGES>
20
1 -0.57
10 -0.15
11 0.54
12 0.54
13 0.15
14 0.15
15 0.15
16 0.15
17 0.37
18 0.37
19 0.37
2 -0.57
20 0.37
3 -0.8
4 -0.8
5 0.09
6 0.09
7 -0.15
8 -0.15
9 -0.15

> <PUBCHEM_EFFECTIVE_ROTOR_COUNT>
2

> <PUBCHEM_PHARMACOPHORE_FEATURES>
5
1 1 acceptor
1 2 acceptor
1 3 donor
1 4 donor
6 5 6 7 8 9 10 rings

> <PUBCHEM_HEAVY_ATOM_COUNT>
12

> <PUBCHEM_ATOM_DEF_STEREO_COUNT>
0

> <PUBCHEM_ATOM_UDEF_STEREO_COUNT>
0

> <PUBCHEM_BOND_DEF_STEREO_COUNT>
0

> <PUBCHEM_BOND_UDEF_STEREO_COUNT>
0

> <PUBCHEM_ISOTOPIC_ATOM_COUNT>
0

> <PUBCHEM_COMPONENT_COUNT>
1

> <PUBCHEM_CACTVS_TAUTO_COUNT>
3

> <PUBCHEM_CONFORMER_ID>
000122CD00000001

> <PUBCHEM_MMFF94_ENERGY>
38.443

> <PUBCHEM_FEATURE_SELFOVERLAP>
25.371

> <PUBCHEM_SHAPE_FINGERPRINT>
10130415 120 18408885135613057721
10857977 72 18340756096605362232
14128692 85 18410015476231338620
161256 15 18410568526390929944
16945 1 18410575084663325765
17990270 104 18192428791083996363
20201158 50 18408321103016816707
20281407 28 18412266133662708058
20645477 70 18120647192119886695
20711985 365 18192992608499511558
20871998 184 18129941157101609604
20871998 22 18342468023103484854
21501925 9 18268419312413104707
23463225 33 18411140212164951887
23552423 10 18262803011334510645
23559900 14 18267578019231595122
2748010 2 18266173027242546877
3312278 4 18408888446732201450
7364860 26 18125721429000957393
81228 2 18264214603728593488
8809292 202 18260270788658407515

> <PUBCHEM_SHAPE_MULTIPOLES>
225.25
4.89
1.99
0.59
0
0.35
0
-1.96
0
0
0
0
0.03
0.01

> <PUBCHEM_SHAPE_SELFOVERLAP>
476.831

> <PUBCHEM_SHAPE_VOLUME>
125.8

> <PUBCHEM_COORDINATE_TYPE>
2
5
10

$$$$
