138177
  -OEChem-11012400493D

 18 17  0     0  0  0  0  0  0999 V2000
   -3.6029   -1.1094    0.1873 O   0  5  0  0  0  0  0  0  0  0  0  0
    3.6054    1.1047   -0.1927 O   0  5  0  0  0  0  0  0  0  0  0  0
   -3.6134    1.0936    0.2212 O   0  0  0  0  0  0  0  0  0  0  0  0
    3.6203   -1.0981   -0.1536 O   0  0  0  0  0  0  0  0  0  0  0  0
   -3.1024   -0.0013   -0.0725 N   0  3  0  0  0  0  0  0  0  0  0  0
    3.0939    0.0043    0.0789 N   0  3  0  0  0  0  0  0  0  0  0  0
   -0.6913    0.0240    0.2823 C   0  0  0  0  0  0  0  0  0  0  0  0
    0.7101   -0.0405   -0.3351 C   0  0  0  0  0  0  0  0  0  0  0  0
   -1.7995    0.0183   -0.7591 C   0  0  0  0  0  0  0  0  0  0  0  0
    1.7798    0.0045    0.7433 C   0  0  0  0  0  0  0  0  0  0  0  0
   -0.8175   -0.8270    0.9648 H   0  0  0  0  0  0  0  0  0  0  0  0
   -0.7734    0.9280    0.9000 H   0  0  0  0  0  0  0  0  0  0  0  0
    0.8065   -0.9584   -0.9290 H   0  0  0  0  0  0  0  0  0  0  0  0
    0.8361    0.7991   -1.0309 H   0  0  0  0  0  0  0  0  0  0  0  0
   -1.7515   -0.8683   -1.3998 H   0  0  0  0  0  0  0  0  0  0  0  0
   -1.7687    0.9106   -1.3927 H   0  0  0  0  0  0  0  0  0  0  0  0
    1.7156    0.9128    1.3512 H   0  0  0  0  0  0  0  0  0  0  0  0
    1.7370   -0.8677    1.4036 H   0  0  0  0  0  0  0  0  0  0  0  0
  1  5  1  0  0  0  0
  2  6  1  0  0  0  0
  3  5  2  0  0  0  0
  4  6  2  0  0  0  0
  5  9  1  0  0  0  0
  6 10  1  0  0  0  0
  7  8  1  0  0  0  0
  7  9  1  0  0  0  0
  7 11  1  0  0  0  0
  7 12  1  0  0  0  0
  8 10  1  0  0  0  0
  8 13  1  0  0  0  0
  8 14  1  0  0  0  0
  9 15  1  0  0  0  0
  9 16  1  0  0  0  0
 10 17  1  0  0  0  0
 10 18  1  0  0  0  0
M  CHG  4   1  -1   2  -1   5   1   6   1
M  END
> <PUBCHEM_COMPOUND_CID>
138177

> <PUBCHEM_CONFORMER_RMSD>
0.6

> <PUBCHEM_CONFORMER_DIVERSEORDER>
1
10
26
25
11
12
15
13
16
4
27
3
9
23
17
24
7
2
14
5
19
20
21
18
22
28
8
6

> <PUBCHEM_MMFF94_PARTIAL_CHARGES>
8
1 -0.52
10 0.24
2 -0.52
3 -0.52
4 -0.52
5 0.8
6 0.8
9 0.24

> <PUBCHEM_EFFECTIVE_ROTOR_COUNT>
5

> <PUBCHEM_PHARMACOPHORE_FEATURES>
6
1 1 acceptor
1 1 anion
1 2 acceptor
1 2 anion
1 3 acceptor
1 4 acceptor

> <PUBCHEM_HEAVY_ATOM_COUNT>
10

> <PUBCHEM_ATOM_DEF_STEREO_COUNT>
0

> <PUBCHEM_ATOM_UDEF_STEREO_COUNT>
0

> <PUBCHEM_BOND_DEF_STEREO_COUNT>
0

> <PUBCHEM_BOND_UDEF_STEREO_COUNT>
0

> <PUBCHEM_ISOTOPIC_ATOM_COUNT>
0

> <PUBCHEM_COMPONENT_COUNT>
1

> <PUBCHEM_CACTVS_TAUTO_COUNT>
3

> <PUBCHEM_CONFORMER_ID>
00021BC100000001

> <PUBCHEM_MMFF94_ENERGY>
6.865

> <PUBCHEM_FEATURE_SELFOVERLAP>
30.606

> <PUBCHEM_SHAPE_FINGERPRINT>
11062470 55 18410573985151561576
12932764 1 18338498798927478798
14325111 11 18410572889945444102
18186145 218 18040712550202485436
190213 19 18410851062081715648

> <PUBCHEM_SHAPE_MULTIPOLES>
172.36
7.63
0.97
0.73
0.01
0
-0.01
0
0.07
0
0.01
0.01
0
-0.02

> <PUBCHEM_SHAPE_SELFOVERLAP>
319.073

> <PUBCHEM_SHAPE_VOLUME>
109.2

> <PUBCHEM_COORDINATE_TYPE>
2
5
10

$$$$
