67949
  -OEChem-11012400393D

 22 23  0     0  0  0  0  0  0999 V2000
   -0.7654    1.7020   -1.6609 F   0  0  0  0  0  0  0  0  0  0  0  0
    0.7654    1.6600    1.7028 F   0  0  0  0  0  0  0  0  0  0  0  0
   -0.7655   -1.7022    1.6605 F   0  0  0  0  0  0  0  0  0  0  0  0
    0.7654   -1.6603   -1.7024 F   0  0  0  0  0  0  0  0  0  0  0  0
   -3.4857   -1.6953    1.6531 F   0  0  0  0  0  0  0  0  0  0  0  0
    3.4856   -1.6537   -1.6949 F   0  0  0  0  0  0  0  0  0  0  0  0
   -3.4859    1.6954   -1.6531 F   0  0  0  0  0  0  0  0  0  0  0  0
    3.4859    1.6537    1.6948 F   0  0  0  0  0  0  0  0  0  0  0  0
   -4.8527   -0.0003   -0.0001 F   0  0  0  0  0  0  0  0  0  0  0  0
    4.8527   -0.0003    0.0001 F   0  0  0  0  0  0  0  0  0  0  0  0
   -0.7235    0.0001    0.0000 C   0  0  0  0  0  0  0  0  0  0  0  0
    0.7235    0.0001    0.0000 C   0  0  0  0  0  0  0  0  0  0  0  0
   -1.4208    0.8649   -0.8434 C   0  0  0  0  0  0  0  0  0  0  0  0
    1.4209    0.8435    0.8648 C   0  0  0  0  0  0  0  0  0  0  0  0
   -1.4209   -0.8647    0.8435 C   0  0  0  0  0  0  0  0  0  0  0  0
    1.4209   -0.8434   -0.8648 C   0  0  0  0  0  0  0  0  0  0  0  0
   -2.8159   -0.8647    0.8435 C   0  0  0  0  0  0  0  0  0  0  0  0
    2.8158   -0.8434   -0.8647 C   0  0  0  0  0  0  0  0  0  0  0  0
   -2.8158    0.8649   -0.8434 C   0  0  0  0  0  0  0  0  0  0  0  0
    2.8158    0.8435    0.8646 C   0  0  0  0  0  0  0  0  0  0  0  0
   -3.5133    0.0000    0.0001 C   0  0  0  0  0  0  0  0  0  0  0  0
    3.5132    0.0000   -0.0001 C   0  0  0  0  0  0  0  0  0  0  0  0
  1 13  1  0  0  0  0
  2 14  1  0  0  0  0
  3 15  1  0  0  0  0
  4 16  1  0  0  0  0
  5 17  1  0  0  0  0
  6 18  1  0  0  0  0
  7 19  1  0  0  0  0
  8 20  1  0  0  0  0
  9 21  1  0  0  0  0
 10 22  1  0  0  0  0
 11 12  1  0  0  0  0
 11 13  2  0  0  0  0
 11 15  1  0  0  0  0
 12 14  2  0  0  0  0
 12 16  1  0  0  0  0
 13 19  1  0  0  0  0
 14 20  1  0  0  0  0
 15 17  2  0  0  0  0
 16 18  2  0  0  0  0
 17 21  1  0  0  0  0
 18 22  1  0  0  0  0
 19 21  2  0  0  0  0
 20 22  2  0  0  0  0
M  END
> <PUBCHEM_COMPOUND_CID>
67949

> <PUBCHEM_CONFORMER_RMSD>
0.6

> <PUBCHEM_CONFORMER_DIVERSEORDER>
1
2
3

> <PUBCHEM_MMFF94_PARTIAL_CHARGES>
20
1 -0.19
10 -0.19
13 0.19
14 0.19
15 0.19
16 0.19
17 0.19
18 0.19
19 0.19
2 -0.19
20 0.19
21 0.19
22 0.19
3 -0.19
4 -0.19
5 -0.19
6 -0.19
7 -0.19
8 -0.19
9 -0.19

> <PUBCHEM_EFFECTIVE_ROTOR_COUNT>
1

> <PUBCHEM_PHARMACOPHORE_FEATURES>
2
6 11 13 15 17 19 21 rings
6 12 14 16 18 20 22 rings

> <PUBCHEM_HEAVY_ATOM_COUNT>
22

> <PUBCHEM_ATOM_DEF_STEREO_COUNT>
0

> <PUBCHEM_ATOM_UDEF_STEREO_COUNT>
0

> <PUBCHEM_BOND_DEF_STEREO_COUNT>
0

> <PUBCHEM_BOND_UDEF_STEREO_COUNT>
0

> <PUBCHEM_ISOTOPIC_ATOM_COUNT>
0

> <PUBCHEM_COMPONENT_COUNT>
1

> <PUBCHEM_CACTVS_TAUTO_COUNT>
1

> <PUBCHEM_CONFORMER_ID>
0001096D00000001

> <PUBCHEM_MMFF94_ENERGY>
39.0349

> <PUBCHEM_FEATURE_SELFOVERLAP>
10.149

> <PUBCHEM_SHAPE_FINGERPRINT>
11471102 20 17847062186153051088
11582403 64 17186089662444838261
11640471 11 15792296973136019725
12236239 1 15719391732831425124
13140716 1 17605005882799410209
13538477 17 16370729265957656699
13581323 91 17385715898403533560
13583140 156 17971158574722992976
14386348 63 18410860961981417383
15219456 202 18413669127574091784
15309172 13 17846218890446065606
16752209 62 17385438847718093011
16945 1 17749107794208025351
18175812 5 18411138073271206047
18186145 218 18337393734012640041
18219364 16 18131348630864472902
19049666 15 18338798883997483115
19422 9 15719391741426641402
200 152 17060336305809740971
20600515 1 17967526900406250461
20645477 70 17989486290637717278
21639500 275 17561073748237868800
22112679 90 16370723729433549949
23175994 123 18272940409806051232
23402539 116 17968089841632229711
23526113 38 18269833116968292474
23557571 272 18260267434309983373
23559900 14 18114462245913452334
350125 39 17125063692365232912
474 4 16342557622217785016
77492 1 15698000734102487044
8272917 22 17203059495280407967

> <PUBCHEM_SHAPE_MULTIPOLES>
380.01
7.54
1.67
1.67
0
0
0
0
0
0.93
0
-0.93
0
2.15

> <PUBCHEM_SHAPE_SELFOVERLAP>
854.25

> <PUBCHEM_SHAPE_VOLUME>
200.2

> <PUBCHEM_COORDINATE_TYPE>
2
5
10

$$$$
