97704
  -OEChem-11012401143D

 20 20  0     1  0  0  0  0  0999 V2000
   -2.1878    1.4901    0.2949 O   0  0  0  0  0  0  0  0  0  0  0  0
    2.1878   -1.4901    0.2949 O   0  0  0  0  0  0  0  0  0  0  0  0
    0.1029    1.3184    0.1488 N   0  0  0  0  0  0  0  0  0  0  0  0
   -0.1029   -1.3185    0.1487 N   0  0  0  0  0  0  0  0  0  0  0  0
    1.2374    0.6196   -0.4369 C   0  0  2  0  0  0  0  0  0  0  0  0
   -1.2375   -0.6197   -0.4369 C   0  0  2  0  0  0  0  0  0  0  0  0
   -1.1861    0.8127    0.0771 C   0  0  0  0  0  0  0  0  0  0  0  0
    1.1862   -0.8127    0.0770 C   0  0  0  0  0  0  0  0  0  0  0  0
    2.5484    1.3035   -0.0839 C   0  0  0  0  0  0  0  0  0  0  0  0
   -2.5485   -1.3033   -0.0838 C   0  0  0  0  0  0  0  0  0  0  0  0
    1.1005    0.6029   -1.5243 H   0  0  0  0  0  0  0  0  0  0  0  0
   -1.1006   -0.6030   -1.5244 H   0  0  0  0  0  0  0  0  0  0  0  0
    0.2134    2.2911    0.4197 H   0  0  0  0  0  0  0  0  0  0  0  0
   -0.2133   -2.2912    0.4196 H   0  0  0  0  0  0  0  0  0  0  0  0
    2.7114    1.3148    0.9999 H   0  0  0  0  0  0  0  0  0  0  0  0
    3.3976    0.7869   -0.5434 H   0  0  0  0  0  0  0  0  0  0  0  0
    2.5527    2.3419   -0.4319 H   0  0  0  0  0  0  0  0  0  0  0  0
   -3.3976   -0.7866   -0.5434 H   0  0  0  0  0  0  0  0  0  0  0  0
   -2.5530   -2.3419   -0.4317 H   0  0  0  0  0  0  0  0  0  0  0  0
   -2.7114   -1.3145    1.0000 H   0  0  0  0  0  0  0  0  0  0  0  0
  1  7  2  0  0  0  0
  2  8  2  0  0  0  0
  3  5  1  0  0  0  0
  3  7  1  0  0  0  0
  3 13  1  0  0  0  0
  4  6  1  0  0  0  0
  4  8  1  0  0  0  0
  4 14  1  0  0  0  0
  5  8  1  0  0  0  0
  5  9  1  0  0  0  0
  5 11  1  0  0  0  0
  6  7  1  0  0  0  0
  6 10  1  0  0  0  0
  6 12  1  0  0  0  0
  9 15  1  0  0  0  0
  9 16  1  0  0  0  0
  9 17  1  0  0  0  0
 10 18  1  0  0  0  0
 10 19  1  0  0  0  0
 10 20  1  0  0  0  0
M  END
> <PUBCHEM_COMPOUND_CID>
97704

> <PUBCHEM_CONFORMER_RMSD>
0.4

> <PUBCHEM_CONFORMER_DIVERSEORDER>
5
6
4
2
1
3

> <PUBCHEM_MMFF94_PARTIAL_CHARGES>
10
1 -0.57
13 0.37
14 0.37
2 -0.57
3 -0.73
4 -0.73
5 0.36
6 0.36
7 0.57
8 0.57

> <PUBCHEM_EFFECTIVE_ROTOR_COUNT>
0.8

> <PUBCHEM_PHARMACOPHORE_FEATURES>
5
1 1 acceptor
1 2 acceptor
1 3 donor
1 4 donor
6 3 4 5 6 7 8 rings

> <PUBCHEM_HEAVY_ATOM_COUNT>
10

> <PUBCHEM_ATOM_DEF_STEREO_COUNT>
0

> <PUBCHEM_ATOM_UDEF_STEREO_COUNT>
2

> <PUBCHEM_BOND_DEF_STEREO_COUNT>
0

> <PUBCHEM_BOND_UDEF_STEREO_COUNT>
0

> <PUBCHEM_ISOTOPIC_ATOM_COUNT>
0

> <PUBCHEM_COMPONENT_COUNT>
1

> <PUBCHEM_CACTVS_TAUTO_COUNT>
3

> <PUBCHEM_CONFORMER_ID>
00017DA800000005

> <PUBCHEM_MMFF94_ENERGY>
31.0795

> <PUBCHEM_FEATURE_SELFOVERLAP>
25.381

> <PUBCHEM_SHAPE_FINGERPRINT>
12897270 3 18266458887301583181
16945 1 18194401314706817070
18185500 45 18192710046822332394
20653091 64 18187357727582435778
21040471 1 18411422786737907140
23235685 24 18118677961871298852
23552423 10 18334014982046269182
241688 4 18334571296185495528
2748010 2 18410855442948292831
29004967 10 18189618430726064979
5084963 1 17749664190146893662

> <PUBCHEM_SHAPE_MULTIPOLES>
184.09
3.48
1.82
0.64
0
0
0.04
0
0.02
0
-0.19
0
0
-0.28

> <PUBCHEM_SHAPE_SELFOVERLAP>
368.979

> <PUBCHEM_SHAPE_VOLUME>
107.9

> <PUBCHEM_COORDINATE_TYPE>
2
5
10

$$$$
