140474
  -OEChem-11012400383D

 15 15  0     0  0  0  0  0  0999 V2000
   -1.1694   -1.4484   -0.3558 S   0  0  0  0  0  0  0  0  0  0  0  0
    2.2127   -0.0014   -0.4200 O   0  0  0  0  0  0  0  0  0  0  0  0
   -1.0046    1.3135   -0.2963 C   0  0  0  0  0  0  0  0  0  0  0  0
    0.3568    1.2822    0.3849 C   0  0  0  0  0  0  0  0  0  0  0  0
   -1.9006    0.1497    0.1131 C   0  0  0  0  0  0  0  0  0  0  0  0
    1.0881   -0.0059    0.0802 C   0  0  0  0  0  0  0  0  0  0  0  0
    0.4171   -1.2896    0.4938 C   0  0  0  0  0  0  0  0  0  0  0  0
   -1.5060    2.2541   -0.0394 H   0  0  0  0  0  0  0  0  0  0  0  0
   -0.8747    1.3157   -1.3863 H   0  0  0  0  0  0  0  0  0  0  0  0
    0.2588    1.3750    1.4720 H   0  0  0  0  0  0  0  0  0  0  0  0
    0.9644    2.1234    0.0339 H   0  0  0  0  0  0  0  0  0  0  0  0
   -2.0819    0.1562    1.1931 H   0  0  0  0  0  0  0  0  0  0  0  0
   -2.8718    0.2376   -0.3843 H   0  0  0  0  0  0  0  0  0  0  0  0
    1.0530   -2.1359    0.2183 H   0  0  0  0  0  0  0  0  0  0  0  0
    0.2817   -1.3005    1.5791 H   0  0  0  0  0  0  0  0  0  0  0  0
  1  5  1  0  0  0  0
  1  7  1  0  0  0  0
  2  6  2  0  0  0  0
  3  4  1  0  0  0  0
  3  5  1  0  0  0  0
  3  8  1  0  0  0  0
  3  9  1  0  0  0  0
  4  6  1  0  0  0  0
  4 10  1  0  0  0  0
  4 11  1  0  0  0  0
  5 12  1  0  0  0  0
  5 13  1  0  0  0  0
  6  7  1  0  0  0  0
  7 14  1  0  0  0  0
  7 15  1  0  0  0  0
M  END
> <PUBCHEM_COMPOUND_CID>
140474

> <PUBCHEM_CONFORMER_RMSD>
0.4

> <PUBCHEM_CONFORMER_DIVERSEORDER>
1
3
4
2

> <PUBCHEM_MMFF94_PARTIAL_CHARGES>
6
1 -0.46
2 -0.57
4 0.06
5 0.23
6 0.45
7 0.29

> <PUBCHEM_EFFECTIVE_ROTOR_COUNT>
1

> <PUBCHEM_PHARMACOPHORE_FEATURES>
2
1 2 acceptor
6 1 3 4 5 6 7 rings

> <PUBCHEM_HEAVY_ATOM_COUNT>
7

> <PUBCHEM_ATOM_DEF_STEREO_COUNT>
0

> <PUBCHEM_ATOM_UDEF_STEREO_COUNT>
0

> <PUBCHEM_BOND_DEF_STEREO_COUNT>
0

> <PUBCHEM_BOND_UDEF_STEREO_COUNT>
0

> <PUBCHEM_ISOTOPIC_ATOM_COUNT>
0

> <PUBCHEM_COMPONENT_COUNT>
1

> <PUBCHEM_CACTVS_TAUTO_COUNT>
3

> <PUBCHEM_CONFORMER_ID>
000224BA00000001

> <PUBCHEM_MMFF94_ENERGY>
5.5471

> <PUBCHEM_FEATURE_SELFOVERLAP>
10.148

> <PUBCHEM_SHAPE_FINGERPRINT>
16714656 1 18411426102378572839
18185500 45 18408877438847105243
20096714 4 18337107852378319715
21040471 1 18267013960306166953
23552423 10 18261115140911698798
241688 4 18194115437625998579
29004967 10 16630812110041601998

> <PUBCHEM_SHAPE_MULTIPOLES>
142.04
2.23
1.7
0.73
0.33
0.03
-0.01
0.12
0.27
-0.39
-0.02
0.01
0.04
-0.03

> <PUBCHEM_SHAPE_SELFOVERLAP>
261.633

> <PUBCHEM_SHAPE_VOLUME>
90

> <PUBCHEM_COORDINATE_TYPE>
2
5
10

$$$$
