137737
  -OEChem-11012401183D

 24 25  0     1  0  0  0  0  0999 V2000
    1.6123   -1.8029   -0.5102 O   0  0  0  0  0  0  0  0  0  0  0  0
   -0.0739    1.0896    0.6265 C   0  0  2  0  0  0  0  0  0  0  0  0
    0.1871   -0.4037    0.8765 C   0  0  1  0  0  0  0  0  0  0  0  0
   -1.0565    1.3679   -0.5215 C   0  0  0  0  0  0  0  0  0  0  0  0
    1.3227    1.6392    0.3129 C   0  0  0  0  0  0  0  0  0  0  0  0
   -1.0305   -1.3099    0.7606 C   0  0  0  0  0  0  0  0  0  0  0  0
   -2.3050    0.5016   -0.4315 C   0  0  0  0  0  0  0  0  0  0  0  0
   -1.9324   -0.9753   -0.4220 C   0  0  0  0  0  0  0  0  0  0  0  0
    1.9823    0.5801   -0.5695 C   0  0  0  0  0  0  0  0  0  0  0  0
    1.2939   -0.6866   -0.1216 C   0  0  0  0  0  0  0  0  0  0  0  0
   -0.4700    1.5540    1.5379 H   0  0  0  0  0  0  0  0  0  0  0  0
    0.6404   -0.5350    1.8682 H   0  0  0  0  0  0  0  0  0  0  0  0
   -0.5808    1.1943   -1.4946 H   0  0  0  0  0  0  0  0  0  0  0  0
   -1.3415    2.4269   -0.5063 H   0  0  0  0  0  0  0  0  0  0  0  0
    1.8930    1.7446    1.2446 H   0  0  0  0  0  0  0  0  0  0  0  0
    1.2995    2.6199   -0.1727 H   0  0  0  0  0  0  0  0  0  0  0  0
   -1.6212   -1.2132    1.6808 H   0  0  0  0  0  0  0  0  0  0  0  0
   -0.7241   -2.3604    0.6954 H   0  0  0  0  0  0  0  0  0  0  0  0
   -2.9589    0.7103   -1.2858 H   0  0  0  0  0  0  0  0  0  0  0  0
   -2.8690    0.7520    0.4750 H   0  0  0  0  0  0  0  0  0  0  0  0
   -2.8424   -1.5839   -0.3708 H   0  0  0  0  0  0  0  0  0  0  0  0
   -1.4270   -1.2366   -1.3597 H   0  0  0  0  0  0  0  0  0  0  0  0
    3.0591    0.5248   -0.3954 H   0  0  0  0  0  0  0  0  0  0  0  0
    1.7706    0.7487   -1.6288 H   0  0  0  0  0  0  0  0  0  0  0  0
  1 10  2  0  0  0  0
  2  3  1  0  0  0  0
  2  4  1  0  0  0  0
  2  5  1  0  0  0  0
  2 11  1  0  0  0  0
  3  6  1  0  0  0  0
  3 10  1  0  0  0  0
  3 12  1  0  0  0  0
  4  7  1  0  0  0  0
  4 13  1  0  0  0  0
  4 14  1  0  0  0  0
  5  9  1  0  0  0  0
  5 15  1  0  0  0  0
  5 16  1  0  0  0  0
  6  8  1  0  0  0  0
  6 17  1  0  0  0  0
  6 18  1  0  0  0  0
  7  8  1  0  0  0  0
  7 19  1  0  0  0  0
  7 20  1  0  0  0  0
  8 21  1  0  0  0  0
  8 22  1  0  0  0  0
  9 10  1  0  0  0  0
  9 23  1  0  0  0  0
  9 24  1  0  0  0  0
M  END
> <PUBCHEM_COMPOUND_CID>
137737

> <PUBCHEM_CONFORMER_RMSD>
0.4

> <PUBCHEM_CONFORMER_DIVERSEORDER>
1
4
2
3
5
6

> <PUBCHEM_MMFF94_PARTIAL_CHARGES>
4
1 -0.57
10 0.45
3 0.06
9 0.06

> <PUBCHEM_EFFECTIVE_ROTOR_COUNT>
1.2

> <PUBCHEM_PHARMACOPHORE_FEATURES>
3
1 1 acceptor
5 2 3 5 9 10 rings
6 2 3 4 6 7 8 rings

> <PUBCHEM_HEAVY_ATOM_COUNT>
10

> <PUBCHEM_ATOM_DEF_STEREO_COUNT>
0

> <PUBCHEM_ATOM_UDEF_STEREO_COUNT>
2

> <PUBCHEM_BOND_DEF_STEREO_COUNT>
0

> <PUBCHEM_BOND_UDEF_STEREO_COUNT>
0

> <PUBCHEM_ISOTOPIC_ATOM_COUNT>
0

> <PUBCHEM_COMPONENT_COUNT>
1

> <PUBCHEM_CACTVS_TAUTO_COUNT>
3

> <PUBCHEM_CONFORMER_ID>
00021A0900000001

> <PUBCHEM_MMFF94_ENERGY>
10.5855

> <PUBCHEM_FEATURE_SELFOVERLAP>
15.395

> <PUBCHEM_SHAPE_FINGERPRINT>
12423570 1 14085592212325952648
12897270 3 18338516464170217501
13024252 1 16811275911233696222
137420 1 7989051942718708784
16945 1 18412545426753964105
18185500 45 17471001489291599659
21040471 1 18187634830150596073
21922407 69 14979667818960996186
23552423 10 18334012752910808695
241688 4 17835800798623931120
2748010 2 17905046211243127157
29004967 10 18060418044734638744
5084963 1 17604977286057781684

> <PUBCHEM_SHAPE_MULTIPOLES>
199.93
2.72
1.83
0.91
0.45
0.14
0.08
-0.02
-0.63
-0.26
-0.06
0.01
0.04
0.33

> <PUBCHEM_SHAPE_SELFOVERLAP>
413.151

> <PUBCHEM_SHAPE_VOLUME>
114.7

> <PUBCHEM_COORDINATE_TYPE>
2
5
10

$$$$
