107983
  -OEChem-11012401213D

 18 18  0     1  0  0  0  0  0999 V2000
   -0.1047   -1.3596    0.0920 O   0  0  0  0  0  0  0  0  0  0  0  0
    0.1047    1.3594    0.0926 O   0  0  0  0  0  0  0  0  0  0  0  0
    2.1347   -1.4587    0.3965 O   0  0  0  0  0  0  0  0  0  0  0  0
   -2.1346    1.4589    0.3962 O   0  0  0  0  0  0  0  0  0  0  0  0
   -1.1800   -0.5964   -0.4644 C   0  0  2  0  0  0  0  0  0  0  0  0
    1.1799    0.5964   -0.4644 C   0  0  2  0  0  0  0  0  0  0  0  0
    1.1430   -0.8243    0.0561 C   0  0  0  0  0  0  0  0  0  0  0  0
   -1.1430    0.8244    0.0560 C   0  0  0  0  0  0  0  0  0  0  0  0
   -2.4753   -1.2969   -0.0801 C   0  0  0  0  0  0  0  0  0  0  0  0
    2.4752    1.2969   -0.0805 C   0  0  0  0  0  0  0  0  0  0  0  0
   -1.0905   -0.5840   -1.5570 H   0  0  0  0  0  0  0  0  0  0  0  0
    1.0901    0.5842   -1.5569 H   0  0  0  0  0  0  0  0  0  0  0  0
   -3.3469   -0.7886   -0.5044 H   0  0  0  0  0  0  0  0  0  0  0  0
   -2.4699   -2.3343   -0.4315 H   0  0  0  0  0  0  0  0  0  0  0  0
   -2.5948   -1.3308    1.0089 H   0  0  0  0  0  0  0  0  0  0  0  0
    2.4697    2.3344   -0.4317 H   0  0  0  0  0  0  0  0  0  0  0  0
    2.5951    1.3308    1.0085 H   0  0  0  0  0  0  0  0  0  0  0  0
    3.3467    0.7887   -0.5052 H   0  0  0  0  0  0  0  0  0  0  0  0
  1  5  1  0  0  0  0
  1  7  1  0  0  0  0
  2  6  1  0  0  0  0
  2  8  1  0  0  0  0
  3  7  2  0  0  0  0
  4  8  2  0  0  0  0
  5  8  1  0  0  0  0
  5  9  1  0  0  0  0
  5 11  1  0  0  0  0
  6  7  1  0  0  0  0
  6 10  1  0  0  0  0
  6 12  1  0  0  0  0
  9 13  1  0  0  0  0
  9 14  1  0  0  0  0
  9 15  1  0  0  0  0
 10 16  1  0  0  0  0
 10 17  1  0  0  0  0
 10 18  1  0  0  0  0
M  END
> <PUBCHEM_COMPOUND_CID>
107983

> <PUBCHEM_CONFORMER_RMSD>
0.4

> <PUBCHEM_CONFORMER_DIVERSEORDER>
1
2

> <PUBCHEM_MMFF94_PARTIAL_CHARGES>
8
1 -0.43
2 -0.43
3 -0.57
4 -0.57
5 0.34
6 0.34
7 0.66
8 0.66

> <PUBCHEM_EFFECTIVE_ROTOR_COUNT>
0.8

> <PUBCHEM_PHARMACOPHORE_FEATURES>
3
1 3 acceptor
1 4 acceptor
6 1 2 5 6 7 8 rings

> <PUBCHEM_HEAVY_ATOM_COUNT>
10

> <PUBCHEM_ATOM_DEF_STEREO_COUNT>
2

> <PUBCHEM_ATOM_UDEF_STEREO_COUNT>
0

> <PUBCHEM_BOND_DEF_STEREO_COUNT>
0

> <PUBCHEM_BOND_UDEF_STEREO_COUNT>
0

> <PUBCHEM_ISOTOPIC_ATOM_COUNT>
0

> <PUBCHEM_COMPONENT_COUNT>
1

> <PUBCHEM_CACTVS_TAUTO_COUNT>
1

> <PUBCHEM_CONFORMER_ID>
0001A5CF00000001

> <PUBCHEM_MMFF94_ENERGY>
16.4861

> <PUBCHEM_FEATURE_SELFOVERLAP>
15.223

> <PUBCHEM_SHAPE_FINGERPRINT>
12423570 1 9502265957506545974
16945 1 18194401319001784406
18185500 45 18264767649444913658
20653091 64 18187357727561336754
21040471 1 18339929220621646036
23235685 24 18118679061382933124
23552423 10 18334014986372865534
241688 4 18334571296190757288
2748010 2 18410573972266549485
29004967 10 18116434932486301115
5084963 1 17821723970296898958

> <PUBCHEM_SHAPE_MULTIPOLES>
182.32
3.33
1.81
0.65
0
0
0.04
0
-0.04
0
-0.22
0
0
-0.32

> <PUBCHEM_SHAPE_SELFOVERLAP>
368.714

> <PUBCHEM_SHAPE_VOLUME>
106.3

> <PUBCHEM_COORDINATE_TYPE>
2
5
10

$$$$
