138714
  -OEChem-11012401273D

 51 52  0     0  0  0  0  0  0999 V2000
   -4.9972    0.8710    0.7276 O   0  0  0  0  0  0  0  0  0  0  0  0
    4.9669    0.7466    0.9073 O   0  0  0  0  0  0  0  0  0  0  0  0
   -3.7810    2.3561   -0.5428 O   0  0  0  0  0  0  0  0  0  0  0  0
    4.4536    1.6800   -1.1333 O   0  0  0  0  0  0  0  0  0  0  0  0
   -3.1821   -1.1100    0.3393 N   0  0  0  0  0  0  0  0  0  0  0  0
    2.8103   -0.8997    0.8148 N   0  0  0  0  0  0  0  0  0  0  0  0
   -0.0069   -1.6915   -1.3759 C   0  0  0  0  0  0  0  0  0  0  0  0
   -1.3095   -1.1862   -0.7690 C   0  0  0  0  0  0  0  0  0  0  0  0
    1.1992   -1.1884   -0.6862 C   0  0  0  0  0  0  0  0  0  0  0  0
   -1.8145    0.0994   -0.9252 C   0  0  0  0  0  0  0  0  0  0  0  0
    2.0797   -0.1827   -1.1560 C   0  0  0  0  0  0  0  0  0  0  0  0
   -2.1365   -1.9281   -0.0004 C   0  0  0  0  0  0  0  0  0  0  0  0
    1.6751   -1.6143    0.5342 C   0  0  0  0  0  0  0  0  0  0  0  0
   -2.9962    0.1281   -0.2183 C   0  0  0  0  0  0  0  0  0  0  0  0
    3.0667   -0.0247   -0.2085 C   0  0  0  0  0  0  0  0  0  0  0  0
   -1.2214    1.2190   -1.6869 C   0  0  0  0  0  0  0  0  0  0  0  0
    1.9602    0.5589   -2.4293 C   0  0  0  0  0  0  0  0  0  0  0  0
   -2.0796   -3.3258    0.4698 C   0  0  0  0  0  0  0  0  0  0  0  0
    1.1668   -2.6348    1.4714 C   0  0  0  0  0  0  0  0  0  0  0  0
   -3.9136    1.2122   -0.0512 C   0  0  0  0  0  0  0  0  0  0  0  0
    4.1847    0.8669   -0.2200 C   0  0  0  0  0  0  0  0  0  0  0  0
   -5.9898    1.8744    0.9676 C   0  0  0  0  0  0  0  0  0  0  0  0
    6.1191    1.5896    1.0138 C   0  0  0  0  0  0  0  0  0  0  0  0
   -7.0813    1.2900    1.8386 C   0  0  0  0  0  0  0  0  0  0  0  0
    6.8274    1.2941    2.3186 C   0  0  0  0  0  0  0  0  0  0  0  0
    0.0116   -2.7881   -1.3665 H   0  0  0  0  0  0  0  0  0  0  0  0
   -0.0050   -1.4389   -2.4415 H   0  0  0  0  0  0  0  0  0  0  0  0
   -3.9697   -1.3778    0.9142 H   0  0  0  0  0  0  0  0  0  0  0  0
    3.3734   -1.0011    1.6484 H   0  0  0  0  0  0  0  0  0  0  0  0
   -0.4695    1.7365   -1.0844 H   0  0  0  0  0  0  0  0  0  0  0  0
   -0.7653    0.8591   -2.6116 H   0  0  0  0  0  0  0  0  0  0  0  0
   -1.9629    1.9557   -2.0042 H   0  0  0  0  0  0  0  0  0  0  0  0
    1.6441    1.5907   -2.2497 H   0  0  0  0  0  0  0  0  0  0  0  0
    1.2687    0.0979   -3.1365 H   0  0  0  0  0  0  0  0  0  0  0  0
    2.9274    0.5924   -2.9431 H   0  0  0  0  0  0  0  0  0  0  0  0
   -3.0649   -3.7985    0.3896 H   0  0  0  0  0  0  0  0  0  0  0  0
   -1.3854   -3.9358   -0.1134 H   0  0  0  0  0  0  0  0  0  0  0  0
   -1.7766   -3.3668    1.5204 H   0  0  0  0  0  0  0  0  0  0  0  0
    1.9388   -2.9430    2.1847 H   0  0  0  0  0  0  0  0  0  0  0  0
    0.3240   -2.2392    2.0455 H   0  0  0  0  0  0  0  0  0  0  0  0
    0.8445   -3.5330    0.9372 H   0  0  0  0  0  0  0  0  0  0  0  0
   -6.4116    2.2029    0.0115 H   0  0  0  0  0  0  0  0  0  0  0  0
   -5.5267    2.7286    1.4733 H   0  0  0  0  0  0  0  0  0  0  0  0
    5.8041    2.6385    0.9899 H   0  0  0  0  0  0  0  0  0  0  0  0
    6.7913    1.3926    0.1718 H   0  0  0  0  0  0  0  0  0  0  0  0
   -7.8584    2.0319    2.0425 H   0  0  0  0  0  0  0  0  0  0  0  0
   -7.5392    0.4224    1.3523 H   0  0  0  0  0  0  0  0  0  0  0  0
   -6.6684    0.9395    2.7904 H   0  0  0  0  0  0  0  0  0  0  0  0
    7.7150    1.9225    2.4329 H   0  0  0  0  0  0  0  0  0  0  0  0
    6.1587    1.4684    3.1680 H   0  0  0  0  0  0  0  0  0  0  0  0
    7.1300    0.2427    2.3631 H   0  0  0  0  0  0  0  0  0  0  0  0
  1 20  1  0  0  0  0
  1 22  1  0  0  0  0
  2 21  1  0  0  0  0
  2 23  1  0  0  0  0
  3 20  2  0  0  0  0
  4 21  2  0  0  0  0
  5 12  1  0  0  0  0
  5 14  1  0  0  0  0
  5 28  1  0  0  0  0
  6 13  1  0  0  0  0
  6 15  1  0  0  0  0
  6 29  1  0  0  0  0
  7  8  1  0  0  0  0
  7  9  1  0  0  0  0
  7 26  1  0  0  0  0
  7 27  1  0  0  0  0
  8 10  1  0  0  0  0
  8 12  2  0  0  0  0
  9 11  1  0  0  0  0
  9 13  2  0  0  0  0
 10 14  2  0  0  0  0
 10 16  1  0  0  0  0
 11 15  2  0  0  0  0
 11 17  1  0  0  0  0
 12 18  1  0  0  0  0
 13 19  1  0  0  0  0
 14 20  1  0  0  0  0
 15 21  1  0  0  0  0
 16 30  1  0  0  0  0
 16 31  1  0  0  0  0
 16 32  1  0  0  0  0
 17 33  1  0  0  0  0
 17 34  1  0  0  0  0
 17 35  1  0  0  0  0
 18 36  1  0  0  0  0
 18 37  1  0  0  0  0
 18 38  1  0  0  0  0
 19 39  1  0  0  0  0
 19 40  1  0  0  0  0
 19 41  1  0  0  0  0
 22 24  1  0  0  0  0
 22 42  1  0  0  0  0
 22 43  1  0  0  0  0
 23 25  1  0  0  0  0
 23 44  1  0  0  0  0
 23 45  1  0  0  0  0
 24 46  1  0  0  0  0
 24 47  1  0  0  0  0
 24 48  1  0  0  0  0
 25 49  1  0  0  0  0
 25 50  1  0  0  0  0
 25 51  1  0  0  0  0
M  END
> <PUBCHEM_COMPOUND_CID>
138714

> <PUBCHEM_CONFORMER_RMSD>
0.8

> <PUBCHEM_CONFORMER_DIVERSEORDER>
1
75
44
26
42
65
30
66
85
77
14
22
38
54
73
86
47
16
35
34
78
2
13
72
9
81
3
87
80
36
71
60
49
41
88
33
62
50
5
57
39
17
18
90
84
82
61
23
46
25
51
43
76
63
48
79
69
56
59
29
45
32
8
15
37
20
21
64
27
19
68
24
67
58
40
74
12
89
6
7
31
52
28
70
10
53
55
4
11
83

> <PUBCHEM_MMFF94_PARTIAL_CHARGES>
25
1 -0.43
10 -0.18
11 -0.18
12 -0.33
13 -0.33
14 -0.24
15 -0.24
16 0.18
17 0.18
18 0.18
19 0.18
2 -0.43
20 0.81
21 0.81
22 0.28
23 0.28
28 0.27
29 0.27
3 -0.57
4 -0.57
5 0.03
6 0.03
7 0.36
8 -0.18
9 -0.18

> <PUBCHEM_EFFECTIVE_ROTOR_COUNT>
8

> <PUBCHEM_PHARMACOPHORE_FEATURES>
8
1 3 acceptor
1 4 acceptor
1 5 cation
1 5 donor
1 6 cation
1 6 donor
5 5 8 10 12 14 rings
5 6 9 11 13 15 rings

> <PUBCHEM_HEAVY_ATOM_COUNT>
25

> <PUBCHEM_ATOM_DEF_STEREO_COUNT>
0

> <PUBCHEM_ATOM_UDEF_STEREO_COUNT>
0

> <PUBCHEM_BOND_DEF_STEREO_COUNT>
0

> <PUBCHEM_BOND_UDEF_STEREO_COUNT>
0

> <PUBCHEM_ISOTOPIC_ATOM_COUNT>
0

> <PUBCHEM_COMPONENT_COUNT>
1

> <PUBCHEM_CACTVS_TAUTO_COUNT>
3

> <PUBCHEM_CONFORMER_ID>
00021DDA00000001

> <PUBCHEM_MMFF94_ENERGY>
29.3497

> <PUBCHEM_FEATURE_SELFOVERLAP>
40.596

> <PUBCHEM_SHAPE_FINGERPRINT>
10 15 18040438806130516988
10493431 412 18408326579643184671
11135609 201 18131625673793786473
11796584 16 11675417640248699152
12403259 118 18269271438467511844
12422481 6 17751613526317488986
12633257 1 16443070516747070808
12760667 363 10953459609632664837
12788726 201 17539157316259006903
12892183 10 17604717642985269149
12895836 83 17418370303201307841
12895837 130 17631163263796947312
13140716 1 18043261325751685085
13782708 43 12901545762646152617
13947930 73 14635452475418493857
13955234 65 18055083064378683367
13965767 371 17969781882410270351
14178342 30 18113620122447766862
14341114 328 18041282170487998636
14739800 52 18200860821493490448
15188451 53 14851609886424423369
15209294 21 18334005129860777646
17492 54 13398632762161378220
17870717 6 8718562639329231690
19438510 23 18130787854022007858
19784866 240 11530486614508227229
20775438 99 8715964381821551081
21033648 29 18130508630320290204
21401589 2 18342173362962044097
21637258 2 13984670269627953681
21756936 100 18271514394917368598
22393880 68 10591771978257483874
23559900 14 18194990477384275671
270888 7 17917709089123551969
2838139 119 17560516209753719425
3380486 145 17168684397698440710
3472631 163 17917991685192241261
392239 28 17458345281400674617
4340502 62 18041571264826415259
465052 167 14923944548844521826
5104073 3 18334573538190579786
5718773 13 12540697032915515289
58807428 26 17967533467152665930
7064713 232 18260827133278876420
7808743 9 18272366490347601569
7970288 3 11530487730883882681

> <PUBCHEM_SHAPE_MULTIPOLES>
481.05
14.46
2.82
1.88
0.41
1.49
0.06
-14.64
-10.87
-1.59
-0.86
1.3
-0.51
-0.07

> <PUBCHEM_SHAPE_SELFOVERLAP>
1010.339

> <PUBCHEM_SHAPE_VOLUME>
275.9

> <PUBCHEM_COORDINATE_TYPE>
2
5
10

$$$$
