137657
  -OEChem-11012401053D

 24 24  0     1  0  0  0  0  0999 V2000
    2.7501    0.2016    0.6147 O   0  0  0  0  0  0  0  0  0  0  0  0
   -1.7545    1.3525   -0.1402 O   0  0  0  0  0  0  0  0  0  0  0  0
    1.4368    1.1794   -1.0151 O   0  0  0  0  0  0  0  0  0  0  0  0
   -2.9870   -0.5151    0.4339 O   0  0  0  0  0  0  0  0  0  0  0  0
    0.5461   -0.6648    0.3533 C   0  0  1  0  0  0  0  0  0  0  0  0
   -0.7317   -0.7779   -0.5041 C   0  0  1  0  0  0  0  0  0  0  0  0
    0.8122   -2.1464    0.0144 C   0  0  0  0  0  0  0  0  0  0  0  0
   -0.7086   -2.2906   -0.2017 C   0  0  0  0  0  0  0  0  0  0  0  0
    1.6131    0.3636   -0.1202 C   0  0  0  0  0  0  0  0  0  0  0  0
   -1.9759    0.0137   -0.0078 C   0  0  0  0  0  0  0  0  0  0  0  0
    3.8262    1.0857    0.2855 C   0  0  0  0  0  0  0  0  0  0  0  0
   -2.8268    2.1983    0.2873 C   0  0  0  0  0  0  0  0  0  0  0  0
    0.3175   -0.5231    1.4207 H   0  0  0  0  0  0  0  0  0  0  0  0
   -0.5516   -0.5847   -1.5725 H   0  0  0  0  0  0  0  0  0  0  0  0
    1.2304   -2.7514    0.8230 H   0  0  0  0  0  0  0  0  0  0  0  0
    1.4058   -2.3051   -0.8936 H   0  0  0  0  0  0  0  0  0  0  0  0
   -1.0046   -2.9448   -1.0261 H   0  0  0  0  0  0  0  0  0  0  0  0
   -1.2516   -2.5898    0.7023 H   0  0  0  0  0  0  0  0  0  0  0  0
    4.6695    0.8539    0.9415 H   0  0  0  0  0  0  0  0  0  0  0  0
    3.5269    2.1249    0.4520 H   0  0  0  0  0  0  0  0  0  0  0  0
    4.1367    0.9340   -0.7527 H   0  0  0  0  0  0  0  0  0  0  0  0
   -3.0255    2.0484    1.3528 H   0  0  0  0  0  0  0  0  0  0  0  0
   -3.7249    2.0002   -0.3054 H   0  0  0  0  0  0  0  0  0  0  0  0
   -2.5242    3.2369    0.1295 H   0  0  0  0  0  0  0  0  0  0  0  0
  1  9  1  0  0  0  0
  1 11  1  0  0  0  0
  2 10  1  0  0  0  0
  2 12  1  0  0  0  0
  3  9  2  0  0  0  0
  4 10  2  0  0  0  0
  5  6  1  0  0  0  0
  5  7  1  0  0  0  0
  5  9  1  0  0  0  0
  5 13  1  0  0  0  0
  6  8  1  0  0  0  0
  6 10  1  0  0  0  0
  6 14  1  0  0  0  0
  7  8  1  0  0  0  0
  7 15  1  0  0  0  0
  7 16  1  0  0  0  0
  8 17  1  0  0  0  0
  8 18  1  0  0  0  0
 11 19  1  0  0  0  0
 11 20  1  0  0  0  0
 11 21  1  0  0  0  0
 12 22  1  0  0  0  0
 12 23  1  0  0  0  0
 12 24  1  0  0  0  0
M  END
> <PUBCHEM_COMPOUND_CID>
137657

> <PUBCHEM_CONFORMER_RMSD>
0.6

> <PUBCHEM_CONFORMER_DIVERSEORDER>
1
20
16
23
11
13
21
5
18
22
3
10
15
2
4
12
14
17
19
9
24
8
7
6

> <PUBCHEM_MMFF94_PARTIAL_CHARGES>
10
1 -0.43
10 0.67
11 0.28
12 0.28
2 -0.43
3 -0.57
4 -0.57
5 0.05
6 0.05
9 0.67

> <PUBCHEM_EFFECTIVE_ROTOR_COUNT>
4.8

> <PUBCHEM_PHARMACOPHORE_FEATURES>
3
1 3 acceptor
1 4 acceptor
4 5 6 7 8 rings

> <PUBCHEM_HEAVY_ATOM_COUNT>
12

> <PUBCHEM_ATOM_DEF_STEREO_COUNT>
0

> <PUBCHEM_ATOM_UDEF_STEREO_COUNT>
2

> <PUBCHEM_BOND_DEF_STEREO_COUNT>
0

> <PUBCHEM_BOND_UDEF_STEREO_COUNT>
0

> <PUBCHEM_ISOTOPIC_ATOM_COUNT>
0

> <PUBCHEM_COMPONENT_COUNT>
1

> <PUBCHEM_CACTVS_TAUTO_COUNT>
1

> <PUBCHEM_CONFORMER_ID>
000219B900000001

> <PUBCHEM_MMFF94_ENERGY>
21.0276

> <PUBCHEM_FEATURE_SELFOVERLAP>
15.223

> <PUBCHEM_SHAPE_FINGERPRINT>
1 1 18196935474287174719
100427 49 17114385295275663799
13380535 76 18335699387026624001
13839132 238 18272373057495113020
14325111 11 18411417297927770064
14648413 74 17979078184873099363
14897335 6 18267578023115190277
15775835 57 18272934912158033785
16945 1 18337961193655478431
19021347 4 18409730659738676611
19973954 147 18193562173077037099
20510252 161 18271810167423470065
20645477 56 18200032988164674520
20671657 1 17908994209938234327
20871998 184 18055639670385476310
21028194 46 18342179968220928970
21040471 1 18411421717306887742
21130352 189 17542786413209840575
21524375 3 18412537691486092075
23402539 116 18057312001891138855
2748010 2 18265059033127428295
305870 269 18337670810985076642
5084963 1 18272382961542069255
7364860 26 18055073151314004447

> <PUBCHEM_SHAPE_MULTIPOLES>
223.48
4.87
2.38
0.74
1.9
0.51
0.06
-3.42
-0.84
-0.89
0.03
0.12
-0.06
-0.13

> <PUBCHEM_SHAPE_SELFOVERLAP>
439.994

> <PUBCHEM_SHAPE_VOLUME>
135.7

> <PUBCHEM_COORDINATE_TYPE>
2
5
10

$$$$
