1149778
  -OEChem-11012401063D

 22 22  0     1  0  0  0  0  0999 V2000
    0.2851   -1.1910   -0.0516 O   0  0  0  0  0  0  0  0  0  0  0  0
    0.6463    1.5336    1.0449 O   0  0  0  0  0  0  0  0  0  0  0  0
    3.0962    0.9357    0.0388 O   0  0  0  0  0  0  0  0  0  0  0  0
   -2.2216    1.4624   -0.2862 O   0  0  0  0  0  0  0  0  0  0  0  0
   -3.9034   -0.6298    0.4147 O   0  0  0  0  0  0  0  0  0  0  0  0
    2.4408   -1.8515    0.3974 O   0  0  0  0  0  0  0  0  0  0  0  0
   -0.3345    0.0071   -0.5596 C   0  0  2  0  0  0  0  0  0  0  0  0
    0.6974    1.0939   -0.3089 C   0  0  2  0  0  0  0  0  0  0  0  0
    1.9837    0.3379   -0.5695 C   0  0  2  0  0  0  0  0  0  0  0  0
   -1.6723    0.2114    0.1286 C   0  0  2  0  0  0  0  0  0  0  0  0
    1.6459   -1.0216   -0.0131 C   0  0  0  0  0  0  0  0  0  0  0  0
   -2.6635   -0.8880   -0.2355 C   0  0  0  0  0  0  0  0  0  0  0  0
   -0.4743   -0.1268   -1.6408 H   0  0  0  0  0  0  0  0  0  0  0  0
    0.5682    1.9673   -0.9548 H   0  0  0  0  0  0  0  0  0  0  0  0
    2.1639    0.2298   -1.6454 H   0  0  0  0  0  0  0  0  0  0  0  0
   -1.5684    0.2421    1.2191 H   0  0  0  0  0  0  0  0  0  0  0  0
   -2.8571   -0.9178   -1.3129 H   0  0  0  0  0  0  0  0  0  0  0  0
   -2.3104   -1.8724    0.0854 H   0  0  0  0  0  0  0  0  0  0  0  0
    1.3971    2.1364    1.1811 H   0  0  0  0  0  0  0  0  0  0  0  0
    3.8749    0.3943   -0.1757 H   0  0  0  0  0  0  0  0  0  0  0  0
   -2.3245    1.4384   -1.2529 H   0  0  0  0  0  0  0  0  0  0  0  0
   -4.2062    0.2484    0.1266 H   0  0  0  0  0  0  0  0  0  0  0  0
  1  7  1  0  0  0  0
  1 11  1  0  0  0  0
  2  8  1  0  0  0  0
  2 19  1  0  0  0  0
  3  9  1  0  0  0  0
  3 20  1  0  0  0  0
  4 10  1  0  0  0  0
  4 21  1  0  0  0  0
  5 12  1  0  0  0  0
  5 22  1  0  0  0  0
  6 11  2  0  0  0  0
  7  8  1  0  0  0  0
  7 10  1  0  0  0  0
  7 13  1  0  0  0  0
  8  9  1  0  0  0  0
  8 14  1  0  0  0  0
  9 11  1  0  0  0  0
  9 15  1  0  0  0  0
 10 12  1  0  0  0  0
 10 16  1  0  0  0  0
 12 17  1  0  0  0  0
 12 18  1  0  0  0  0
M  END
> <PUBCHEM_COMPOUND_CID>
1149778

> <PUBCHEM_CONFORMER_RMSD>
0.6

> <PUBCHEM_CONFORMER_DIVERSEORDER>
1
5
2
3
6
4

> <PUBCHEM_MMFF94_PARTIAL_CHARGES>
16
1 -0.43
10 0.28
11 0.66
12 0.28
19 0.4
2 -0.68
20 0.4
21 0.4
22 0.4
3 -0.68
4 -0.68
5 -0.68
6 -0.57
7 0.28
8 0.28
9 0.34

> <PUBCHEM_EFFECTIVE_ROTOR_COUNT>
2.8

> <PUBCHEM_PHARMACOPHORE_FEATURES>
10
1 2 acceptor
1 2 donor
1 3 acceptor
1 3 donor
1 4 acceptor
1 4 donor
1 5 acceptor
1 5 donor
1 6 acceptor
5 1 7 8 9 11 rings

> <PUBCHEM_HEAVY_ATOM_COUNT>
12

> <PUBCHEM_ATOM_DEF_STEREO_COUNT>
4

> <PUBCHEM_ATOM_UDEF_STEREO_COUNT>
0

> <PUBCHEM_BOND_DEF_STEREO_COUNT>
0

> <PUBCHEM_BOND_UDEF_STEREO_COUNT>
0

> <PUBCHEM_ISOTOPIC_ATOM_COUNT>
0

> <PUBCHEM_COMPONENT_COUNT>
1

> <PUBCHEM_CACTVS_TAUTO_COUNT>
6

> <PUBCHEM_CONFORMER_ID>
00118B5200000001

> <PUBCHEM_MMFF94_ENERGY>
20.3958

> <PUBCHEM_FEATURE_SELFOVERLAP>
50.772

> <PUBCHEM_SHAPE_FINGERPRINT>
11769659 78 18261388897420643914
12932764 1 18131345336772172061
14128692 85 18262523572230418118
14325111 11 18408886222012995205
15775835 57 18271813466237713511
16945 1 18261402207640020548
20201158 50 18260831544126042603
20645477 70 18409161083273333383
20653091 64 18334576806807734954
20871998 22 18197783189600391166
21040471 1 18337392742181007020
21501502 16 18336548218350764453
21501925 9 18335126566948550586
23380061 451 18342464750485877403
23552423 10 18187368679453517910
2748010 2 18337948987331796300
29004967 10 18040159508838946732
3248919 1 17095533893481372237
5084963 1 18186519903932459701
53812653 166 18199465631147396688

> <PUBCHEM_SHAPE_MULTIPOLES>
211.74
4.75
1.61
0.75
2.81
0.11
0.03
0.83
0.33
-0.56
0.2
-0.06
-0.11
-0.03

> <PUBCHEM_SHAPE_SELFOVERLAP>
430.049

> <PUBCHEM_SHAPE_VOLUME>
123.9

> <PUBCHEM_COORDINATE_TYPE>
2
5
10

$$$$
