4318617
  -OEChem-11012400383D

 16 16  0     0  0  0  0  0  0999 V2000
    0.2833   -0.0008    0.0003 N   0  3  0  0  0  0  0  0  0  0  0  0
   -2.4176   -2.2180    0.0000 N   0  5  0  0  0  0  0  0  0  0  0  0
   -2.5785    2.1022   -0.0010 N   0  0  0  0  0  0  0  0  0  0  0  0
    0.9099    1.1837    0.0008 C   0  0  0  0  0  0  0  0  0  0  0  0
    0.9486   -1.1640   -0.0003 C   0  0  0  0  0  0  0  0  0  0  0  0
    2.2964    1.2371    0.0005 C   0  0  0  0  0  0  0  0  0  0  0  0
    2.3362   -1.1717   -0.0008 C   0  0  0  0  0  0  0  0  0  0  0  0
    3.0131    0.0442   -0.0004 C   0  0  0  0  0  0  0  0  0  0  0  0
   -1.1007   -0.0235    0.0008 C   0  0  0  0  0  0  0  0  0  0  0  0
   -1.7766   -1.1397    0.0004 C   0  0  0  0  0  0  0  0  0  0  0  0
   -1.9140    1.1505   -0.0003 C   0  0  0  0  0  0  0  0  0  0  0  0
    0.3368    2.1037    0.0015 H   0  0  0  0  0  0  0  0  0  0  0  0
    0.4146   -2.1077   -0.0006 H   0  0  0  0  0  0  0  0  0  0  0  0
    2.8129    2.1910    0.0009 H   0  0  0  0  0  0  0  0  0  0  0  0
    2.8840   -2.1080   -0.0014 H   0  0  0  0  0  0  0  0  0  0  0  0
    4.0990    0.0622   -0.0007 H   0  0  0  0  0  0  0  0  0  0  0  0
  1  4  2  0  0  0  0
  1  5  1  0  0  0  0
  1  9  1  0  0  0  0
  2 10  2  0  0  0  0
  3 11  3  0  0  0  0
  4  6  1  0  0  0  0
  4 12  1  0  0  0  0
  5  7  2  0  0  0  0
  5 13  1  0  0  0  0
  6  8  2  0  0  0  0
  6 14  1  0  0  0  0
  7  8  1  0  0  0  0
  7 15  1  0  0  0  0
  8 16  1  0  0  0  0
  9 10  2  0  0  0  0
  9 11  1  0  0  0  0
M  CHG  2   1   1   2  -1
M  END
> <PUBCHEM_COMPOUND_CID>
4318617

> <PUBCHEM_CONFORMER_RMSD>
0.4

> <PUBCHEM_CONFORMER_DIVERSEORDER>
1
2

> <PUBCHEM_MMFF94_PARTIAL_CHARGES>
16
1 -0.07
10 0.15
11 0.49
12 0.15
13 0.15
14 0.15
15 0.15
16 0.15
2 -0.22
3 -0.56
4 0.21
5 0.21
6 -0.15
7 -0.15
8 -0.15
9 0.48

> <PUBCHEM_EFFECTIVE_ROTOR_COUNT>
1

> <PUBCHEM_PHARMACOPHORE_FEATURES>
3
1 2 acceptor
1 3 acceptor
6 1 4 5 6 7 8 rings

> <PUBCHEM_HEAVY_ATOM_COUNT>
11

> <PUBCHEM_ATOM_DEF_STEREO_COUNT>
0

> <PUBCHEM_ATOM_UDEF_STEREO_COUNT>
0

> <PUBCHEM_BOND_DEF_STEREO_COUNT>
0

> <PUBCHEM_BOND_UDEF_STEREO_COUNT>
0

> <PUBCHEM_ISOTOPIC_ATOM_COUNT>
0

> <PUBCHEM_COMPONENT_COUNT>
1

> <PUBCHEM_CACTVS_TAUTO_COUNT>
1

> <PUBCHEM_CONFORMER_ID>
0041E59900000001

> <PUBCHEM_MMFF94_ENERGY>
30.2505

> <PUBCHEM_FEATURE_SELFOVERLAP>
15.223

> <PUBCHEM_SHAPE_FINGERPRINT>
12897270 3 18266456683957135895
12932764 1 18339092544033776394
13380535 21 18339657654208080460
13380535 76 18341044099869124159
14325111 11 18410575115213341536
16945 1 18265895748617546468
19973954 147 18410293644167640324
20871998 184 18272937154379090127
21040471 1 18338797797386756768
21501502 16 18408040719172535924
23402655 69 18198048197746355237
23552423 10 18261112997543325718
23559900 14 18198628736271303102
25610 137 18119533394897575447
2748010 2 18412826893351535532
5084963 1 18200600331484290346
528886 8 18339074883239128984

> <PUBCHEM_SHAPE_MULTIPOLES>
211.43
4.39
2.09
0.59
0.43
0.09
0
-0.17
0
-1.41
0
0.04
0
0

> <PUBCHEM_SHAPE_SELFOVERLAP>
444.717

> <PUBCHEM_SHAPE_VOLUME>
115.4

> <PUBCHEM_COORDINATE_TYPE>
2
5
10

$$$$
