141440
  -OEChem-11012401053D

 36 35  0     0  0  0  0  0  0999 V2000
   -1.6925    1.4319    0.7164 F   0  0  0  0  0  0  0  0  0  0  0  0
    1.6691    1.4305   -0.7170 F   0  0  0  0  0  0  0  0  0  0  0  0
   -1.4506   -3.4735   -0.6337 O   0  5  0  0  0  0  0  0  0  0  0  0
    1.5140   -3.4825    0.6288 O   0  5  0  0  0  0  0  0  0  0  0  0
   -3.2952   -2.5393   -1.3904 O   0  0  0  0  0  0  0  0  0  0  0  0
    3.3413   -2.5159    1.3866 O   0  0  0  0  0  0  0  0  0  0  0  0
   -4.9473    0.9857    1.4329 O   0  5  0  0  0  0  0  0  0  0  0  0
   -4.1133    0.8824   -1.6390 O   0  5  0  0  0  0  0  0  0  0  0  0
    4.9315    1.0366   -1.4298 O   0  5  0  0  0  0  0  0  0  0  0  0
    4.0951    0.9148    1.6407 O   0  5  0  0  0  0  0  0  0  0  0  0
   -3.6602    2.7662    1.4863 O   0  0  0  0  0  0  0  0  0  0  0  0
   -2.1587    1.8878   -1.6419 O   0  0  0  0  0  0  0  0  0  0  0  0
    3.6168    2.7968   -1.4819 O   0  0  0  0  0  0  0  0  0  0  0  0
    2.1250    1.8895    1.6427 O   0  0  0  0  0  0  0  0  0  0  0  0
   -1.8522   -1.3035   -0.1883 N   0  0  0  0  0  0  0  0  0  0  0  0
    1.8661   -1.3066    0.1866 N   0  0  0  0  0  0  0  0  0  0  0  0
   -2.2296   -2.5214   -0.7626 N   0  3  0  0  0  0  0  0  0  0  0  0
    2.2747   -2.5162    0.7602 N   0  3  0  0  0  0  0  0  0  0  0  0
   -3.9103    1.6006    1.1503 N   0  3  0  0  0  0  0  0  0  0  0  0
   -3.0634    1.2450   -1.0920 N   0  3  0  0  0  0  0  0  0  0  0  0
    3.8847    1.6347   -1.1477 N   0  3  0  0  0  0  0  0  0  0  0  0
    3.0404    1.2620    1.0929 N   0  3  0  0  0  0  0  0  0  0  0  0
   -0.5605   -1.3023    0.5070 C   0  0  0  0  0  0  0  0  0  0  0  0
    0.5815   -1.3257   -0.5046 C   0  0  0  0  0  0  0  0  0  0  0  0
   -2.8751   -0.6253    0.6054 C   0  0  0  0  0  0  0  0  0  0  0  0
    2.8838   -0.6081   -0.6080 C   0  0  0  0  0  0  0  0  0  0  0  0
   -2.8690    0.8697    0.3493 C   0  0  0  0  0  0  0  0  0  0  0  0
    2.8539    0.8862   -0.3492 C   0  0  0  0  0  0  0  0  0  0  0  0
   -0.4376   -0.3890    1.1026 H   0  0  0  0  0  0  0  0  0  0  0  0
   -0.5133   -2.1214    1.2359 H   0  0  0  0  0  0  0  0  0  0  0  0
    0.5331   -2.1624   -1.2120 H   0  0  0  0  0  0  0  0  0  0  0  0
    0.4605   -0.4320   -1.1306 H   0  0  0  0  0  0  0  0  0  0  0  0
   -3.8734   -1.0190    0.3710 H   0  0  0  0  0  0  0  0  0  0  0  0
   -2.7324   -0.8373    1.6744 H   0  0  0  0  0  0  0  0  0  0  0  0
    3.8874   -0.9872   -0.3728 H   0  0  0  0  0  0  0  0  0  0  0  0
    2.7442   -0.8219   -1.6770 H   0  0  0  0  0  0  0  0  0  0  0  0
  1 27  1  0  0  0  0
  2 28  1  0  0  0  0
  3 17  1  0  0  0  0
  4 18  1  0  0  0  0
  5 17  2  0  0  0  0
  6 18  2  0  0  0  0
  7 19  1  0  0  0  0
  8 20  1  0  0  0  0
  9 21  1  0  0  0  0
 10 22  1  0  0  0  0
 11 19  2  0  0  0  0
 12 20  2  0  0  0  0
 13 21  2  0  0  0  0
 14 22  2  0  0  0  0
 15 17  1  0  0  0  0
 15 23  1  0  0  0  0
 15 25  1  0  0  0  0
 16 18  1  0  0  0  0
 16 24  1  0  0  0  0
 16 26  1  0  0  0  0
 19 27  1  0  0  0  0
 20 27  1  0  0  0  0
 21 28  1  0  0  0  0
 22 28  1  0  0  0  0
 23 24  1  0  0  0  0
 23 29  1  0  0  0  0
 23 30  1  0  0  0  0
 24 31  1  0  0  0  0
 24 32  1  0  0  0  0
 25 27  1  0  0  0  0
 25 33  1  0  0  0  0
 25 34  1  0  0  0  0
 26 28  1  0  0  0  0
 26 35  1  0  0  0  0
 26 36  1  0  0  0  0
M  CHG  8   3  -1   4  -1   7  -1   8  -1   9  -1  10  -1  17   1  18   1
M  CHG  4  19   1  20   1  21   1  22   1
M  END
> <PUBCHEM_COMPOUND_CID>
141440

> <PUBCHEM_CONFORMER_RMSD>
1.2

> <PUBCHEM_CONFORMER_DIVERSEORDER>
1
7
35
3
24
20
31
19
5
25
21
29
6
23
37
30
8
32
10
34
27
2
13
11
22
15
12
38
14
4
18
36
9
33
28
26
17
16

> <PUBCHEM_MMFF94_PARTIAL_CHARGES>
28
1 -0.34
10 -0.52
11 -0.52
12 -0.52
13 -0.52
14 -0.52
15 -0.53
16 -0.53
17 1.03
18 1.03
19 0.8
2 -0.34
20 0.8
21 0.8
22 0.8
23 0.27
24 0.27
25 0.27
26 0.27
27 0.82
28 0.82
3 -0.52
4 -0.52
5 -0.52
6 -0.52
7 -0.52
8 -0.52
9 -0.52

> <PUBCHEM_EFFECTIVE_ROTOR_COUNT>
13

> <PUBCHEM_PHARMACOPHORE_FEATURES>
16
1 10 acceptor
1 10 anion
1 11 acceptor
1 12 acceptor
1 13 acceptor
1 14 acceptor
1 3 acceptor
1 4 acceptor
1 5 acceptor
1 6 acceptor
1 7 acceptor
1 7 anion
1 8 acceptor
1 8 anion
1 9 acceptor
1 9 anion

> <PUBCHEM_HEAVY_ATOM_COUNT>
28

> <PUBCHEM_ATOM_DEF_STEREO_COUNT>
0

> <PUBCHEM_ATOM_UDEF_STEREO_COUNT>
0

> <PUBCHEM_BOND_DEF_STEREO_COUNT>
0

> <PUBCHEM_BOND_UDEF_STEREO_COUNT>
0

> <PUBCHEM_ISOTOPIC_ATOM_COUNT>
0

> <PUBCHEM_COMPONENT_COUNT>
1

> <PUBCHEM_CACTVS_TAUTO_COUNT>
1

> <PUBCHEM_CONFORMER_ID>
0002288000000001

> <PUBCHEM_MMFF94_ENERGY>
76.3806

> <PUBCHEM_FEATURE_SELFOVERLAP>
81.701

> <PUBCHEM_SHAPE_FINGERPRINT>
10382601 240 17822298972466434528
10498660 4 18339920544882803196
10670039 82 18191593149789194558
12173636 292 18201721717781639321
12422481 6 17901349400696787362
12633257 1 18269551641727928719
12788726 201 17832990825103446922
13140716 1 18339640044837418651
14178342 30 18341885350781611752
14251751 93 18270690890799186286
14251757 17 17560527338583299752
14955137 171 17979083677899686747
151778 21 18338245842713176185
15342168 16 18269004098523811525
17980427 23 17557959802517484754
20600515 1 17771048407497693714
22907989 373 18201429329256321295
23557571 272 17986096637896558323
312423 11 18410289220325490823
469060 322 17969508302253622139
474 4 18187365445459415986
5048184 11 18409174341319969404
5252454 2 18410862061493233541
7615 1 18338780278205204526

> <PUBCHEM_SHAPE_MULTIPOLES>
451.4
9.22
3.82
1.62
0.13
2.31
0
-5.32
0.04
-0.08
-0.02
0.01
-0.76
-2.14

> <PUBCHEM_SHAPE_SELFOVERLAP>
911.888

> <PUBCHEM_SHAPE_VOLUME>
264.9

> <PUBCHEM_COORDINATE_TYPE>
2
5
10

$$$$
