12271
  -OEChem-11012401083D

 14 14  0     0  0  0  0  0  0999 V2000
    3.0932   -0.9248    0.0000 I   0  0  0  0  0  0  0  0  0  0  0  0
   -2.3385   -1.3455   -0.0001 N   0  0  0  0  0  0  0  0  0  0  0  0
   -1.2259   -0.4792    0.0001 C   0  0  0  0  0  0  0  0  0  0  0  0
    0.0669   -1.0032    0.0001 C   0  0  0  0  0  0  0  0  0  0  0  0
   -1.4185    0.9024    0.0000 C   0  0  0  0  0  0  0  0  0  0  0  0
    1.1670   -0.1456    0.0000 C   0  0  0  0  0  0  0  0  0  0  0  0
   -0.3185    1.7600    0.0000 C   0  0  0  0  0  0  0  0  0  0  0  0
    0.9742    1.2360   -0.0001 C   0  0  0  0  0  0  0  0  0  0  0  0
    0.2080   -2.0820    0.0001 H   0  0  0  0  0  0  0  0  0  0  0  0
   -2.4208    1.3230    0.0000 H   0  0  0  0  0  0  0  0  0  0  0  0
   -0.4687    2.8356    0.0000 H   0  0  0  0  0  0  0  0  0  0  0  0
    1.8173    1.9223   -0.0001 H   0  0  0  0  0  0  0  0  0  0  0  0
   -3.2758   -0.9657    0.0004 H   0  0  0  0  0  0  0  0  0  0  0  0
   -2.2004   -2.3474    0.0004 H   0  0  0  0  0  0  0  0  0  0  0  0
  1  6  1  0  0  0  0
  2  3  1  0  0  0  0
  2 13  1  0  0  0  0
  2 14  1  0  0  0  0
  3  4  2  0  0  0  0
  3  5  1  0  0  0  0
  4  6  1  0  0  0  0
  4  9  1  0  0  0  0
  5  7  2  0  0  0  0
  5 10  1  0  0  0  0
  6  8  2  0  0  0  0
  7  8  1  0  0  0  0
  7 11  1  0  0  0  0
  8 12  1  0  0  0  0
M  END
> <PUBCHEM_COMPOUND_CID>
12271

> <PUBCHEM_CONFORMER_RMSD>
0.4

> <PUBCHEM_CONFORMER_DIVERSEORDER>
1

> <PUBCHEM_MMFF94_PARTIAL_CHARGES>
14
1 -0.08
10 0.15
11 0.15
12 0.15
13 0.4
14 0.4
2 -0.9
3 0.1
4 -0.15
5 -0.15
6 0.08
7 -0.15
8 -0.15
9 0.15

> <PUBCHEM_EFFECTIVE_ROTOR_COUNT>
0

> <PUBCHEM_PHARMACOPHORE_FEATURES>
4
1 1 hydrophobe
1 2 cation
1 2 donor
6 3 4 5 6 7 8 rings

> <PUBCHEM_HEAVY_ATOM_COUNT>
8

> <PUBCHEM_ATOM_DEF_STEREO_COUNT>
0

> <PUBCHEM_ATOM_UDEF_STEREO_COUNT>
0

> <PUBCHEM_BOND_DEF_STEREO_COUNT>
0

> <PUBCHEM_BOND_UDEF_STEREO_COUNT>
0

> <PUBCHEM_ISOTOPIC_ATOM_COUNT>
0

> <PUBCHEM_COMPONENT_COUNT>
1

> <PUBCHEM_CACTVS_TAUTO_COUNT>
1

> <PUBCHEM_CONFORMER_ID>
00002FEF00000001

> <PUBCHEM_MMFF94_ENERGY>
27.6247

> <PUBCHEM_FEATURE_SELFOVERLAP>
20.297

> <PUBCHEM_SHAPE_FINGERPRINT>
10857977 72 18341317938626032762
12716758 59 17980483365107518030
14128692 85 18408892853706107926
16714656 1 18266461997142767900
16945 1 18266740169178988036
20871998 184 18201718410203290382
21040471 1 17906171741888296800
23552423 10 18259990374928580086
241688 4 18409166610294531816
2748010 2 18410566322977501828
29004967 10 18119530087777928529
369184 2 18266173938150030066

> <PUBCHEM_SHAPE_MULTIPOLES>
171.59
3.63
1.73
0.65
2.83
0.26
0
-1.35
0
-0.73
0
0.14
0
0

> <PUBCHEM_SHAPE_SELFOVERLAP>
332.415

> <PUBCHEM_SHAPE_VOLUME>
107.2

> <PUBCHEM_COORDINATE_TYPE>
2
5
10

$$$$
