15396
  -OEChem-11012400463D

 22 22  0     0  0  0  0  0  0999 V2000
   -1.0938    3.2714    0.0004 O   0  5  0  0  0  0  0  0  0  0  0  0
    1.1014    3.2687    0.0005 O   0  0  0  0  0  0  0  0  0  0  0  0
    2.3686   -2.8437    0.0013 O   0  5  0  0  0  0  0  0  0  0  0  0
   -2.3741   -2.8391   -0.0006 O   0  5  0  0  0  0  0  0  0  0  0  0
    3.5099   -0.9684   -0.0002 O   0  0  0  0  0  0  0  0  0  0  0  0
   -3.5123   -0.9620    0.0004 O   0  0  0  0  0  0  0  0  0  0  0  0
    0.0030    2.6694    0.0001 N   0  3  0  0  0  0  0  0  0  0  0  0
   -2.4357    1.2525    0.0002 N   0  0  0  0  0  0  0  0  0  0  0  0
    2.4383    1.2474   -0.0009 N   0  0  0  0  0  0  0  0  0  0  0  0
    2.4228   -1.5917    0.0004 N   0  3  0  0  0  0  0  0  0  0  0  0
   -2.4262   -1.5870   -0.0001 N   0  3  0  0  0  0  0  0  0  0  0  0
    0.0013    1.2420   -0.0002 C   0  0  0  0  0  0  0  0  0  0  0  0
   -1.2075    0.5458    0.0000 C   0  0  0  0  0  0  0  0  0  0  0  0
    1.2086    0.5432   -0.0004 C   0  0  0  0  0  0  0  0  0  0  0  0
    1.2069   -0.8517   -0.0005 C   0  0  0  0  0  0  0  0  0  0  0  0
   -1.2091   -0.8491    0.0000 C   0  0  0  0  0  0  0  0  0  0  0  0
   -0.0019   -1.5478   -0.0003 C   0  0  0  0  0  0  0  0  0  0  0  0
   -0.0030   -2.6352   -0.0003 H   0  0  0  0  0  0  0  0  0  0  0  0
   -2.4697    2.2598   -0.0010 H   0  0  0  0  0  0  0  0  0  0  0  0
   -3.3195    0.7666    0.0001 H   0  0  0  0  0  0  0  0  0  0  0  0
    3.3211    0.7598   -0.0006 H   0  0  0  0  0  0  0  0  0  0  0  0
    2.4745    2.2546   -0.0001 H   0  0  0  0  0  0  0  0  0  0  0  0
  1  7  1  0  0  0  0
  2  7  2  0  0  0  0
  3 10  1  0  0  0  0
  4 11  1  0  0  0  0
  5 10  2  0  0  0  0
  6 11  2  0  0  0  0
  7 12  1  0  0  0  0
  8 13  1  0  0  0  0
  8 19  1  0  0  0  0
  8 20  1  0  0  0  0
  9 14  1  0  0  0  0
  9 21  1  0  0  0  0
  9 22  1  0  0  0  0
 10 15  1  0  0  0  0
 11 16  1  0  0  0  0
 12 13  2  0  0  0  0
 12 14  1  0  0  0  0
 13 16  1  0  0  0  0
 14 15  2  0  0  0  0
 15 17  1  0  0  0  0
 16 17  2  0  0  0  0
 17 18  1  0  0  0  0
M  CHG  6   1  -1   3  -1   4  -1   7   1  10   1  11   1
M  END
> <PUBCHEM_COMPOUND_CID>
15396

> <PUBCHEM_CONFORMER_RMSD>
0.6

> <PUBCHEM_CONFORMER_DIVERSEORDER>
1

> <PUBCHEM_MMFF94_PARTIAL_CHARGES>
22
1 -0.52
10 0.91
11 0.91
12 0.13
13 0.1
14 0.1
15 0.13
16 0.13
17 -0.15
18 0.15
19 0.4
2 -0.52
20 0.4
21 0.4
22 0.4
3 -0.52
4 -0.52
5 -0.52
6 -0.52
7 0.91
8 -0.9
9 -0.9

> <PUBCHEM_EFFECTIVE_ROTOR_COUNT>
3

> <PUBCHEM_PHARMACOPHORE_FEATURES>
14
1 1 acceptor
1 1 anion
1 2 acceptor
1 3 acceptor
1 3 anion
1 4 acceptor
1 4 anion
1 5 acceptor
1 6 acceptor
1 8 cation
1 8 donor
1 9 cation
1 9 donor
6 12 13 14 15 16 17 rings

> <PUBCHEM_HEAVY_ATOM_COUNT>
17

> <PUBCHEM_ATOM_DEF_STEREO_COUNT>
0

> <PUBCHEM_ATOM_UDEF_STEREO_COUNT>
0

> <PUBCHEM_BOND_DEF_STEREO_COUNT>
0

> <PUBCHEM_BOND_UDEF_STEREO_COUNT>
0

> <PUBCHEM_ISOTOPIC_ATOM_COUNT>
0

> <PUBCHEM_COMPONENT_COUNT>
1

> <PUBCHEM_CACTVS_TAUTO_COUNT>
1

> <PUBCHEM_CONFORMER_ID>
00003C2400000001

> <PUBCHEM_MMFF94_ENERGY>
103.535

> <PUBCHEM_FEATURE_SELFOVERLAP>
71.293

> <PUBCHEM_SHAPE_FINGERPRINT>
1 1 17689716784649392631
10967382 1 17690280829782498982
12553582 1 18410859858175361487
13140716 1 18410856516700699058
13380535 76 17039510189785520033
14790565 3 17832443246817463597
15042514 8 17904486203421626507
15442244 35 18412549829654462467
16945 1 18410575093253084965
193761 8 18410855464423577316
19591789 44 17184476953991196398
20510252 161 17766835031489122216
20645476 183 17397014274085915126
20645477 70 17903906009697127791
20871998 184 18129095624027957599
21501502 16 18410859858179986630
2334 1 18410855494488023598
23402539 116 17981590594685796383
23552423 10 18123471854344061927
23557571 272 18128826248717963766
241688 4 18410292480109982817
257057 1 18410846659740490606
2748010 2 18411975862497990654
352729 6 17689998929535486727
54173680 148 18193840340465050483
7364860 26 18195246856449836715
81228 2 18266455404056764979

> <PUBCHEM_SHAPE_MULTIPOLES>
289.73
4.18
3.8
0.55
0.01
1.85
0
-2.66
0
-0.01
0
0
-0.01
0

> <PUBCHEM_SHAPE_SELFOVERLAP>
626.014

> <PUBCHEM_SHAPE_VOLUME>
158.3

> <PUBCHEM_COORDINATE_TYPE>
2
5
10

$$$$
