21122389
  -OEChem-11012400333D

 40 39  0     0  0  0  0  0  0999 V2000
   -0.5670    0.1357   -0.2541 N   0  0  0  0  0  0  0  0  0  0  0  0
   -1.6606    0.5363    0.1836 N   0  0  0  0  0  0  0  0  0  0  0  0
    2.5842   -0.5759   -0.0828 C   0  0  0  0  0  0  0  0  0  0  0  0
    1.8123    0.6384   -0.6876 C   0  0  0  0  0  0  0  0  0  0  0  0
    0.4834    1.1499   -0.0742 C   0  0  0  0  0  0  0  0  0  0  0  0
    3.4343   -1.3256   -1.1176 C   0  0  0  0  0  0  0  0  0  0  0  0
    3.5406   -0.0169    0.9988 C   0  0  0  0  0  0  0  0  0  0  0  0
    1.6399   -1.5661    0.6227 C   0  0  0  0  0  0  0  0  0  0  0  0
    0.0291    2.3979   -0.8524 C   0  0  0  0  0  0  0  0  0  0  0  0
    0.5520    1.4953    1.4109 C   0  0  0  0  0  0  0  0  0  0  0  0
   -2.7040   -0.4720    0.0054 C   0  0  0  0  0  0  0  0  0  0  0  0
   -2.2916   -1.7325    0.7651 C   0  0  0  0  0  0  0  0  0  0  0  0
   -4.0056    0.0952    0.5711 C   0  0  0  0  0  0  0  0  0  0  0  0
   -2.8470   -0.7598   -1.4888 C   0  0  0  0  0  0  0  0  0  0  0  0
    1.5813    0.3674   -1.7293 H   0  0  0  0  0  0  0  0  0  0  0  0
    2.5096    1.4842   -0.7715 H   0  0  0  0  0  0  0  0  0  0  0  0
    2.8006   -1.7713   -1.8922 H   0  0  0  0  0  0  0  0  0  0  0  0
    4.0148   -2.1324   -0.6566 H   0  0  0  0  0  0  0  0  0  0  0  0
    4.1376   -0.6469   -1.6128 H   0  0  0  0  0  0  0  0  0  0  0  0
    3.0082    0.4684    1.8202 H   0  0  0  0  0  0  0  0  0  0  0  0
    4.2395    0.7120    0.5728 H   0  0  0  0  0  0  0  0  0  0  0  0
    4.1412   -0.8213    1.4405 H   0  0  0  0  0  0  0  0  0  0  0  0
    1.1098   -1.1682    1.4840 H   0  0  0  0  0  0  0  0  0  0  0  0
    2.2129   -2.4222    1.0025 H   0  0  0  0  0  0  0  0  0  0  0  0
    0.9153   -1.9790   -0.0862 H   0  0  0  0  0  0  0  0  0  0  0  0
   -0.1527    2.1607   -1.9074 H   0  0  0  0  0  0  0  0  0  0  0  0
   -0.8936    2.8366   -0.4552 H   0  0  0  0  0  0  0  0  0  0  0  0
    0.7959    3.1804   -0.8136 H   0  0  0  0  0  0  0  0  0  0  0  0
    0.6276    0.6351    2.0751 H   0  0  0  0  0  0  0  0  0  0  0  0
   -0.3366    2.0477    1.7427 H   0  0  0  0  0  0  0  0  0  0  0  0
    1.4060    2.1530    1.6095 H   0  0  0  0  0  0  0  0  0  0  0  0
   -1.4152   -2.2191    0.3250 H   0  0  0  0  0  0  0  0  0  0  0  0
   -2.0536   -1.5063    1.8110 H   0  0  0  0  0  0  0  0  0  0  0  0
   -3.1013   -2.4712    0.7598 H   0  0  0  0  0  0  0  0  0  0  0  0
   -4.2891    1.0207    0.0566 H   0  0  0  0  0  0  0  0  0  0  0  0
   -3.9014    0.3356    1.6354 H   0  0  0  0  0  0  0  0  0  0  0  0
   -4.8308   -0.6171    0.4646 H   0  0  0  0  0  0  0  0  0  0  0  0
   -3.0447    0.1599   -2.0517 H   0  0  0  0  0  0  0  0  0  0  0  0
   -1.9472   -1.2173   -1.9158 H   0  0  0  0  0  0  0  0  0  0  0  0
   -3.6782   -1.4497   -1.6744 H   0  0  0  0  0  0  0  0  0  0  0  0
  1  2  2  0  0  0  0
  1  5  1  0  0  0  0
  2 11  1  0  0  0  0
  3  4  1  0  0  0  0
  3  6  1  0  0  0  0
  3  7  1  0  0  0  0
  3  8  1  0  0  0  0
  4  5  1  0  0  0  0
  4 15  1  0  0  0  0
  4 16  1  0  0  0  0
  5  9  1  0  0  0  0
  5 10  1  0  0  0  0
  6 17  1  0  0  0  0
  6 18  1  0  0  0  0
  6 19  1  0  0  0  0
  7 20  1  0  0  0  0
  7 21  1  0  0  0  0
  7 22  1  0  0  0  0
  8 23  1  0  0  0  0
  8 24  1  0  0  0  0
  8 25  1  0  0  0  0
  9 26  1  0  0  0  0
  9 27  1  0  0  0  0
  9 28  1  0  0  0  0
 10 29  1  0  0  0  0
 10 30  1  0  0  0  0
 10 31  1  0  0  0  0
 11 12  1  0  0  0  0
 11 13  1  0  0  0  0
 11 14  1  0  0  0  0
 12 32  1  0  0  0  0
 12 33  1  0  0  0  0
 12 34  1  0  0  0  0
 13 35  1  0  0  0  0
 13 36  1  0  0  0  0
 13 37  1  0  0  0  0
 14 38  1  0  0  0  0
 14 39  1  0  0  0  0
 14 40  1  0  0  0  0
M  END
> <PUBCHEM_COMPOUND_CID>
21122389

> <PUBCHEM_CONFORMER_RMSD>
0.6

> <PUBCHEM_CONFORMER_DIVERSEORDER>
1
11
20
9
14
2
6
10
13
15
8
4
19
12
16
5
18
17
7
3

> <PUBCHEM_MMFF94_PARTIAL_CHARGES>
4
1 -0.25
11 0.25
2 -0.25
5 0.25

> <PUBCHEM_EFFECTIVE_ROTOR_COUNT>
4

> <PUBCHEM_PHARMACOPHORE_FEATURES>
3
3 5 9 10 hydrophobe
4 11 12 13 14 hydrophobe
4 3 6 7 8 hydrophobe

> <PUBCHEM_HEAVY_ATOM_COUNT>
14

> <PUBCHEM_ATOM_DEF_STEREO_COUNT>
0

> <PUBCHEM_ATOM_UDEF_STEREO_COUNT>
0

> <PUBCHEM_BOND_DEF_STEREO_COUNT>
0

> <PUBCHEM_BOND_UDEF_STEREO_COUNT>
0

> <PUBCHEM_ISOTOPIC_ATOM_COUNT>
0

> <PUBCHEM_COMPONENT_COUNT>
1

> <PUBCHEM_CACTVS_TAUTO_COUNT>
1

> <PUBCHEM_CONFORMER_ID>
01424D5500000001

> <PUBCHEM_MMFF94_ENERGY>
46.3488

> <PUBCHEM_FEATURE_SELFOVERLAP>
15.223

> <PUBCHEM_SHAPE_FINGERPRINT>
10130415 120 18410296912785406785
10618630 7 18410577253806290206
11132069 177 18201147793722598410
12553582 1 18333733489789468962
12932764 1 17558560342303839561
13296908 3 18273213067151255406
13705890 14 16153426147283221184
14115302 16 18186814590281476319
14252887 29 18271814522741847522
14648413 74 17898296249594820881
15375358 24 18337660979699317634
15375462 189 18341890779483091274
15501101 241 18130498717182583392
16945 1 18187364294497552414
18186145 218 17458068178911628588
18511873 20 18343591728804135697
19766037 51 18340223907229028334
20201158 50 18260827098550191058
20281407 28 18411138017536896824
20339313 130 18334304196659711141
20361792 2 18409446990091375349
20645477 70 18339356482891379727
20653085 51 12035737474584638012
20671657 53 18113903732444658300
20711985 344 18192992617110798492
20871998 22 18412266103814227772
21028194 46 8502371139652935404
21524375 3 16235621526234979413
22721475 48 18409166627474277275
232386 152 18131078146703778573
23402539 116 18187641376229192918
23552423 10 18119251907336552341
23557571 272 18337384942753019156
23598291 2 18341620364495463485
2748010 2 18044659934263919986
449060 23 18272094859631313734
5902787 121 18114179799783366618
7364860 26 18194687200705189601
74978 22 18261954171531276757
81228 2 18264770948069890072

> <PUBCHEM_SHAPE_MULTIPOLES>
278.15
6.27
1.96
1.27
1.41
0.55
0.07
-2.67
0
-0.29
0.08
-0.09
0.01
0.25

> <PUBCHEM_SHAPE_SELFOVERLAP>
525.848

> <PUBCHEM_SHAPE_VOLUME>
176.4

> <PUBCHEM_COORDINATE_TYPE>
2
5
10

$$$$
