144788
  -OEChem-11012400453D

 31 30  0     0  0  0  0  0  0999 V2000
   -0.0423   -0.5229    0.0900 N   0  0  0  0  0  0  0  0  0  0  0  0
   -0.0001    0.5824   -0.6945 N   0  0  0  0  0  0  0  0  0  0  0  0
   -1.2619   -1.3228   -0.0691 C   0  0  0  0  0  0  0  0  0  0  0  0
    1.1210   -1.4005   -0.0670 C   0  0  0  0  0  0  0  0  0  0  0  0
   -2.4981   -0.4410    0.0883 C   0  0  0  0  0  0  0  0  0  0  0  0
    2.4124   -0.6021    0.0923 C   0  0  0  0  0  0  0  0  0  0  0  0
   -3.7777   -1.2512   -0.0511 C   0  0  0  0  0  0  0  0  0  0  0  0
    3.6362   -1.4869   -0.0877 C   0  0  0  0  0  0  0  0  0  0  0  0
    0.0940    1.7096   -0.0539 C   0  0  0  0  0  0  0  0  0  0  0  0
    0.1577    3.0758   -0.6994 C   0  0  0  0  0  0  0  0  0  0  0  0
    0.1588    1.6595    1.4522 C   0  0  0  0  0  0  0  0  0  0  0  0
   -1.2838   -1.8030   -1.0562 H   0  0  0  0  0  0  0  0  0  0  0  0
   -1.2888   -2.1149    0.6893 H   0  0  0  0  0  0  0  0  0  0  0  0
    1.0959   -2.1945    0.6895 H   0  0  0  0  0  0  0  0  0  0  0  0
    1.1125   -1.8796   -1.0549 H   0  0  0  0  0  0  0  0  0  0  0  0
   -2.5013    0.0428    1.0715 H   0  0  0  0  0  0  0  0  0  0  0  0
   -2.5211    0.3514   -0.6688 H   0  0  0  0  0  0  0  0  0  0  0  0
    2.4816    0.2100   -0.6401 H   0  0  0  0  0  0  0  0  0  0  0  0
    2.4654   -0.1603    1.0921 H   0  0  0  0  0  0  0  0  0  0  0  0
   -3.8371   -1.7247   -1.0364 H   0  0  0  0  0  0  0  0  0  0  0  0
   -3.8309   -2.0352    0.7111 H   0  0  0  0  0  0  0  0  0  0  0  0
   -4.6519   -0.6034    0.0674 H   0  0  0  0  0  0  0  0  0  0  0  0
    3.6470   -2.2971    0.6484 H   0  0  0  0  0  0  0  0  0  0  0  0
    3.6555   -1.9311   -1.0881 H   0  0  0  0  0  0  0  0  0  0  0  0
    4.5512   -0.9000    0.0407 H   0  0  0  0  0  0  0  0  0  0  0  0
    1.0827    3.5751   -0.3998 H   0  0  0  0  0  0  0  0  0  0  0  0
    0.1370    2.9744   -1.7875 H   0  0  0  0  0  0  0  0  0  0  0  0
   -0.7001    3.6705   -0.3756 H   0  0  0  0  0  0  0  0  0  0  0  0
   -0.5529    0.9676    1.9053 H   0  0  0  0  0  0  0  0  0  0  0  0
   -0.0869    2.6521    1.8462 H   0  0  0  0  0  0  0  0  0  0  0  0
    1.1737    1.4313    1.7819 H   0  0  0  0  0  0  0  0  0  0  0  0
  1  2  1  0  0  0  0
  1  3  1  0  0  0  0
  1  4  1  0  0  0  0
  2  9  2  0  0  0  0
  3  5  1  0  0  0  0
  3 12  1  0  0  0  0
  3 13  1  0  0  0  0
  4  6  1  0  0  0  0
  4 14  1  0  0  0  0
  4 15  1  0  0  0  0
  5  7  1  0  0  0  0
  5 16  1  0  0  0  0
  5 17  1  0  0  0  0
  6  8  1  0  0  0  0
  6 18  1  0  0  0  0
  6 19  1  0  0  0  0
  7 20  1  0  0  0  0
  7 21  1  0  0  0  0
  7 22  1  0  0  0  0
  8 23  1  0  0  0  0
  8 24  1  0  0  0  0
  8 25  1  0  0  0  0
  9 10  1  0  0  0  0
  9 11  1  0  0  0  0
 10 26  1  0  0  0  0
 10 27  1  0  0  0  0
 10 28  1  0  0  0  0
 11 29  1  0  0  0  0
 11 30  1  0  0  0  0
 11 31  1  0  0  0  0
M  END
> <PUBCHEM_COMPOUND_CID>
144788

> <PUBCHEM_CONFORMER_RMSD>
0.6

> <PUBCHEM_CONFORMER_DIVERSEORDER>
1
17
8
18
20
19
12
7
13
15
16
6
9
3
11
14
10
5
2
4

> <PUBCHEM_MMFF94_PARTIAL_CHARGES>
7
1 -0.49
10 0.06
11 0.06
2 -0.5
3 0.27
4 0.27
9 0.33

> <PUBCHEM_EFFECTIVE_ROTOR_COUNT>
5

> <PUBCHEM_PHARMACOPHORE_FEATURES>
3
1 2 acceptor
1 7 hydrophobe
1 8 hydrophobe

> <PUBCHEM_HEAVY_ATOM_COUNT>
11

> <PUBCHEM_ATOM_DEF_STEREO_COUNT>
0

> <PUBCHEM_ATOM_UDEF_STEREO_COUNT>
0

> <PUBCHEM_BOND_DEF_STEREO_COUNT>
0

> <PUBCHEM_BOND_UDEF_STEREO_COUNT>
0

> <PUBCHEM_ISOTOPIC_ATOM_COUNT>
0

> <PUBCHEM_COMPONENT_COUNT>
1

> <PUBCHEM_CACTVS_TAUTO_COUNT>
1

> <PUBCHEM_CONFORMER_ID>
0002359400000001

> <PUBCHEM_MMFF94_ENERGY>
19.3981

> <PUBCHEM_FEATURE_SELFOVERLAP>
15.223

> <PUBCHEM_SHAPE_FINGERPRINT>
1 1 17833834145941971941
10219947 1 18202284718731667527
14648413 74 17972319791818615867
14817 1 17035784142358013984
15490181 8 17399784390183525099
18410436 195 18272088318216546241
20653091 64 18267593570717285059
20671657 1 18124320668841325845
20711985 327 18272657856708140255
20711985 344 18191013500417441688
21040471 1 17259620877152532297
23419403 2 17986645169571290977
23552423 10 17907015428184326303
23595355 12 17977377562227791730
2748010 2 18266436806853881748
305870 269 17766272459387418601
58734987 33 18343021116217614859
58734987 51 18272654515260253931
68521 5 18336548192332885164
7364860 26 18124878116672628555
81228 2 18195544596441434242

> <PUBCHEM_SHAPE_MULTIPOLES>
216.41
4.64
2.85
0.89
0.77
2.67
-0.23
-4.51
0.12
-0.44
0.36
-0.04
0.5
0.02

> <PUBCHEM_SHAPE_SELFOVERLAP>
391.969

> <PUBCHEM_SHAPE_VOLUME>
140.2

> <PUBCHEM_COORDINATE_TYPE>
2
5
10

$$$$
