10789
  -OEChem-11012400513D

 15 15  0     0  0  0  0  0  0999 V2000
   -2.1849   -1.2310   -0.2189 O   0  0  0  0  0  0  0  0  0  0  0  0
   -1.8861    1.4126    0.3330 O   0  0  0  0  0  0  0  0  0  0  0  0
   -0.9119   -0.6926   -0.0609 C   0  0  0  0  0  0  0  0  0  0  0  0
   -0.8564    0.7909    0.0658 C   0  0  0  0  0  0  0  0  0  0  0  0
    0.1188   -1.5452   -0.0243 C   0  0  0  0  0  0  0  0  0  0  0  0
    0.3789    1.5596   -0.2139 C   0  0  0  0  0  0  0  0  0  0  0  0
    1.5156   -1.2996    0.2099 C   0  0  0  0  0  0  0  0  0  0  0  0
    1.6492    1.1479   -0.2156 C   0  0  0  0  0  0  0  0  0  0  0  0
    2.1767   -0.1426    0.1249 C   0  0  0  0  0  0  0  0  0  0  0  0
   -0.0939   -2.6096   -0.1302 H   0  0  0  0  0  0  0  0  0  0  0  0
    0.1974    2.6114   -0.4310 H   0  0  0  0  0  0  0  0  0  0  0  0
    2.0899   -2.1870    0.4717 H   0  0  0  0  0  0  0  0  0  0  0  0
    2.4120    1.8907   -0.4446 H   0  0  0  0  0  0  0  0  0  0  0  0
    3.2469   -0.1561    0.3232 H   0  0  0  0  0  0  0  0  0  0  0  0
   -2.1177   -2.1985   -0.2883 H   0  0  0  0  0  0  0  0  0  0  0  0
  1  3  1  0  0  0  0
  1 15  1  0  0  0  0
  2  4  2  0  0  0  0
  3  4  1  0  0  0  0
  3  5  2  0  0  0  0
  4  6  1  0  0  0  0
  5  7  1  0  0  0  0
  5 10  1  0  0  0  0
  6  8  2  0  0  0  0
  6 11  1  0  0  0  0
  7  9  2  0  0  0  0
  7 12  1  0  0  0  0
  8  9  1  0  0  0  0
  8 13  1  0  0  0  0
  9 14  1  0  0  0  0
M  END
> <PUBCHEM_COMPOUND_CID>
10789

> <PUBCHEM_CONFORMER_RMSD>
0.4

> <PUBCHEM_CONFORMER_DIVERSEORDER>
1

> <PUBCHEM_MMFF94_PARTIAL_CHARGES>
15
1 -0.53
10 0.15
11 0.15
12 0.15
13 0.15
14 0.15
15 0.45
2 -0.57
3 0.09
4 0.54
5 -0.15
6 -0.14
7 -0.15
8 -0.15
9 -0.15

> <PUBCHEM_EFFECTIVE_ROTOR_COUNT>
0

> <PUBCHEM_PHARMACOPHORE_FEATURES>
3
1 1 donor
1 2 acceptor
7 3 4 5 6 7 8 9 rings

> <PUBCHEM_HEAVY_ATOM_COUNT>
9

> <PUBCHEM_ATOM_DEF_STEREO_COUNT>
0

> <PUBCHEM_ATOM_UDEF_STEREO_COUNT>
0

> <PUBCHEM_BOND_DEF_STEREO_COUNT>
0

> <PUBCHEM_BOND_UDEF_STEREO_COUNT>
0

> <PUBCHEM_ISOTOPIC_ATOM_COUNT>
0

> <PUBCHEM_COMPONENT_COUNT>
1

> <PUBCHEM_CACTVS_TAUTO_COUNT>
3

> <PUBCHEM_CONFORMER_ID>
00002A2500000001

> <PUBCHEM_MMFF94_ENERGY>
28.2492

> <PUBCHEM_FEATURE_SELFOVERLAP>
15.223

> <PUBCHEM_SHAPE_FINGERPRINT>
16945 1 18266742570028711782
18185500 45 18409445860630942738
21040471 1 18195529186146209744
23552423 10 18334016098795710478
241688 4 18336261245731382680
2748010 2 18410855434569413230
5084963 1 18202007663365611458
66348 1 18265616661510731622

> <PUBCHEM_SHAPE_MULTIPOLES>
173.48
2.64
1.96
0.63
0.15
0.05
0
-0.1
-0.07
0.14
0.03
-0.03
0.01
-0.25

> <PUBCHEM_SHAPE_SELFOVERLAP>
356.642

> <PUBCHEM_SHAPE_VOLUME>
96.6

> <PUBCHEM_COORDINATE_TYPE>
2
5
10

$$$$
