141040
  -OEChem-11012401003D

 19 20  0     0  0  0  0  0  0999 V2000
    0.3883    0.9095   -0.0007 N   0  0  0  0  0  0  0  0  0  0  0  0
    1.8139   -1.0276    0.0001 N   0  0  0  0  0  0  0  0  0  0  0  0
    2.7310    1.0427   -0.0003 N   0  0  0  0  0  0  0  0  0  0  0  0
    3.1543   -1.0241    0.0007 N   0  0  0  0  0  0  0  0  0  0  0  0
    3.7408    0.1811    0.0001 N   0  0  0  0  0  0  0  0  0  0  0  0
   -0.9356    0.4230    0.0001 C   0  0  0  0  0  0  0  0  0  0  0  0
   -2.0067    1.3164    0.0004 C   0  0  0  0  0  0  0  0  0  0  0  0
   -1.1737   -0.9513   -0.0003 C   0  0  0  0  0  0  0  0  0  0  0  0
    1.6411    0.2658   -0.0003 C   0  0  0  0  0  0  0  0  0  0  0  0
   -3.3161    0.8356    0.0005 C   0  0  0  0  0  0  0  0  0  0  0  0
   -2.4831   -1.4323   -0.0004 C   0  0  0  0  0  0  0  0  0  0  0  0
   -3.5542   -0.5388    0.0000 C   0  0  0  0  0  0  0  0  0  0  0  0
    0.4194    1.9274   -0.0005 H   0  0  0  0  0  0  0  0  0  0  0  0
   -1.8366    2.3900    0.0006 H   0  0  0  0  0  0  0  0  0  0  0  0
   -0.3940   -1.7002   -0.0008 H   0  0  0  0  0  0  0  0  0  0  0  0
   -4.1502    1.5312    0.0008 H   0  0  0  0  0  0  0  0  0  0  0  0
   -2.6699   -2.5023   -0.0008 H   0  0  0  0  0  0  0  0  0  0  0  0
   -4.5737   -0.9132   -0.0001 H   0  0  0  0  0  0  0  0  0  0  0  0
    3.6936   -1.8833    0.0010 H   0  0  0  0  0  0  0  0  0  0  0  0
  1  6  1  0  0  0  0
  1  9  1  0  0  0  0
  1 13  1  0  0  0  0
  2  4  1  0  0  0  0
  2  9  2  0  0  0  0
  3  5  2  0  0  0  0
  3  9  1  0  0  0  0
  4  5  1  0  0  0  0
  4 19  1  0  0  0  0
  6  7  2  0  0  0  0
  6  8  1  0  0  0  0
  7 10  1  0  0  0  0
  7 14  1  0  0  0  0
  8 11  2  0  0  0  0
  8 15  1  0  0  0  0
 10 12  2  0  0  0  0
 10 16  1  0  0  0  0
 11 12  1  0  0  0  0
 11 17  1  0  0  0  0
 12 18  1  0  0  0  0
M  END
> <PUBCHEM_COMPOUND_CID>
141040

> <PUBCHEM_CONFORMER_RMSD>
0.6

> <PUBCHEM_CONFORMER_DIVERSEORDER>
1
4
3
2

> <PUBCHEM_MMFF94_PARTIAL_CHARGES>
19
1 -0.58
10 -0.15
11 -0.15
12 -0.15
13 0.4
14 0.15
15 0.15
16 0.15
17 0.15
18 0.15
19 0.27
2 -0.71
3 -0.23
4 0.57
5 -0.42
6 0.1
7 -0.15
8 -0.15
9 0.6

> <PUBCHEM_EFFECTIVE_ROTOR_COUNT>
2

> <PUBCHEM_PHARMACOPHORE_FEATURES>
4
1 1 donor
4 1 2 3 9 cation
5 2 3 4 5 9 rings
6 6 7 8 10 11 12 rings

> <PUBCHEM_HEAVY_ATOM_COUNT>
12

> <PUBCHEM_ATOM_DEF_STEREO_COUNT>
0

> <PUBCHEM_ATOM_UDEF_STEREO_COUNT>
0

> <PUBCHEM_BOND_DEF_STEREO_COUNT>
0

> <PUBCHEM_BOND_UDEF_STEREO_COUNT>
0

> <PUBCHEM_ISOTOPIC_ATOM_COUNT>
0

> <PUBCHEM_COMPONENT_COUNT>
1

> <PUBCHEM_CACTVS_TAUTO_COUNT>
4

> <PUBCHEM_CONFORMER_ID>
000226F000000001

> <PUBCHEM_MMFF94_ENERGY>
32.4815

> <PUBCHEM_FEATURE_SELFOVERLAP>
20.297

> <PUBCHEM_SHAPE_FINGERPRINT>
10608611 8 18411976970594752416
11062470 55 18411418418687374461
12932764 1 17489580199137861869
13024252 1 15502375626058798873
14144814 61 18410293596864815513
14325111 11 18410575076147120769
15775835 57 18261112937287176611
200 152 17917700319290560637
20201158 50 18342458127440844935
20279233 1 18131072623291420390
20528008 55 18341888610740747925
20645477 70 18341890736560065055
20871998 184 18201442531890817287
23402539 116 18131344203570874957
23463225 33 18408885105300457614
23552423 10 18188208818301583509
23559900 14 18342734084054265992
3312278 4 18411984671613058387
369184 2 18343864424704097905
69090 78 18343014489415490287
7364860 26 18195529417953702596
9709674 26 18411986870505075222

> <PUBCHEM_SHAPE_MULTIPOLES>
222.05
6.55
1.41
0.58
2.69
0.1
0
0.34
0
-0.47
0
-0.1
0
0

> <PUBCHEM_SHAPE_SELFOVERLAP>
475.957

> <PUBCHEM_SHAPE_VOLUME>
121.4

> <PUBCHEM_COORDINATE_TYPE>
2
5
10

$$$$
