144707
  -OEChem-11012400453D

 16 16  0     0  0  0  0  0  0999 V2000
    0.1191    0.3406    0.3403 N   0  0  0  0  0  0  0  0  0  0  0  0
   -0.5518   -0.8011    0.4495 N   0  0  0  0  0  0  0  0  0  0  0  0
   -0.5263    1.3924   -0.1520 N   0  0  0  0  0  0  0  0  0  0  0  0
   -1.7444    0.9266   -0.3993 N   0  0  0  0  0  0  0  0  0  0  0  0
   -2.8514   -1.1300   -0.1718 N   0  0  0  0  0  0  0  0  0  0  0  0
    1.5220    0.4352    0.7417 C   0  0  0  0  0  0  0  0  0  0  0  0
    2.4428    0.1171   -0.3950 C   0  0  0  0  0  0  0  0  0  0  0  0
   -1.7271   -0.3854   -0.0295 C   0  0  0  0  0  0  0  0  0  0  0  0
    3.3172   -0.8952   -0.3840 C   0  0  0  0  0  0  0  0  0  0  0  0
    1.6920    1.4590    1.0926 H   0  0  0  0  0  0  0  0  0  0  0  0
    1.6591   -0.2394    1.5945 H   0  0  0  0  0  0  0  0  0  0  0  0
    2.4018    0.7590   -1.2714 H   0  0  0  0  0  0  0  0  0  0  0  0
   -3.7124   -0.7441   -0.5462 H   0  0  0  0  0  0  0  0  0  0  0  0
   -2.8878   -2.1104    0.0883 H   0  0  0  0  0  0  0  0  0  0  0  0
    3.9639   -1.0718   -1.2365 H   0  0  0  0  0  0  0  0  0  0  0  0
    3.4031   -1.5612    0.4674 H   0  0  0  0  0  0  0  0  0  0  0  0
  1  2  1  0  0  0  0
  1  3  1  0  0  0  0
  1  6  1  0  0  0  0
  2  8  2  0  0  0  0
  3  4  2  0  0  0  0
  4  8  1  0  0  0  0
  5  8  1  0  0  0  0
  5 13  1  0  0  0  0
  5 14  1  0  0  0  0
  6  7  1  0  0  0  0
  6 10  1  0  0  0  0
  6 11  1  0  0  0  0
  7  9  2  0  0  0  0
  7 12  1  0  0  0  0
  9 15  1  0  0  0  0
  9 16  1  0  0  0  0
M  END
> <PUBCHEM_COMPOUND_CID>
144707

> <PUBCHEM_CONFORMER_RMSD>
0.4

> <PUBCHEM_CONFORMER_DIVERSEORDER>
3
9
8
11
12
13
4
5
14
7
2
6
10
1

> <PUBCHEM_MMFF94_PARTIAL_CHARGES>
14
1 0.58
12 0.15
13 0.4
14 0.4
15 0.15
16 0.15
2 -0.71
3 -0.42
4 -0.23
5 -0.88
6 0.39
7 -0.29
8 0.6
9 -0.3

> <PUBCHEM_EFFECTIVE_ROTOR_COUNT>
2

> <PUBCHEM_PHARMACOPHORE_FEATURES>
4
1 5 donor
1 9 hydrophobe
4 2 4 5 8 cation
5 1 2 3 4 8 rings

> <PUBCHEM_HEAVY_ATOM_COUNT>
9

> <PUBCHEM_ATOM_DEF_STEREO_COUNT>
0

> <PUBCHEM_ATOM_UDEF_STEREO_COUNT>
0

> <PUBCHEM_BOND_DEF_STEREO_COUNT>
0

> <PUBCHEM_BOND_UDEF_STEREO_COUNT>
0

> <PUBCHEM_ISOTOPIC_ATOM_COUNT>
0

> <PUBCHEM_COMPONENT_COUNT>
1

> <PUBCHEM_CACTVS_TAUTO_COUNT>
2

> <PUBCHEM_CONFORMER_ID>
0002354300000003

> <PUBCHEM_MMFF94_ENERGY>
5.2812

> <PUBCHEM_FEATURE_SELFOVERLAP>
20.297

> <PUBCHEM_SHAPE_FINGERPRINT>
12897270 3 18259704506042154502
14390081 3 11169908390107028918
15310529 11 18343021107854468516
16714656 1 18334576840988138065
20201158 50 18202004283416429134
20653085 51 13913143649037220303
21040471 1 17974833000400803777
21293036 1 17530965833992572486
23552423 10 18187365402615088506
29004967 10 16988843869559990072
369184 2 11239997824013561036

> <PUBCHEM_SHAPE_MULTIPOLES>
160.31
4.54
1.18
0.73
1.76
0.06
0.04
-1.71
-0.78
-0.35
-0.07
0.18
0.03
0.23

> <PUBCHEM_SHAPE_SELFOVERLAP>
318.389

> <PUBCHEM_SHAPE_VOLUME>
94.1

> <PUBCHEM_COORDINATE_TYPE>
2
5
10

$$$$
