73074
  -OEChem-11012401163D

 83 88  0     1  0  0  0  0  0999 V2000
   -3.3770   -4.2179   -0.6989 O   0  0  0  0  0  0  0  0  0  0  0  0
   -5.0195   -2.5348    0.7700 O   0  0  0  0  0  0  0  0  0  0  0  0
   -3.7223   -0.9302    1.8088 O   0  0  0  0  0  0  0  0  0  0  0  0
   -6.2046    1.3329   -1.1478 O   0  0  0  0  0  0  0  0  0  0  0  0
   -6.0280    3.0745    0.3551 O   0  0  0  0  0  0  0  0  0  0  0  0
   -0.5605    1.1175    0.0263 N   0  0  0  0  0  0  0  0  0  0  0  0
    0.4955   -1.6858   -0.1788 N   0  0  0  0  0  0  0  0  0  0  0  0
    2.2959    1.8291    0.1782 N   0  0  0  0  0  0  0  0  0  0  0  0
    3.1146   -0.9396   -0.1254 N   0  0  0  0  0  0  0  0  0  0  0  0
   -2.8526    1.5156   -0.0983 C   0  0  2  0  0  0  0  0  0  0  0  0
   -2.1240    2.7834    0.4596 C   0  0  2  0  0  0  0  0  0  0  0  0
   -1.7557    0.4630   -0.1160 C   0  0  0  0  0  0  0  0  0  0  0  0
   -1.9346   -0.8584   -0.2340 C   0  0  0  0  0  0  0  0  0  0  0  0
   -3.3931    1.7751   -1.5062 C   0  0  0  0  0  0  0  0  0  0  0  0
   -0.6448    2.4510    0.2934 C   0  0  0  0  0  0  0  0  0  0  0  0
   -3.1475   -1.7399   -0.3835 C   0  0  1  0  0  0  0  0  0  0  0  0
   -2.4754    3.0130    1.9314 C   0  0  0  0  0  0  0  0  0  0  0  0
   -0.7876   -1.7772   -0.2589 C   0  0  0  0  0  0  0  0  0  0  0  0
   -1.2438   -3.1509   -0.4284 C   0  0  0  0  0  0  0  0  0  0  0  0
   -2.5729   -3.1318   -0.5053 C   0  0  0  0  0  0  0  0  0  0  0  0
   -4.4620    2.8598   -1.4934 C   0  0  0  0  0  0  0  0  0  0  0  0
    0.3363    3.3578    0.4111 C   0  0  0  0  0  0  0  0  0  0  0  0
   -0.0495   -3.9242   -0.4472 C   0  0  0  0  0  0  0  0  0  0  0  0
   -3.9727   -1.6663    0.8640 C   0  0  0  0  0  0  0  0  0  0  0  0
    0.9404   -3.0070   -0.2991 C   0  0  0  0  0  0  0  0  0  0  0  0
    1.7768    3.0194    0.2717 C   0  0  0  0  0  0  0  0  0  0  0  0
   -5.6431    2.4681   -0.6352 C   0  0  0  0  0  0  0  0  0  0  0  0
   -0.0331   -5.3971   -0.6057 C   0  0  0  0  0  0  0  0  0  0  0  0
    2.3705   -3.2424   -0.2490 C   0  0  0  0  0  0  0  0  0  0  0  0
    2.7620    4.1230    0.2541 C   0  0  0  0  0  0  0  0  0  0  0  0
    3.9259    3.4598    0.1388 C   0  0  0  0  0  0  0  0  0  0  0  0
    3.3295   -2.3005   -0.1669 C   0  0  0  0  0  0  0  0  0  0  0  0
    3.6566    2.0218    0.0915 C   0  0  0  0  0  0  0  0  0  0  0  0
    4.7645   -2.5283   -0.1160 C   0  0  0  0  0  0  0  0  0  0  0  0
    2.4402    5.5694    0.3358 C   0  0  0  0  0  0  0  0  0  0  0  0
    4.2915   -0.3928   -0.0583 C   0  0  0  0  0  0  0  0  0  0  0  0
    5.4143   -1.3567   -0.0473 C   0  0  0  0  0  0  0  0  0  0  0  0
    4.5905    1.0611   -0.0105 C   0  0  0  0  0  0  0  0  0  0  0  0
   -5.8948   -2.5675    1.9018 C   0  0  0  0  0  0  0  0  0  0  0  0
    5.3614   -3.8955   -0.1396 C   0  0  0  0  0  0  0  0  0  0  0  0
    5.2097    4.1145    0.0750 C   0  0  0  0  0  0  0  0  0  0  0  0
   -7.3437    0.8347   -0.4387 C   0  0  0  0  0  0  0  0  0  0  0  0
    6.8564   -1.0310    0.0297 C   0  0  0  0  0  0  0  0  0  0  0  0
    5.5299   -4.4658    1.2581 C   0  0  0  0  0  0  0  0  0  0  0  0
    5.7805    4.4974   -1.0660 C   0  0  0  0  0  0  0  0  0  0  0  0
   -3.6655    1.2178    0.5700 H   0  0  0  0  0  0  0  0  0  0  0  0
   -2.3494    3.6938   -0.1017 H   0  0  0  0  0  0  0  0  0  0  0  0
   -2.5839    2.0860   -2.1798 H   0  0  0  0  0  0  0  0  0  0  0  0
   -3.8049    0.8510   -1.9283 H   0  0  0  0  0  0  0  0  0  0  0  0
    0.3267    0.6385   -0.0330 H   0  0  0  0  0  0  0  0  0  0  0  0
   -3.7368   -1.4609   -1.2615 H   0  0  0  0  0  0  0  0  0  0  0  0
   -3.5472    3.2082    2.0428 H   0  0  0  0  0  0  0  0  0  0  0  0
   -2.2245    2.1440    2.5502 H   0  0  0  0  0  0  0  0  0  0  0  0
   -1.9371    3.8775    2.3348 H   0  0  0  0  0  0  0  0  0  0  0  0
   -4.8342    3.0270   -2.5116 H   0  0  0  0  0  0  0  0  0  0  0  0
   -4.0930    3.8302   -1.1529 H   0  0  0  0  0  0  0  0  0  0  0  0
    0.0756    4.3889    0.6255 H   0  0  0  0  0  0  0  0  0  0  0  0
   -0.5038   -5.6865   -1.5511 H   0  0  0  0  0  0  0  0  0  0  0  0
   -0.5818   -5.8769    0.2115 H   0  0  0  0  0  0  0  0  0  0  0  0
    0.9822   -5.8031   -0.6052 H   0  0  0  0  0  0  0  0  0  0  0  0
   -4.2925   -3.8959   -0.7639 H   0  0  0  0  0  0  0  0  0  0  0  0
    2.6573   -4.2897   -0.2788 H   0  0  0  0  0  0  0  0  0  0  0  0
    1.7801    5.8647   -0.4858 H   0  0  0  0  0  0  0  0  0  0  0  0
    3.3380    6.1919    0.2743 H   0  0  0  0  0  0  0  0  0  0  0  0
    1.9465    5.8014    1.2847 H   0  0  0  0  0  0  0  0  0  0  0  0
    5.6382    1.3403   -0.0646 H   0  0  0  0  0  0  0  0  0  0  0  0
   -6.3426   -1.5824    2.0639 H   0  0  0  0  0  0  0  0  0  0  0  0
   -6.6923   -3.2856    1.6939 H   0  0  0  0  0  0  0  0  0  0  0  0
   -5.3492   -2.8956    2.7916 H   0  0  0  0  0  0  0  0  0  0  0  0
    4.7804   -4.5818   -0.7648 H   0  0  0  0  0  0  0  0  0  0  0  0
    6.3493   -3.8556   -0.6154 H   0  0  0  0  0  0  0  0  0  0  0  0
    5.7172    4.2896    1.0190 H   0  0  0  0  0  0  0  0  0  0  0  0
   -7.0735    0.5995    0.5952 H   0  0  0  0  0  0  0  0  0  0  0  0
   -8.1573    1.5655   -0.4700 H   0  0  0  0  0  0  0  0  0  0  0  0
   -7.6755   -0.0834   -0.9309 H   0  0  0  0  0  0  0  0  0  0  0  0
    7.0713   -0.4436    0.9279 H   0  0  0  0  0  0  0  0  0  0  0  0
    7.4766   -1.9310    0.0738 H   0  0  0  0  0  0  0  0  0  0  0  0
    7.1689   -0.4563   -0.8477 H   0  0  0  0  0  0  0  0  0  0  0  0
    4.5650   -4.5734    1.7648 H   0  0  0  0  0  0  0  0  0  0  0  0
    5.9941   -5.4561    1.2075 H   0  0  0  0  0  0  0  0  0  0  0  0
    6.1699   -3.8269    1.8760 H   0  0  0  0  0  0  0  0  0  0  0  0
    5.3047    4.3375   -2.0280 H   0  0  0  0  0  0  0  0  0  0  0  0
    6.7495    4.9849   -1.0572 H   0  0  0  0  0  0  0  0  0  0  0  0
  1 20  1  0  0  0  0
  1 61  1  0  0  0  0
  2 24  1  0  0  0  0
  2 39  1  0  0  0  0
  3 24  2  0  0  0  0
  4 27  1  0  0  0  0
  4 42  1  0  0  0  0
  5 27  2  0  0  0  0
  6 12  1  0  0  0  0
  6 15  1  0  0  0  0
  6 50  1  0  0  0  0
  7 18  2  0  0  0  0
  7 25  1  0  0  0  0
  8 26  2  0  0  0  0
  8 33  1  0  0  0  0
  9 32  1  0  0  0  0
  9 36  2  0  0  0  0
 10 11  1  0  0  0  0
 10 12  1  0  0  0  0
 10 14  1  0  0  0  0
 10 46  1  0  0  0  0
 11 15  1  0  0  0  0
 11 17  1  0  0  0  0
 11 47  1  0  0  0  0
 12 13  2  0  0  0  0
 13 16  1  0  0  0  0
 13 18  1  0  0  0  0
 14 21  1  0  0  0  0
 14 48  1  0  0  0  0
 14 49  1  0  0  0  0
 15 22  2  0  0  0  0
 16 20  1  0  0  0  0
 16 24  1  0  0  0  0
 16 51  1  0  0  0  0
 17 52  1  0  0  0  0
 17 53  1  0  0  0  0
 17 54  1  0  0  0  0
 18 19  1  0  0  0  0
 19 20  2  0  0  0  0
 19 23  1  0  0  0  0
 21 27  1  0  0  0  0
 21 55  1  0  0  0  0
 21 56  1  0  0  0  0
 22 26  1  0  0  0  0
 22 57  1  0  0  0  0
 23 25  2  0  0  0  0
 23 28  1  0  0  0  0
 25 29  1  0  0  0  0
 26 30  1  0  0  0  0
 28 58  1  0  0  0  0
 28 59  1  0  0  0  0
 28 60  1  0  0  0  0
 29 32  2  0  0  0  0
 29 62  1  0  0  0  0
 30 31  2  0  0  0  0
 30 35  1  0  0  0  0
 31 33  1  0  0  0  0
 31 41  1  0  0  0  0
 32 34  1  0  0  0  0
 33 38  2  0  0  0  0
 34 37  2  0  0  0  0
 34 40  1  0  0  0  0
 35 63  1  0  0  0  0
 35 64  1  0  0  0  0
 35 65  1  0  0  0  0
 36 37  1  0  0  0  0
 36 38  1  0  0  0  0
 37 43  1  0  0  0  0
 38 66  1  0  0  0  0
 39 67  1  0  0  0  0
 39 68  1  0  0  0  0
 39 69  1  0  0  0  0
 40 44  1  0  0  0  0
 40 70  1  0  0  0  0
 40 71  1  0  0  0  0
 41 45  2  0  0  0  0
 41 72  1  0  0  0  0
 42 73  1  0  0  0  0
 42 74  1  0  0  0  0
 42 75  1  0  0  0  0
 43 76  1  0  0  0  0
 43 77  1  0  0  0  0
 43 78  1  0  0  0  0
 44 79  1  0  0  0  0
 44 80  1  0  0  0  0
 44 81  1  0  0  0  0
 45 82  1  0  0  0  0
 45 83  1  0  0  0  0
M  END
> <PUBCHEM_COMPOUND_CID>
73074

> <PUBCHEM_CONFORMER_RMSD>
1

> <PUBCHEM_CONFORMER_DIVERSEORDER>
1
13
17
10
3
12
11
9
16
4
7
2
15
14
6
8
5

> <PUBCHEM_MMFF94_PARTIAL_CHARGES>
49
1 -0.53
10 0.14
11 0.14
12 -0.04
13 -0.12
15 -0.04
16 0.34
18 0.42
19 0.01
2 -0.43
20 -0.06
21 0.06
22 -0.14
23 -0.14
24 0.66
25 0.17
26 0.42
27 0.66
28 0.14
29 -0.15
3 -0.57
30 -0.12
32 0.17
33 0.17
34 -0.14
35 0.14
36 0.42
37 -0.12
38 -0.14
39 0.28
4 -0.43
40 0.14
41 -0.15
42 0.28
43 0.14
45 -0.3
5 -0.57
50 0.4
57 0.15
6 -0.6
61 0.45
62 0.15
66 0.15
7 -0.62
72 0.15
8 -0.62
82 0.15
83 0.15
9 -0.62

> <PUBCHEM_EFFECTIVE_ROTOR_COUNT>
8.6

> <PUBCHEM_PHARMACOPHORE_FEATURES>
15
1 1 donor
1 3 acceptor
1 44 hydrophobe
1 45 hydrophobe
1 5 acceptor
1 6 cation
1 6 donor
1 7 acceptor
1 8 acceptor
1 9 acceptor
5 13 16 18 19 20 rings
5 6 10 11 12 15 rings
5 7 18 19 23 25 rings
5 8 26 30 31 33 rings
5 9 32 34 36 37 rings

> <PUBCHEM_HEAVY_ATOM_COUNT>
45

> <PUBCHEM_ATOM_DEF_STEREO_COUNT>
0

> <PUBCHEM_ATOM_UDEF_STEREO_COUNT>
3

> <PUBCHEM_BOND_DEF_STEREO_COUNT>
0

> <PUBCHEM_BOND_UDEF_STEREO_COUNT>
0

> <PUBCHEM_ISOTOPIC_ATOM_COUNT>
0

> <PUBCHEM_COMPONENT_COUNT>
1

> <PUBCHEM_CACTVS_TAUTO_COUNT>
108

> <PUBCHEM_CONFORMER_ID>
00011D7200000001

> <PUBCHEM_MMFF94_ENERGY>
134.6916

> <PUBCHEM_FEATURE_SELFOVERLAP>
76.407

> <PUBCHEM_SHAPE_FINGERPRINT>
10290309 65 18339080518072807884
10439779 11 18340752815946784402
10653451 467 18261962822012337201
1100329 8 18340201899536742812
11135926 11 18122338249561523460
11136131 41 18263069076897011114
11170278 141 17679046991914823971
1361 2 18268145344854734680
14040222 275 17984437243143999014
14394314 77 17909267988461060768
14790565 3 18412263956662928151
15001296 14 18334008376629486056
15219648 46 18040992960096249370
15276724 80 18339079410441088599
15320467 1 17979352294218163676
15351339 4 18267569390183322787
15400415 2 17331116607864421057
15927050 60 18197212757401860166
16067689 134 17766573356481327793
16067689 302 18341048623445971207
17627616 140 18338237175896226252
19301676 85 18193833743627606951
19611394 137 18189911833212676739
20764821 26 18412547591375114404
21133410 127 18043524126417114156
21779490 112 17686919615212746692
21796203 349 17762661350476389856
22311459 1 18195245512024813895
23559900 14 18339351985654731000
3882209 13 17979875481517865654
463206 1 18194125105988096608
5265222 85 17831868219152333548
5776283 40 18120390989241792724
6036956 94 17974851983987590573
9961470 85 18271228496314513928

> <PUBCHEM_SHAPE_MULTIPOLES>
876.81
15.49
8.78
1.12
3.67
0.44
-0.28
2.07
-0.04
-7.39
0.03
1.4
0.1
0.44

> <PUBCHEM_SHAPE_SELFOVERLAP>
1932.455

> <PUBCHEM_SHAPE_VOLUME>
475.9

> <PUBCHEM_COORDINATE_TYPE>
2
5
10

$$$$
