141250
  -OEChem-11012401153D

 23 23  0     0  0  0  0  0  0999 V2000
   -0.9444   -1.2113    0.1142 O   0  0  0  0  0  0  0  0  0  0  0  0
   -1.2936    1.1349    0.2357 O   0  0  0  0  0  0  0  0  0  0  0  0
    0.9701    0.2687    0.2489 C   0  0  0  0  0  0  0  0  0  0  0  0
    0.4149   -1.0511   -0.2920 C   0  0  0  0  0  0  0  0  0  0  0  0
    0.0477    1.4180   -0.1638 C   0  0  0  0  0  0  0  0  0  0  0  0
    2.4011    0.5056   -0.2133 C   0  0  0  0  0  0  0  0  0  0  0  0
   -1.7400   -0.1052   -0.3181 C   0  0  0  0  0  0  0  0  0  0  0  0
    3.3071   -0.6183    0.2299 C   0  0  0  0  0  0  0  0  0  0  0  0
   -3.1630   -0.3414    0.1585 C   0  0  0  0  0  0  0  0  0  0  0  0
    0.9386    0.2103    1.3460 H   0  0  0  0  0  0  0  0  0  0  0  0
    0.4714   -1.0992   -1.3862 H   0  0  0  0  0  0  0  0  0  0  0  0
    0.9590   -1.9106    0.1093 H   0  0  0  0  0  0  0  0  0  0  0  0
    0.3520    2.3497    0.3245 H   0  0  0  0  0  0  0  0  0  0  0  0
    0.0708    1.5880   -1.2471 H   0  0  0  0  0  0  0  0  0  0  0  0
    2.7680    1.4488    0.2090 H   0  0  0  0  0  0  0  0  0  0  0  0
    2.4470    0.6058   -1.3043 H   0  0  0  0  0  0  0  0  0  0  0  0
   -1.7346   -0.0476   -1.4145 H   0  0  0  0  0  0  0  0  0  0  0  0
    3.2083   -0.8187    1.3016 H   0  0  0  0  0  0  0  0  0  0  0  0
    3.1142   -1.5442   -0.3200 H   0  0  0  0  0  0  0  0  0  0  0  0
    4.3516   -0.3493    0.0386 H   0  0  0  0  0  0  0  0  0  0  0  0
   -3.8195    0.4806   -0.1443 H   0  0  0  0  0  0  0  0  0  0  0  0
   -3.5571   -1.2835   -0.2354 H   0  0  0  0  0  0  0  0  0  0  0  0
   -3.1980   -0.4031    1.2522 H   0  0  0  0  0  0  0  0  0  0  0  0
  1  4  1  0  0  0  0
  1  7  1  0  0  0  0
  2  5  1  0  0  0  0
  2  7  1  0  0  0  0
  3  4  1  0  0  0  0
  3  5  1  0  0  0  0
  3  6  1  0  0  0  0
  3 10  1  0  0  0  0
  4 11  1  0  0  0  0
  4 12  1  0  0  0  0
  5 13  1  0  0  0  0
  5 14  1  0  0  0  0
  6  8  1  0  0  0  0
  6 15  1  0  0  0  0
  6 16  1  0  0  0  0
  7  9  1  0  0  0  0
  7 17  1  0  0  0  0
  8 18  1  0  0  0  0
  8 19  1  0  0  0  0
  8 20  1  0  0  0  0
  9 21  1  0  0  0  0
  9 22  1  0  0  0  0
  9 23  1  0  0  0  0
M  END
> <PUBCHEM_COMPOUND_CID>
141250

> <PUBCHEM_CONFORMER_RMSD>
0.4

> <PUBCHEM_CONFORMER_DIVERSEORDER>
2
9
7
4
5
3
6
8
1

> <PUBCHEM_MMFF94_PARTIAL_CHARGES>
5
1 -0.56
2 -0.56
4 0.28
5 0.28
7 0.56

> <PUBCHEM_EFFECTIVE_ROTOR_COUNT>
2.2

> <PUBCHEM_PHARMACOPHORE_FEATURES>
4
1 1 acceptor
1 2 acceptor
1 8 hydrophobe
6 1 2 3 4 5 7 rings

> <PUBCHEM_HEAVY_ATOM_COUNT>
9

> <PUBCHEM_ATOM_DEF_STEREO_COUNT>
0

> <PUBCHEM_ATOM_UDEF_STEREO_COUNT>
0

> <PUBCHEM_BOND_DEF_STEREO_COUNT>
0

> <PUBCHEM_BOND_UDEF_STEREO_COUNT>
0

> <PUBCHEM_ISOTOPIC_ATOM_COUNT>
0

> <PUBCHEM_COMPONENT_COUNT>
1

> <PUBCHEM_CACTVS_TAUTO_COUNT>
1

> <PUBCHEM_CONFORMER_ID>
000227C200000002

> <PUBCHEM_MMFF94_ENERGY>
13.8543

> <PUBCHEM_FEATURE_SELFOVERLAP>
20.333

> <PUBCHEM_SHAPE_FINGERPRINT>
10219947 1 18411984680234673799
10857977 72 18412254060404150560
11062470 55 12967131613867721842
12032990 46 18410018740432993675
14325111 11 18410855451723018924
15310529 11 16588012511612561504
16714656 1 18411418418766508772
193761 8 17690280408975917799
21040471 1 18411699846419490380
23235685 24 18411696595282176101
23402655 69 18196071272114320141
23552423 10 18116995704986216444
2748010 2 18124036723804772047
29004967 10 18335425685539890017
369184 2 15482667966261767822
5084963 1 18113053826856759444

> <PUBCHEM_SHAPE_MULTIPOLES>
173.48
4.47
1.3
0.65
0.61
0.16
-0.01
-0.84
0.32
-0.03
-0.02
0.03
0
-0.07

> <PUBCHEM_SHAPE_SELFOVERLAP>
331.763

> <PUBCHEM_SHAPE_VOLUME>
105.8

> <PUBCHEM_COORDINATE_TYPE>
2
5
10

$$$$
