530289
  -OEChem-11012400513D

 41 40  0     0  0  0  0  0  0999 V2000
    0.0000   -0.0002    0.0002 Si  0  0  0  0  0  0  0  0  0  0  0  0
    1.0813    1.0838   -1.0828 C   0  0  0  0  0  0  0  0  0  0  0  0
   -1.0838    1.0814    1.0829 C   0  0  0  0  0  0  0  0  0  0  0  0
    1.0840   -1.0814    1.0828 C   0  0  0  0  0  0  0  0  0  0  0  0
   -1.0815   -1.0838   -1.0827 C   0  0  0  0  0  0  0  0  0  0  0  0
    2.0241    2.0287   -0.3321 C   0  0  0  0  0  0  0  0  0  0  0  0
   -2.0288    2.0241    0.3321 C   0  0  0  0  0  0  0  0  0  0  0  0
    2.0289   -2.0242    0.3320 C   0  0  0  0  0  0  0  0  0  0  0  0
   -2.0241   -2.0287   -0.3320 C   0  0  0  0  0  0  0  0  0  0  0  0
    2.8907    2.8291   -1.2930 C   0  0  0  0  0  0  0  0  0  0  0  0
   -2.8973    2.8225    1.2928 C   0  0  0  0  0  0  0  0  0  0  0  0
    2.8976   -2.8225    1.2927 C   0  0  0  0  0  0  0  0  0  0  0  0
   -2.8911   -2.8289   -1.2929 C   0  0  0  0  0  0  0  0  0  0  0  0
    0.4314    1.6732   -1.7407 H   0  0  0  0  0  0  0  0  0  0  0  0
    1.6717    0.4319   -1.7376 H   0  0  0  0  0  0  0  0  0  0  0  0
   -0.4353    1.6724    1.7408 H   0  0  0  0  0  0  0  0  0  0  0  0
   -1.6728    0.4282    1.7379 H   0  0  0  0  0  0  0  0  0  0  0  0
    0.4357   -1.6724    1.7409 H   0  0  0  0  0  0  0  0  0  0  0  0
    1.6731   -0.4281    1.7375 H   0  0  0  0  0  0  0  0  0  0  0  0
   -0.4318   -1.6732   -1.7408 H   0  0  0  0  0  0  0  0  0  0  0  0
   -1.6720   -0.4317   -1.7374 H   0  0  0  0  0  0  0  0  0  0  0  0
    1.4497    2.7244    0.2915 H   0  0  0  0  0  0  0  0  0  0  0  0
    2.6786    1.4621    0.3411 H   0  0  0  0  0  0  0  0  0  0  0  0
   -1.4561    2.7211   -0.2916 H   0  0  0  0  0  0  0  0  0  0  0  0
   -2.6819    1.4559   -0.3412 H   0  0  0  0  0  0  0  0  0  0  0  0
    1.4560   -2.7214   -0.2914 H   0  0  0  0  0  0  0  0  0  0  0  0
    2.6818   -1.4561   -0.3416 H   0  0  0  0  0  0  0  0  0  0  0  0
   -1.4497   -2.7247    0.2913 H   0  0  0  0  0  0  0  0  0  0  0  0
   -2.6785   -1.4622    0.3415 H   0  0  0  0  0  0  0  0  0  0  0  0
    3.5543    3.4986   -0.7367 H   0  0  0  0  0  0  0  0  0  0  0  0
    3.5114    2.1674   -1.9055 H   0  0  0  0  0  0  0  0  0  0  0  0
    2.2745    3.4394   -1.9609 H   0  0  0  0  0  0  0  0  0  0  0  0
   -3.5625    3.4904    0.7365 H   0  0  0  0  0  0  0  0  0  0  0  0
   -3.5165    2.1594    1.9053 H   0  0  0  0  0  0  0  0  0  0  0  0
   -2.2825    3.4343    1.9607 H   0  0  0  0  0  0  0  0  0  0  0  0
    3.5627   -3.4904    0.7363 H   0  0  0  0  0  0  0  0  0  0  0  0
    3.5170   -2.1592    1.9050 H   0  0  0  0  0  0  0  0  0  0  0  0
    2.2830   -3.4341    1.9609 H   0  0  0  0  0  0  0  0  0  0  0  0
   -3.5546   -3.4985   -0.7367 H   0  0  0  0  0  0  0  0  0  0  0  0
   -3.5119   -2.1671   -1.9051 H   0  0  0  0  0  0  0  0  0  0  0  0
   -2.2750   -3.4391   -1.9611 H   0  0  0  0  0  0  0  0  0  0  0  0
  1  2  1  0  0  0  0
  1  3  1  0  0  0  0
  1  4  1  0  0  0  0
  1  5  1  0  0  0  0
  2  6  1  0  0  0  0
  2 14  1  0  0  0  0
  2 15  1  0  0  0  0
  3  7  1  0  0  0  0
  3 16  1  0  0  0  0
  3 17  1  0  0  0  0
  4  8  1  0  0  0  0
  4 18  1  0  0  0  0
  4 19  1  0  0  0  0
  5  9  1  0  0  0  0
  5 20  1  0  0  0  0
  5 21  1  0  0  0  0
  6 10  1  0  0  0  0
  6 22  1  0  0  0  0
  6 23  1  0  0  0  0
  7 11  1  0  0  0  0
  7 24  1  0  0  0  0
  7 25  1  0  0  0  0
  8 12  1  0  0  0  0
  8 26  1  0  0  0  0
  8 27  1  0  0  0  0
  9 13  1  0  0  0  0
  9 28  1  0  0  0  0
  9 29  1  0  0  0  0
 10 30  1  0  0  0  0
 10 31  1  0  0  0  0
 10 32  1  0  0  0  0
 11 33  1  0  0  0  0
 11 34  1  0  0  0  0
 11 35  1  0  0  0  0
 12 36  1  0  0  0  0
 12 37  1  0  0  0  0
 12 38  1  0  0  0  0
 13 39  1  0  0  0  0
 13 40  1  0  0  0  0
 13 41  1  0  0  0  0
M  END
> <PUBCHEM_COMPOUND_CID>
530289

> <PUBCHEM_CONFORMER_RMSD>
0.8

> <PUBCHEM_CONFORMER_DIVERSEORDER>
1
6
8
3
9
2
4
5
7

> <PUBCHEM_MMFF94_PARTIAL_CHARGES>
5
1 0.32
2 -0.08
3 -0.08
4 -0.08
5 -0.08

> <PUBCHEM_EFFECTIVE_ROTOR_COUNT>
8

> <PUBCHEM_PHARMACOPHORE_FEATURES>
4
1 10 hydrophobe
1 11 hydrophobe
1 12 hydrophobe
1 13 hydrophobe

> <PUBCHEM_HEAVY_ATOM_COUNT>
13

> <PUBCHEM_ATOM_DEF_STEREO_COUNT>
0

> <PUBCHEM_ATOM_UDEF_STEREO_COUNT>
0

> <PUBCHEM_BOND_DEF_STEREO_COUNT>
0

> <PUBCHEM_BOND_UDEF_STEREO_COUNT>
0

> <PUBCHEM_ISOTOPIC_ATOM_COUNT>
0

> <PUBCHEM_COMPONENT_COUNT>
1

> <PUBCHEM_CACTVS_TAUTO_COUNT>
1

> <PUBCHEM_CONFORMER_ID>
0008177100000001

> <PUBCHEM_MMFF94_ENERGY>
-6.9674

> <PUBCHEM_FEATURE_SELFOVERLAP>
20.3

> <PUBCHEM_SHAPE_FINGERPRINT>
10219947 1 17690284811344004081
10756046 70 18192718851521074717
13134695 92 17681282057243699597
13380536 167 18411699885174338305
13380536 261 18268146646240166723
13380536 55 18337403715421891752
14943834 7 18410575088958046208
14993402 34 18050568434831333885
16945 1 16738307148241468566
187816 3 17690002653536130228
20511035 2 17972630742997993705
20671657 1 18337404733624871328
20871998 184 17110434200494269908
21524375 3 18122661372177122916
228727 97 18051699037727586557
23402539 116 17838067253003550764
23419403 2 16318003306718201699
23526113 38 17188412105927490006
23558518 356 18266478670259000596
266924 1 18410855507378083511
3060560 45 17837514967654496013
4369600 1 17693090077738840339
5845 1 11656471903403250497
589210 1 18410575084663078912
68419 9 18413111670873312036
6992083 37 18122333588846553074
81228 2 17978474612834675515

> <PUBCHEM_SHAPE_MULTIPOLES>
285.75
4.59
4.48
1.51
0
0
0
0
-0.01
0
0.01
0
0
-3.8

> <PUBCHEM_SHAPE_SELFOVERLAP>
496.671

> <PUBCHEM_SHAPE_VOLUME>
188.7

> <PUBCHEM_COORDINATE_TYPE>
2
5
10

$$$$
