143432
  -OEChem-11012400333D

 42 42  0     0  0  0  0  0  0999 V2000
    3.5684   -0.2813   -0.0304 O   0  0  0  0  0  0  0  0  0  0  0  0
   -3.5688    0.2833    0.0286 O   0  0  0  0  0  0  0  0  0  0  0  0
    3.0847    1.2883    1.5825 O   0  0  0  0  0  0  0  0  0  0  0  0
   -3.0827   -1.2859   -1.5838 O   0  0  0  0  0  0  0  0  0  0  0  0
    0.0740    3.5854   -0.1470 O   0  0  0  0  0  0  0  0  0  0  0  0
   -0.0734   -3.5818    0.1403 O   0  0  0  0  0  0  0  0  0  0  0  0
    2.2122    2.9304   -0.5538 O   0  0  0  0  0  0  0  0  0  0  0  0
   -2.2112   -2.9281    0.5519 O   0  0  0  0  0  0  0  0  0  0  0  0
    1.3277    0.2570    0.3439 C   0  0  0  0  0  0  0  0  0  0  0  0
   -1.3275   -0.2534   -0.3438 C   0  0  0  0  0  0  0  0  0  0  0  0
    0.5225    1.2874   -0.1421 C   0  0  0  0  0  0  0  0  0  0  0  0
   -0.5223   -1.2839    0.1419 C   0  0  0  0  0  0  0  0  0  0  0  0
    0.8052   -1.0286    0.4856 C   0  0  0  0  0  0  0  0  0  0  0  0
   -0.8050    1.0322   -0.4862 C   0  0  0  0  0  0  0  0  0  0  0  0
    2.7184    0.4917    0.7106 C   0  0  0  0  0  0  0  0  0  0  0  0
   -2.7176   -0.4885   -0.7122 C   0  0  0  0  0  0  0  0  0  0  0  0
    4.9674   -0.1412    0.2393 C   0  0  0  0  0  0  0  0  0  0  0  0
   -4.9677    0.1409   -0.2408 C   0  0  0  0  0  0  0  0  0  0  0  0
    5.7410   -1.0754   -0.6784 C   0  0  0  0  0  0  0  0  0  0  0  0
   -5.7427    1.0741    0.6767 C   0  0  0  0  0  0  0  0  0  0  0  0
    1.0396    2.6403   -0.3032 C   0  0  0  0  0  0  0  0  0  0  0  0
   -1.0388   -2.6372    0.3011 C   0  0  0  0  0  0  0  0  0  0  0  0
    7.2376   -0.9919   -0.4378 C   0  0  0  0  0  0  0  0  0  0  0  0
   -7.2410    0.9662    0.4571 C   0  0  0  0  0  0  0  0  0  0  0  0
    1.4415   -1.8167    0.8828 H   0  0  0  0  0  0  0  0  0  0  0  0
   -1.4412    1.8199   -0.8841 H   0  0  0  0  0  0  0  0  0  0  0  0
    5.1585   -0.3968    1.2879 H   0  0  0  0  0  0  0  0  0  0  0  0
    5.2663    0.8981    0.0605 H   0  0  0  0  0  0  0  0  0  0  0  0
   -5.2639   -0.8991   -0.0608 H   0  0  0  0  0  0  0  0  0  0  0  0
   -5.1602    0.3950   -1.2896 H   0  0  0  0  0  0  0  0  0  0  0  0
    5.5171   -0.8322   -1.7239 H   0  0  0  0  0  0  0  0  0  0  0  0
    5.3968   -2.1059   -0.5288 H   0  0  0  0  0  0  0  0  0  0  0  0
   -5.4148    2.1075    0.5117 H   0  0  0  0  0  0  0  0  0  0  0  0
   -5.5023    0.8455    1.7218 H   0  0  0  0  0  0  0  0  0  0  0  0
    7.6080    0.0222   -0.6189 H   0  0  0  0  0  0  0  0  0  0  0  0
    7.4856   -1.2699    0.5916 H   0  0  0  0  0  0  0  0  0  0  0  0
    7.7685   -1.6726   -1.1105 H   0  0  0  0  0  0  0  0  0  0  0  0
   -7.5063    1.2278   -0.5722 H   0  0  0  0  0  0  0  0  0  0  0  0
   -7.5943   -0.0507    0.6554 H   0  0  0  0  0  0  0  0  0  0  0  0
   -7.7728    1.6474    1.1285 H   0  0  0  0  0  0  0  0  0  0  0  0
    0.4299    4.4929   -0.2577 H   0  0  0  0  0  0  0  0  0  0  0  0
   -0.4291   -4.4896    0.2487 H   0  0  0  0  0  0  0  0  0  0  0  0
  1 15  1  0  0  0  0
  1 17  1  0  0  0  0
  2 16  1  0  0  0  0
  2 18  1  0  0  0  0
  3 15  2  0  0  0  0
  4 16  2  0  0  0  0
  5 21  1  0  0  0  0
  5 41  1  0  0  0  0
  6 22  1  0  0  0  0
  6 42  1  0  0  0  0
  7 21  2  0  0  0  0
  8 22  2  0  0  0  0
  9 11  2  0  0  0  0
  9 13  1  0  0  0  0
  9 15  1  0  0  0  0
 10 12  1  0  0  0  0
 10 14  2  0  0  0  0
 10 16  1  0  0  0  0
 11 14  1  0  0  0  0
 11 21  1  0  0  0  0
 12 13  2  0  0  0  0
 12 22  1  0  0  0  0
 13 25  1  0  0  0  0
 14 26  1  0  0  0  0
 17 19  1  0  0  0  0
 17 27  1  0  0  0  0
 17 28  1  0  0  0  0
 18 20  1  0  0  0  0
 18 29  1  0  0  0  0
 18 30  1  0  0  0  0
 19 23  1  0  0  0  0
 19 31  1  0  0  0  0
 19 32  1  0  0  0  0
 20 24  1  0  0  0  0
 20 33  1  0  0  0  0
 20 34  1  0  0  0  0
 23 35  1  0  0  0  0
 23 36  1  0  0  0  0
 23 37  1  0  0  0  0
 24 38  1  0  0  0  0
 24 39  1  0  0  0  0
 24 40  1  0  0  0  0
M  END
> <PUBCHEM_COMPOUND_CID>
143432

> <PUBCHEM_CONFORMER_RMSD>
1

> <PUBCHEM_CONFORMER_DIVERSEORDER>
1
10
12
17
5
8
4
7
6
13
9
15
16
11
2
3
14

> <PUBCHEM_MMFF94_PARTIAL_CHARGES>
24
1 -0.43
10 0.09
11 0.09
12 0.09
13 -0.15
14 -0.15
15 0.63
16 0.63
17 0.28
18 0.28
2 -0.43
21 0.63
22 0.63
25 0.15
26 0.15
3 -0.57
4 -0.57
41 0.5
42 0.5
5 -0.65
6 -0.65
7 -0.57
8 -0.57
9 0.09

> <PUBCHEM_EFFECTIVE_ROTOR_COUNT>
10

> <PUBCHEM_PHARMACOPHORE_FEATURES>
11
1 23 hydrophobe
1 24 hydrophobe
1 3 acceptor
1 4 acceptor
1 5 acceptor
1 6 acceptor
1 7 acceptor
1 8 acceptor
3 5 7 21 anion
3 6 8 22 anion
6 9 10 11 12 13 14 rings

> <PUBCHEM_HEAVY_ATOM_COUNT>
24

> <PUBCHEM_ATOM_DEF_STEREO_COUNT>
0

> <PUBCHEM_ATOM_UDEF_STEREO_COUNT>
0

> <PUBCHEM_BOND_DEF_STEREO_COUNT>
0

> <PUBCHEM_BOND_UDEF_STEREO_COUNT>
0

> <PUBCHEM_ISOTOPIC_ATOM_COUNT>
0

> <PUBCHEM_COMPONENT_COUNT>
1

> <PUBCHEM_CACTVS_TAUTO_COUNT>
1

> <PUBCHEM_CONFORMER_ID>
0002304800000001

> <PUBCHEM_MMFF94_ENERGY>
67.3903

> <PUBCHEM_FEATURE_SELFOVERLAP>
55.945

> <PUBCHEM_SHAPE_FINGERPRINT>
10674148 151 18272090453585711874
10906281 52 18341628035243841420
1100329 8 18410012173739078769
11036077 3 18408888412910890555
12011746 2 18335420145116448177
12236239 1 18060134362772582741
12553582 1 18262784221031847794
12788726 201 18266453218572526088
13140716 1 18116985796317459665
13544592 145 18343014511006254418
13914758 101 15267072397519295866
14022347 108 18260822696741254992
14790565 3 18335989691945334420
14955137 171 18335990821832365409
15099037 51 18408603673315592062
15475509 8 18270410399180010628
15849732 13 18409172099436789757
16087824 20 18264490598754730941
16728300 4 12318350356252947340
16945 1 18115284778709155844
17492 89 17979913031662781655
19141452 34 18060132158984861926
19591789 44 18122342367901896978
20286276 3 18047478008451875082
20739085 24 18190743033747969681
20832881 197 17988922258515853394
21267235 1 18409735036315528373
21285901 2 18200320901233870494
23402539 116 18343014489246691878
23557571 272 18271247119730234244
23558518 356 17900261111212367523
23559900 14 18339073908930457696
23569943 247 18198901401099685434
2748010 2 17974543845800677588
3178227 256 18261407628353069657
335352 9 18409450292878937055
34797466 226 14996292387876742002
404807 14 15332688893464860014
4325135 7 12685099184904136874
474 4 18411418419599965177
5104073 3 18190168182081677009
59755656 215 18339643330597838423
59755656 520 18411133637266938695
6138700 20 18340488868167508942
9709674 26 18049434048359771310

> <PUBCHEM_SHAPE_MULTIPOLES>
446.95
13.54
3.22
0.93
0.03
0.01
0
-0.06
-0.04
-0.02
0.01
0.01
0
0

> <PUBCHEM_SHAPE_SELFOVERLAP>
930.391

> <PUBCHEM_SHAPE_VOLUME>
253.4

> <PUBCHEM_COORDINATE_TYPE>
2
5
10

$$$$
