380819
  -OEChem-11012400383D

 21 21  0     0  0  0  0  0  0999 V2000
    1.6780    1.3643    1.3566 O   0  0  0  0  0  0  0  0  0  0  0  0
    1.6834   -1.3592    1.3562 O   0  0  0  0  0  0  0  0  0  0  0  0
   -1.6823    1.3610    1.3573 O   0  0  0  0  0  0  0  0  0  0  0  0
   -1.6754   -1.3668    1.3573 O   0  0  0  0  0  0  0  0  0  0  0  0
    1.7787    2.0908   -0.8088 O   0  0  0  0  0  0  0  0  0  0  0  0
    1.7816   -2.0876   -0.8086 O   0  0  0  0  0  0  0  0  0  0  0  0
   -1.7828    2.0883   -0.8077 O   0  0  0  0  0  0  0  0  0  0  0  0
   -1.7777   -2.0918   -0.8083 O   0  0  0  0  0  0  0  0  0  0  0  0
    0.7493    0.0009   -0.3322 C   0  0  0  0  0  0  0  0  0  0  0  0
   -0.7513   -0.0005   -0.3316 C   0  0  0  0  0  0  0  0  0  0  0  0
   -0.0014    0.0006   -1.6314 C   0  0  0  0  0  0  0  0  0  0  0  0
    1.4526    1.2593    0.0249 C   0  0  0  0  0  0  0  0  0  0  0  0
    1.4544   -1.2564    0.0249 C   0  0  0  0  0  0  0  0  0  0  0  0
   -1.4551    1.2574    0.0259 C   0  0  0  0  0  0  0  0  0  0  0  0
   -1.4520   -1.2604    0.0254 C   0  0  0  0  0  0  0  0  0  0  0  0
   -0.0006   -0.8952   -2.2440 H   0  0  0  0  0  0  0  0  0  0  0  0
   -0.0023    0.8966   -2.2435 H   0  0  0  0  0  0  0  0  0  0  0  0
    2.1414    2.1981    1.5853 H   0  0  0  0  0  0  0  0  0  0  0  0
    2.1493   -2.1916    1.5848 H   0  0  0  0  0  0  0  0  0  0  0  0
   -2.1474    2.1938    1.5861 H   0  0  0  0  0  0  0  0  0  0  0  0
   -2.1371   -2.2015    1.5861 H   0  0  0  0  0  0  0  0  0  0  0  0
  1 12  1  0  0  0  0
  1 18  1  0  0  0  0
  2 13  1  0  0  0  0
  2 19  1  0  0  0  0
  3 14  1  0  0  0  0
  3 20  1  0  0  0  0
  4 15  1  0  0  0  0
  4 21  1  0  0  0  0
  5 12  2  0  0  0  0
  6 13  2  0  0  0  0
  7 14  2  0  0  0  0
  8 15  2  0  0  0  0
  9 10  1  0  0  0  0
  9 11  1  0  0  0  0
  9 12  1  0  0  0  0
  9 13  1  0  0  0  0
 10 11  1  0  0  0  0
 10 14  1  0  0  0  0
 10 15  1  0  0  0  0
 11 16  1  0  0  0  0
 11 17  1  0  0  0  0
M  END
> <PUBCHEM_COMPOUND_CID>
380819

> <PUBCHEM_CONFORMER_RMSD>
0.6

> <PUBCHEM_CONFORMER_DIVERSEORDER>
1
6
5
3
4
2

> <PUBCHEM_MMFF94_PARTIAL_CHARGES>
19
1 -0.65
11 -0.2
12 0.72
13 0.72
14 0.72
15 0.72
16 0.1
17 0.1
18 0.5
19 0.5
2 -0.65
20 0.5
21 0.5
3 -0.65
4 -0.65
5 -0.57
6 -0.57
7 -0.57
8 -0.57

> <PUBCHEM_EFFECTIVE_ROTOR_COUNT>
4.6

> <PUBCHEM_PHARMACOPHORE_FEATURES>
12
1 1 acceptor
1 2 acceptor
1 3 acceptor
1 4 acceptor
1 5 acceptor
1 6 acceptor
1 7 acceptor
1 8 acceptor
3 1 5 12 anion
3 2 6 13 anion
3 3 7 14 anion
3 4 8 15 anion

> <PUBCHEM_HEAVY_ATOM_COUNT>
15

> <PUBCHEM_ATOM_DEF_STEREO_COUNT>
0

> <PUBCHEM_ATOM_UDEF_STEREO_COUNT>
0

> <PUBCHEM_BOND_DEF_STEREO_COUNT>
0

> <PUBCHEM_BOND_UDEF_STEREO_COUNT>
0

> <PUBCHEM_ISOTOPIC_ATOM_COUNT>
0

> <PUBCHEM_COMPONENT_COUNT>
1

> <PUBCHEM_CACTVS_TAUTO_COUNT>
1

> <PUBCHEM_CONFORMER_ID>
0005CF9300000001

> <PUBCHEM_MMFF94_ENERGY>
32.5111

> <PUBCHEM_FEATURE_SELFOVERLAP>
61.134

> <PUBCHEM_SHAPE_FINGERPRINT>
12423570 1 9212916226751303863
13024252 1 17469893181776887198
13380536 237 18267839783770019101
15557651 10 17485670439032378792
16945 1 18410573985151451374
20511035 2 18201717310522772892
21922407 69 17968656141470348040
22344851 12 12211609285658664704
22344851 262 17127286608339060606
23419403 2 15750258309910119236
2748010 2 18050567335319699703
5084963 1 17913479156406879629

> <PUBCHEM_SHAPE_MULTIPOLES>
261.74
2.66
2.46
1.35
0
0
-0.16
0
-0.36
0
0.14
0
0
0

> <PUBCHEM_SHAPE_SELFOVERLAP>
558.016

> <PUBCHEM_SHAPE_VOLUME>
144.8

> <PUBCHEM_COORDINATE_TYPE>
2
5
10

$$$$
