95921
  -OEChem-11012400453D

 20 19  0     0  0  0  0  0  0999 V2000
   -2.8243   -1.6885    0.7443 Cl  0  0  0  0  0  0  0  0  0  0  0  0
   -3.8072    0.5886   -0.7872 Cl  0  0  0  0  0  0  0  0  0  0  0  0
   -0.0849   -0.2038   -0.2645 O   0  0  0  0  0  0  0  0  0  0  0  0
   -1.4013    1.3783    0.7718 O   0  0  0  0  0  0  0  0  0  0  0  0
    2.3071   -0.3115   -0.2771 C   0  0  0  0  0  0  0  0  0  0  0  0
    3.6026    0.3316    0.2097 C   0  0  0  0  0  0  0  0  0  0  0  0
    1.0834    0.4523    0.2085 C   0  0  0  0  0  0  0  0  0  0  0  0
    4.8206   -0.4586   -0.2411 C   0  0  0  0  0  0  0  0  0  0  0  0
   -1.2804    0.3677    0.0918 C   0  0  0  0  0  0  0  0  0  0  0  0
   -2.4156   -0.4560   -0.4562 C   0  0  0  0  0  0  0  0  0  0  0  0
    2.2953   -0.3608   -1.3730 H   0  0  0  0  0  0  0  0  0  0  0  0
    2.2455   -1.3507    0.0700 H   0  0  0  0  0  0  0  0  0  0  0  0
    3.6006    0.3920    1.3043 H   0  0  0  0  0  0  0  0  0  0  0  0
    3.6755    1.3566   -0.1716 H   0  0  0  0  0  0  0  0  0  0  0  0
    1.0677    0.4782    1.3044 H   0  0  0  0  0  0  0  0  0  0  0  0
    1.1062    1.4793   -0.1746 H   0  0  0  0  0  0  0  0  0  0  0  0
    4.7944   -1.4794    0.1533 H   0  0  0  0  0  0  0  0  0  0  0  0
    4.8702   -0.5131   -1.3333 H   0  0  0  0  0  0  0  0  0  0  0  0
    5.7371    0.0205    0.1172 H   0  0  0  0  0  0  0  0  0  0  0  0
   -2.1288   -0.9372   -1.3954 H   0  0  0  0  0  0  0  0  0  0  0  0
  1 10  1  0  0  0  0
  2 10  1  0  0  0  0
  3  7  1  0  0  0  0
  3  9  1  0  0  0  0
  4  9  2  0  0  0  0
  5  6  1  0  0  0  0
  5  7  1  0  0  0  0
  5 11  1  0  0  0  0
  5 12  1  0  0  0  0
  6  8  1  0  0  0  0
  6 13  1  0  0  0  0
  6 14  1  0  0  0  0
  7 15  1  0  0  0  0
  7 16  1  0  0  0  0
  8 17  1  0  0  0  0
  8 18  1  0  0  0  0
  8 19  1  0  0  0  0
  9 10  1  0  0  0  0
 10 20  1  0  0  0  0
M  END
> <PUBCHEM_COMPOUND_CID>
95921

> <PUBCHEM_CONFORMER_RMSD>
0.6

> <PUBCHEM_CONFORMER_DIVERSEORDER>
1
77
25
137
169
158
142
17
101
6
112
31
104
164
12
146
40
78
141
135
126
144
58
89
123
120
133
163
148
27
134
124
37
18
108
65
170
10
36
129
159
127
55
117
139
102
87
84
45
28
161
52
113
74
69
57
54
14
44
85
154
143
59
153
115
11
100
43
147
16
79
90
132
166
131
22
125
93
118
86
42
76
71
114
39
80
168
2
167
20
128
138
21
99
63
150
145
156
70
15
35
157
91
41
51
136
46
66
149
121
88
64
8
106
53
95
97
83
50
160
130
33
105
67
38
111
98
73
60
140
61
162
116
152
5
165
94
30
19
13
4
110
32
23
96
109
107
151
26
72
75
9
29
81
103
3
68
34
62
47
49
56
7
119
48
24
82
92
122
155

> <PUBCHEM_MMFF94_PARTIAL_CHARGES>
7
1 -0.29
10 0.64
2 -0.29
3 -0.43
4 -0.57
7 0.28
9 0.66

> <PUBCHEM_EFFECTIVE_ROTOR_COUNT>
5

> <PUBCHEM_PHARMACOPHORE_FEATURES>
2
1 4 acceptor
1 8 hydrophobe

> <PUBCHEM_HEAVY_ATOM_COUNT>
10

> <PUBCHEM_ATOM_DEF_STEREO_COUNT>
0

> <PUBCHEM_ATOM_UDEF_STEREO_COUNT>
0

> <PUBCHEM_BOND_DEF_STEREO_COUNT>
0

> <PUBCHEM_BOND_UDEF_STEREO_COUNT>
0

> <PUBCHEM_ISOTOPIC_ATOM_COUNT>
0

> <PUBCHEM_COMPONENT_COUNT>
1

> <PUBCHEM_CACTVS_TAUTO_COUNT>
1

> <PUBCHEM_CONFORMER_ID>
000176B100000001

> <PUBCHEM_MMFF94_ENERGY>
6.1847

> <PUBCHEM_FEATURE_SELFOVERLAP>
10.148

> <PUBCHEM_SHAPE_FINGERPRINT>
11062470 55 16660361467831871700
12932764 1 16443611480620615485
14123238 8 8358252657500693860
14325111 11 18273216374661143060
17834076 25 18411134719176164933
187816 3 18412255121973281061
190213 19 18411138043776114588
200 152 17203602683809770925
20211469 26 18131067130102114676
20279233 1 18131918156281040310
20281407 28 17846497058213497234
20645477 56 17894627020452853013
20645477 70 17845935113509556654
20711985 327 15985105244913122176
21061003 4 18130793416368548641
21119208 17 18113334202300633036
22485316 2 17968090924259231274
22959321 105 18188492487695385134
23402539 116 17774713186673215373
3248919 1 18340778078210994828
3312278 4 18408040714898921195

> <PUBCHEM_SHAPE_MULTIPOLES>
197.8
8.53
1.22
0.83
7.57
0.37
-0.02
0.95
1.25
-1.25
-0.26
-0.35
-0.05
0.47

> <PUBCHEM_SHAPE_SELFOVERLAP>
347.519

> <PUBCHEM_SHAPE_VOLUME>
130.4

> <PUBCHEM_COORDINATE_TYPE>
2
5
10

$$$$
