7037
  -OEChem-11012400463D

 26 27  0     0  0  0  0  0  0999 V2000
    0.1034    2.2511   -0.8727 O   0  0  0  0  0  0  0  0  0  0  0  0
    0.0327    1.2783    0.1837 C   0  0  0  0  0  0  0  0  0  0  0  0
   -1.2396    0.5007    0.1480 C   0  0  0  0  0  0  0  0  0  0  0  0
    1.2837    0.4140    0.0870 C   0  0  0  0  0  0  0  0  0  0  0  0
   -1.7873    0.0049    1.3314 C   0  0  0  0  0  0  0  0  0  0  0  0
    1.2484   -0.7224   -0.6936 C   0  0  0  0  0  0  0  0  0  0  0  0
   -1.8822    0.2698   -1.0683 C   0  0  0  0  0  0  0  0  0  0  0  0
    2.4116    0.7956    0.7829 C   0  0  0  0  0  0  0  0  0  0  0  0
   -2.9772   -0.7221    1.2981 C   0  0  0  0  0  0  0  0  0  0  0  0
    2.3937   -1.5137   -0.7824 C   0  0  0  0  0  0  0  0  0  0  0  0
   -3.0722   -0.4571   -1.1013 C   0  0  0  0  0  0  0  0  0  0  0  0
    3.5569    0.0043    0.6939 C   0  0  0  0  0  0  0  0  0  0  0  0
   -3.6197   -0.9530    0.0820 C   0  0  0  0  0  0  0  0  0  0  0  0
    3.5479   -1.1504   -0.0887 C   0  0  0  0  0  0  0  0  0  0  0  0
    0.0623    1.8526    1.1191 H   0  0  0  0  0  0  0  0  0  0  0  0
   -1.2960    0.1763    2.2855 H   0  0  0  0  0  0  0  0  0  0  0  0
    0.3840   -1.0348   -1.2658 H   0  0  0  0  0  0  0  0  0  0  0  0
   -1.4749    0.6399   -2.0053 H   0  0  0  0  0  0  0  0  0  0  0  0
    2.4276    1.6939    1.3925 H   0  0  0  0  0  0  0  0  0  0  0  0
   -3.4033   -1.1088    2.2193 H   0  0  0  0  0  0  0  0  0  0  0  0
    2.3889   -2.4104   -1.3952 H   0  0  0  0  0  0  0  0  0  0  0  0
   -3.5720   -0.6385   -2.0484 H   0  0  0  0  0  0  0  0  0  0  0  0
    4.4561    0.2876    1.2333 H   0  0  0  0  0  0  0  0  0  0  0  0
   -0.7170    2.7733   -0.8502 H   0  0  0  0  0  0  0  0  0  0  0  0
   -4.5460   -1.5195    0.0561 H   0  0  0  0  0  0  0  0  0  0  0  0
    4.4401   -1.7657   -0.1589 H   0  0  0  0  0  0  0  0  0  0  0  0
  1  2  1  0  0  0  0
  1 24  1  0  0  0  0
  2  3  1  0  0  0  0
  2  4  1  0  0  0  0
  2 15  1  0  0  0  0
  3  5  2  0  0  0  0
  3  7  1  0  0  0  0
  4  6  2  0  0  0  0
  4  8  1  0  0  0  0
  5  9  1  0  0  0  0
  5 16  1  0  0  0  0
  6 10  1  0  0  0  0
  6 17  1  0  0  0  0
  7 11  2  0  0  0  0
  7 18  1  0  0  0  0
  8 12  2  0  0  0  0
  8 19  1  0  0  0  0
  9 13  2  0  0  0  0
  9 20  1  0  0  0  0
 10 14  2  0  0  0  0
 10 21  1  0  0  0  0
 11 13  1  0  0  0  0
 11 22  1  0  0  0  0
 12 14  1  0  0  0  0
 12 23  1  0  0  0  0
 13 25  1  0  0  0  0
 14 26  1  0  0  0  0
M  END
> <PUBCHEM_COMPOUND_CID>
7037

> <PUBCHEM_CONFORMER_RMSD>
0.6

> <PUBCHEM_CONFORMER_DIVERSEORDER>
2
1

> <PUBCHEM_MMFF94_PARTIAL_CHARGES>
25
1 -0.68
10 -0.15
11 -0.15
12 -0.15
13 -0.15
14 -0.15
16 0.15
17 0.15
18 0.15
19 0.15
2 0.57
20 0.15
21 0.15
22 0.15
23 0.15
24 0.4
25 0.15
26 0.15
3 -0.14
4 -0.14
5 -0.15
6 -0.15
7 -0.15
8 -0.15
9 -0.15

> <PUBCHEM_EFFECTIVE_ROTOR_COUNT>
2

> <PUBCHEM_PHARMACOPHORE_FEATURES>
4
1 1 acceptor
1 1 donor
6 3 5 7 9 11 13 rings
6 4 6 8 10 12 14 rings

> <PUBCHEM_HEAVY_ATOM_COUNT>
14

> <PUBCHEM_ATOM_DEF_STEREO_COUNT>
0

> <PUBCHEM_ATOM_UDEF_STEREO_COUNT>
0

> <PUBCHEM_BOND_DEF_STEREO_COUNT>
0

> <PUBCHEM_BOND_UDEF_STEREO_COUNT>
0

> <PUBCHEM_ISOTOPIC_ATOM_COUNT>
0

> <PUBCHEM_COMPONENT_COUNT>
1

> <PUBCHEM_CACTVS_TAUTO_COUNT>
1

> <PUBCHEM_CONFORMER_ID>
00001B7D00000002

> <PUBCHEM_MMFF94_ENERGY>
41.9945

> <PUBCHEM_FEATURE_SELFOVERLAP>
20.297

> <PUBCHEM_SHAPE_FINGERPRINT>
10219947 1 18341327885538207408
10465860 250 17676755535597026656
10465860 71 16877668950103415678
10618630 7 18411422782506048470
11127187 94 17313104159522603947
11132069 177 17988064665337525062
11471102 22 18343584049091367546
11543360 7 15719402749728754366
11578080 2 16986556894107264681
12251169 10 16917069949163397155
12382932 28 16702307814824898699
12532896 13 17612582333152042733
12759256 9 18266459986855863612
12932764 1 17489591155736779096
13296908 3 18334855008813663542
13693222 15 18202560661869219442
14115302 16 16370723742592836147
14144814 61 17060339617124154514
14252887 29 18410860979277383506
14787075 74 15619145078739894945
15309172 13 17418088798080919606
15375358 24 18335127696324203349
15375462 189 17346878978736417043
15501101 241 18201999941151621800
15775835 57 16343709841241384547
16945 1 18130785702454485736
17844478 74 18341332202112189276
18186145 218 16660364783293553092
19422 9 16487255478220423246
200 152 17560787828154499693
20201158 50 18259983777526744515
20279233 1 18260826003354473587
20281407 28 18411703153713100342
20361792 2 18335708242853673053
20645477 70 18201709613978360671
20671657 53 17603304847462851628
20711985 344 17970903362806840573
21061003 4 18408890641671538265
22445834 79 17418096507373116287
231179 274 9295299317332492330
23402539 116 18040992904577762764
23557571 272 17095518530346730476
23559900 14 17385709293498362448
27216 239 11743537895753362543
2748010 2 17913763930234777060
276578 36 12607409879640187836
549884 4 12179843930770500119
57812782 119 18040991851852027794
581208 293 18201433709874646410
74978 22 11891341958314602816
77492 1 17203327853179102573
81228 2 18116432531415654933
90316 7 16343712014763563587

> <PUBCHEM_SHAPE_MULTIPOLES>
282.24
6.42
1.5
1.23
0.36
0.23
0.09
-2.56
1.02
0.65
-0.36
-0.77
0.06
0.32

> <PUBCHEM_SHAPE_SELFOVERLAP>
608.439

> <PUBCHEM_SHAPE_VOLUME>
154.7

> <PUBCHEM_COORDINATE_TYPE>
2
5
10

$$$$
