137610
  -OEChem-11012401283D

 26 27  0     0  0  0  0  0  0999 V2000
   -2.7691    0.0002    1.3458 O   0  0  0  0  0  0  0  0  0  0  0  0
    0.9873   -0.7019   -0.1791 C   0  0  0  0  0  0  0  0  0  0  0  0
    0.9874    0.7017   -0.1795 C   0  0  0  0  0  0  0  0  0  0  0  0
   -1.4741   -1.2730   -0.1708 C   0  0  0  0  0  0  0  0  0  0  0  0
   -1.4739    1.2729   -0.1709 C   0  0  0  0  0  0  0  0  0  0  0  0
   -0.1902   -1.5361   -0.4561 C   0  0  0  0  0  0  0  0  0  0  0  0
   -0.1903    1.5359   -0.4565 C   0  0  0  0  0  0  0  0  0  0  0  0
   -1.9313    0.0000    0.4479 C   0  0  0  0  0  0  0  0  0  0  0  0
    2.1998   -1.3840    0.0476 C   0  0  0  0  0  0  0  0  0  0  0  0
    2.1999    1.3840    0.0467 C   0  0  0  0  0  0  0  0  0  0  0  0
   -2.5611   -2.2795   -0.4202 C   0  0  0  0  0  0  0  0  0  0  0  0
   -2.5607    2.2799   -0.4192 C   0  0  0  0  0  0  0  0  0  0  0  0
    3.3881   -0.6935    0.2824 C   0  0  0  0  0  0  0  0  0  0  0  0
    3.3881    0.6936    0.2818 C   0  0  0  0  0  0  0  0  0  0  0  0
    0.0419   -2.5072   -0.8927 H   0  0  0  0  0  0  0  0  0  0  0  0
    0.0417    2.5070   -0.8929 H   0  0  0  0  0  0  0  0  0  0  0  0
    2.2305   -2.4726    0.0459 H   0  0  0  0  0  0  0  0  0  0  0  0
    2.2305    2.4725    0.0445 H   0  0  0  0  0  0  0  0  0  0  0  0
   -3.3424   -1.8453   -1.0531 H   0  0  0  0  0  0  0  0  0  0  0  0
   -3.0153   -2.5975    0.5240 H   0  0  0  0  0  0  0  0  0  0  0  0
   -2.1868   -3.1753   -0.9268 H   0  0  0  0  0  0  0  0  0  0  0  0
   -2.1863    3.1759   -0.9256 H   0  0  0  0  0  0  0  0  0  0  0  0
   -3.0142    2.5976    0.5255 H   0  0  0  0  0  0  0  0  0  0  0  0
   -3.3424    1.8464   -1.0519 H   0  0  0  0  0  0  0  0  0  0  0  0
    4.3095   -1.2400    0.4593 H   0  0  0  0  0  0  0  0  0  0  0  0
    4.3095    1.2403    0.4585 H   0  0  0  0  0  0  0  0  0  0  0  0
  1  8  2  0  0  0  0
  2  3  1  0  0  0  0
  2  6  1  0  0  0  0
  2  9  2  0  0  0  0
  3  7  1  0  0  0  0
  3 10  2  0  0  0  0
  4  6  2  0  0  0  0
  4  8  1  0  0  0  0
  4 11  1  0  0  0  0
  5  7  2  0  0  0  0
  5  8  1  0  0  0  0
  5 12  1  0  0  0  0
  6 15  1  0  0  0  0
  7 16  1  0  0  0  0
  9 13  1  0  0  0  0
  9 17  1  0  0  0  0
 10 14  1  0  0  0  0
 10 18  1  0  0  0  0
 11 19  1  0  0  0  0
 11 20  1  0  0  0  0
 11 21  1  0  0  0  0
 12 22  1  0  0  0  0
 12 23  1  0  0  0  0
 12 24  1  0  0  0  0
 13 14  2  0  0  0  0
 13 25  1  0  0  0  0
 14 26  1  0  0  0  0
M  END
> <PUBCHEM_COMPOUND_CID>
137610

> <PUBCHEM_CONFORMER_RMSD>
0.4

> <PUBCHEM_CONFORMER_DIVERSEORDER>
1

> <PUBCHEM_MMFF94_PARTIAL_CHARGES>
20
1 -0.57
10 -0.15
11 0.14
12 0.14
13 -0.15
14 -0.15
15 0.15
16 0.15
17 0.15
18 0.15
2 0.03
25 0.15
26 0.15
3 0.03
4 -0.12
5 -0.12
6 -0.18
7 -0.18
8 0.54
9 -0.15

> <PUBCHEM_EFFECTIVE_ROTOR_COUNT>
0

> <PUBCHEM_PHARMACOPHORE_FEATURES>
3
1 1 acceptor
6 2 3 9 10 13 14 rings
7 2 3 4 5 6 7 8 rings

> <PUBCHEM_HEAVY_ATOM_COUNT>
14

> <PUBCHEM_ATOM_DEF_STEREO_COUNT>
0

> <PUBCHEM_ATOM_UDEF_STEREO_COUNT>
0

> <PUBCHEM_BOND_DEF_STEREO_COUNT>
0

> <PUBCHEM_BOND_UDEF_STEREO_COUNT>
0

> <PUBCHEM_ISOTOPIC_ATOM_COUNT>
0

> <PUBCHEM_COMPONENT_COUNT>
1

> <PUBCHEM_CACTVS_TAUTO_COUNT>
1

> <PUBCHEM_CONFORMER_ID>
0002198A00000001

> <PUBCHEM_MMFF94_ENERGY>
48.9944

> <PUBCHEM_FEATURE_SELFOVERLAP>
15.231

> <PUBCHEM_SHAPE_FINGERPRINT>
10608611 8 18411694374990215152
10967382 1 18122622760568026036
11132069 177 18412820296476954192
12251169 10 18413395332035803882
12382932 28 18342736308472869944
12696612 119 18336271214503476868
12932764 1 18410863161379037464
13380535 21 18341341015432501566
13380535 76 18267857285856527141
14144814 61 18411979204325626658
15219456 202 18339081480314183248
15775835 57 18342466975242072056
16945 1 18410858763084606622
17844478 74 18187940481323993353
20510252 161 18272368728131194472
20511035 2 18044669606704266069
20525323 117 18335696165384440054
20871998 184 18272652380614197663
21501502 16 18409164424556864148
21524375 3 17827915131626926773
22112679 90 18054526956312653127
2334 1 18410854399503374374
23388829 49 17981041135024334503
23402539 116 17985819556814251903
23463225 33 18337392746249185830
23559900 14 18199189478616750622
25 1 17470155969261521269
2748010 2 18049735018134490279
6333449 129 18337667516697746341
69090 78 18337666413339602565

> <PUBCHEM_SHAPE_MULTIPOLES>
282.24
5.08
2.37
0.79
2.14
0
0.12
0
0.74
-1.52
-0.43
-0.34
0
0

> <PUBCHEM_SHAPE_SELFOVERLAP>
607.417

> <PUBCHEM_SHAPE_VOLUME>
154.7

> <PUBCHEM_COORDINATE_TYPE>
2
5
10

$$$$
