141914
  -OEChem-11012401213D

 31 30  0     0  0  0  0  0  0999 V2000
    0.4006   -0.6199    0.1740 N   0  0  0  0  0  0  0  0  0  0  0  0
   -0.0389    0.4791   -0.4928 N   0  0  0  0  0  0  0  0  0  0  0  0
    1.8205   -0.9078   -0.0457 C   0  0  0  0  0  0  0  0  0  0  0  0
   -0.3744   -1.8444   -0.0666 C   0  0  0  0  0  0  0  0  0  0  0  0
    2.6586    0.3451    0.1959 C   0  0  0  0  0  0  0  0  0  0  0  0
   -1.8621   -1.5815    0.1534 C   0  0  0  0  0  0  0  0  0  0  0  0
    4.1362    0.0783   -0.0467 C   0  0  0  0  0  0  0  0  0  0  0  0
   -2.6857   -2.8407   -0.0687 C   0  0  0  0  0  0  0  0  0  0  0  0
   -0.5008    1.3890    0.3009 C   0  0  0  0  0  0  0  0  0  0  0  0
   -1.0498    2.6747   -0.2521 C   0  0  0  0  0  0  0  0  0  0  0  0
   -2.5044    2.8280    0.1483 C   0  0  0  0  0  0  0  0  0  0  0  0
    2.1528   -1.6981    0.6388 H   0  0  0  0  0  0  0  0  0  0  0  0
    1.9878   -1.2615   -1.0715 H   0  0  0  0  0  0  0  0  0  0  0  0
   -0.2188   -2.2034   -1.0923 H   0  0  0  0  0  0  0  0  0  0  0  0
   -0.0443   -2.6342    0.6194 H   0  0  0  0  0  0  0  0  0  0  0  0
    2.3610    1.1614   -0.4725 H   0  0  0  0  0  0  0  0  0  0  0  0
    2.5230    0.6982    1.2255 H   0  0  0  0  0  0  0  0  0  0  0  0
   -2.0361   -1.2183    1.1737 H   0  0  0  0  0  0  0  0  0  0  0  0
   -2.2352   -0.8155   -0.5363 H   0  0  0  0  0  0  0  0  0  0  0  0
    4.5084   -0.7045    0.6220 H   0  0  0  0  0  0  0  0  0  0  0  0
    4.3140   -0.2383   -1.0794 H   0  0  0  0  0  0  0  0  0  0  0  0
    4.7205    0.9858    0.1355 H   0  0  0  0  0  0  0  0  0  0  0  0
   -2.5660   -3.2129   -1.0913 H   0  0  0  0  0  0  0  0  0  0  0  0
   -2.3848   -3.6336    0.6235 H   0  0  0  0  0  0  0  0  0  0  0  0
   -3.7478   -2.6328    0.0948 H   0  0  0  0  0  0  0  0  0  0  0  0
   -0.5105    1.2728    1.4011 H   0  0  0  0  0  0  0  0  0  0  0  0
   -0.4601    3.4986    0.1621 H   0  0  0  0  0  0  0  0  0  0  0  0
   -0.9488    2.6874   -1.3420 H   0  0  0  0  0  0  0  0  0  0  0  0
   -3.1073    2.0024   -0.2444 H   0  0  0  0  0  0  0  0  0  0  0  0
   -2.9112    3.7667   -0.2398 H   0  0  0  0  0  0  0  0  0  0  0  0
   -2.6152    2.8303    1.2379 H   0  0  0  0  0  0  0  0  0  0  0  0
  1  2  1  0  0  0  0
  1  3  1  0  0  0  0
  1  4  1  0  0  0  0
  2  9  2  3  0  0  0
  3  5  1  0  0  0  0
  3 12  1  0  0  0  0
  3 13  1  0  0  0  0
  4  6  1  0  0  0  0
  4 14  1  0  0  0  0
  4 15  1  0  0  0  0
  5  7  1  0  0  0  0
  5 16  1  0  0  0  0
  5 17  1  0  0  0  0
  6  8  1  0  0  0  0
  6 18  1  0  0  0  0
  6 19  1  0  0  0  0
  7 20  1  0  0  0  0
  7 21  1  0  0  0  0
  7 22  1  0  0  0  0
  8 23  1  0  0  0  0
  8 24  1  0  0  0  0
  8 25  1  0  0  0  0
  9 10  1  0  0  0  0
  9 26  1  0  0  0  0
 10 11  1  0  0  0  0
 10 27  1  0  0  0  0
 10 28  1  0  0  0  0
 11 29  1  0  0  0  0
 11 30  1  0  0  0  0
 11 31  1  0  0  0  0
M  END
> <PUBCHEM_COMPOUND_CID>
141914

> <PUBCHEM_CONFORMER_RMSD>
0.6

> <PUBCHEM_CONFORMER_DIVERSEORDER>
1
16
72
79
42
70
66
7
60
44
84
65
30
78
55
71
28
59
38
58
83
10
31
41
34
48
68
47
75
54
77
40
36
80
35
73
33
69
62
2
74
46
29
67
15
64
57
25
21
63
3
6
50
45
56
37
76
43
49
13
81
24
32
39
82
61
12
27
52
8
9
18
4
20
51
23
53
26
14
5
22
19
11
17

> <PUBCHEM_MMFF94_PARTIAL_CHARGES>
7
1 -0.49
10 0.06
2 -0.5
26 0.06
3 0.27
4 0.27
9 0.33

> <PUBCHEM_EFFECTIVE_ROTOR_COUNT>
6

> <PUBCHEM_PHARMACOPHORE_FEATURES>
4
1 11 hydrophobe
1 2 acceptor
1 7 hydrophobe
1 8 hydrophobe

> <PUBCHEM_HEAVY_ATOM_COUNT>
11

> <PUBCHEM_ATOM_DEF_STEREO_COUNT>
0

> <PUBCHEM_ATOM_UDEF_STEREO_COUNT>
0

> <PUBCHEM_BOND_DEF_STEREO_COUNT>
0

> <PUBCHEM_BOND_UDEF_STEREO_COUNT>
1

> <PUBCHEM_ISOTOPIC_ATOM_COUNT>
0

> <PUBCHEM_COMPONENT_COUNT>
1

> <PUBCHEM_CACTVS_TAUTO_COUNT>
1

> <PUBCHEM_CONFORMER_ID>
00022A5A00000001

> <PUBCHEM_MMFF94_ENERGY>
4.8132

> <PUBCHEM_FEATURE_SELFOVERLAP>
20.297

> <PUBCHEM_SHAPE_FINGERPRINT>
1 1 17545040403172068725
13380535 76 18125714591697443038
18410436 195 18051973911508238263
19021347 4 18194681453959423584
193761 8 18194401095790728586
20388701 513 18411705404096719322
20711985 327 18052827128078604927
20711985 344 18337379517697361842
21041028 32 18118982522819575675
21499 59 18048590422124868549
21524375 3 17982157929748312916
23526114 1 17762898062322577095
23530152 11 18050569538912274493
23598294 1 18335693932291675010
2748010 2 18052238872293569229
3250762 1 18127141779260507950
58734987 24 18411695465684691255
58734987 43 17905610260776851926
68521 5 18338237171058005086
7364860 26 17330274381935815343
81228 2 18335990834411058914

> <PUBCHEM_SHAPE_MULTIPOLES>
216.41
4.98
3.69
0.64
5.11
1.04
0
-0.51
0.09
-5.12
-0.07
-0.01
0.04
-0.03

> <PUBCHEM_SHAPE_SELFOVERLAP>
388.246

> <PUBCHEM_SHAPE_VOLUME>
140.7

> <PUBCHEM_COORDINATE_TYPE>
2
5
10

$$$$
