2453
  -OEChem-11012400473D

 18 19  0     0  0  0  0  0  0999 V2000
    0.1972   -3.4826    0.0001 Br  0  0  0  0  0  0  0  0  0  0  0  0
   -3.8483    0.4056    0.0002 Br  0  0  0  0  0  0  0  0  0  0  0  0
   -1.4381    2.3416   -0.0001 O   0  0  0  0  0  0  0  0  0  0  0  0
    1.2228    1.7590    0.0001 N   0  0  0  0  0  0  0  0  0  0  0  0
    0.7279   -0.5994   -0.0002 C   0  0  0  0  0  0  0  0  0  0  0  0
    0.3276    0.7531   -0.0001 C   0  0  0  0  0  0  0  0  0  0  0  0
   -1.0363    1.0325    0.0000 C   0  0  0  0  0  0  0  0  0  0  0  0
   -0.2337   -1.6241    0.0000 C   0  0  0  0  0  0  0  0  0  0  0  0
    2.1007   -0.8813    0.0000 C   0  0  0  0  0  0  0  0  0  0  0  0
   -1.9926    0.0140   -0.0001 C   0  0  0  0  0  0  0  0  0  0  0  0
   -1.5911   -1.3160   -0.0001 C   0  0  0  0  0  0  0  0  0  0  0  0
    3.0254    0.1531    0.0001 C   0  0  0  0  0  0  0  0  0  0  0  0
    2.5384    1.4444    0.0001 C   0  0  0  0  0  0  0  0  0  0  0  0
    2.4910   -1.8943    0.0000 H   0  0  0  0  0  0  0  0  0  0  0  0
   -2.3364   -2.1084    0.0000 H   0  0  0  0  0  0  0  0  0  0  0  0
    4.0906   -0.0461    0.0001 H   0  0  0  0  0  0  0  0  0  0  0  0
    3.2140    2.2934    0.0002 H   0  0  0  0  0  0  0  0  0  0  0  0
   -2.4105    2.3645    0.0000 H   0  0  0  0  0  0  0  0  0  0  0  0
  1  8  1  0  0  0  0
  2 10  1  0  0  0  0
  3  7  1  0  0  0  0
  3 18  1  0  0  0  0
  4  6  1  0  0  0  0
  4 13  2  0  0  0  0
  5  6  2  0  0  0  0
  5  8  1  0  0  0  0
  5  9  1  0  0  0  0
  6  7  1  0  0  0  0
  7 10  2  0  0  0  0
  8 11  2  0  0  0  0
  9 12  2  0  0  0  0
  9 14  1  0  0  0  0
 10 11  1  0  0  0  0
 11 15  1  0  0  0  0
 12 13  1  0  0  0  0
 12 16  1  0  0  0  0
 13 17  1  0  0  0  0
M  END
> <PUBCHEM_COMPOUND_CID>
2453

> <PUBCHEM_CONFORMER_RMSD>
0.4

> <PUBCHEM_CONFORMER_DIVERSEORDER>
1

> <PUBCHEM_MMFF94_PARTIAL_CHARGES>
17
1 -0.11
10 0.11
11 -0.15
12 -0.15
13 0.16
14 0.15
15 0.15
16 0.15
17 0.15
18 0.45
2 -0.11
3 -0.53
4 -0.62
6 0.31
7 0.08
8 0.11
9 -0.15

> <PUBCHEM_EFFECTIVE_ROTOR_COUNT>
0

> <PUBCHEM_PHARMACOPHORE_FEATURES>
6
1 1 hydrophobe
1 2 hydrophobe
1 3 donor
1 4 acceptor
6 4 5 6 9 12 13 rings
6 5 6 7 8 10 11 rings

> <PUBCHEM_HEAVY_ATOM_COUNT>
13

> <PUBCHEM_ATOM_DEF_STEREO_COUNT>
0

> <PUBCHEM_ATOM_UDEF_STEREO_COUNT>
0

> <PUBCHEM_BOND_DEF_STEREO_COUNT>
0

> <PUBCHEM_BOND_UDEF_STEREO_COUNT>
0

> <PUBCHEM_ISOTOPIC_ATOM_COUNT>
0

> <PUBCHEM_COMPONENT_COUNT>
1

> <PUBCHEM_CACTVS_TAUTO_COUNT>
3

> <PUBCHEM_CONFORMER_ID>
0000099500000001

> <PUBCHEM_MMFF94_ENERGY>
37.3658

> <PUBCHEM_FEATURE_SELFOVERLAP>
30.477

> <PUBCHEM_SHAPE_FINGERPRINT>
1 1 18410571747600441487
10967382 1 18410573963808671847
11471102 20 18410288074011704525
13140716 1 18410855499057447339
13380535 76 18411698807032350831
14251717 144 18411975850182878975
14325111 11 18410856598542635941
15309172 13 18411428323093007859
16945 1 18338797810392990951
17990270 104 17977101258518500939
193761 8 17762336920639934565
20645476 183 17897180206379252398
20645477 70 18264199228531410439
20871998 184 17911810385408162750
21501502 16 18194398029368078486
2334 1 18194402414493011235
23402539 116 18270951435978094734
23402655 69 18340754959167211229
23419403 2 15592925729464120241
23463225 33 18263077713237583282
23526114 1 17834678197305069991
23552423 10 18122066394731060119
23559900 14 18271258128016205438
241688 4 17185877190449303963
2748010 2 18337960120045503639
3071541 250 17836092177906515735
5084963 1 18131068208054393104
528886 8 18411414042263373563
53812653 166 18341890826706580552
54173680 148 18049724311008264202
7364860 26 18124312709892821647
81228 2 17761764470303666523

> <PUBCHEM_SHAPE_MULTIPOLES>
268.57
4.45
3.01
0.63
1.96
2.44
0
-1.8
0
-0.43
0
0.04
0.06
0

> <PUBCHEM_SHAPE_SELFOVERLAP>
560.951

> <PUBCHEM_SHAPE_VOLUME>
158.2

> <PUBCHEM_COORDINATE_TYPE>
2
5
10

$$$$
