142430
  -OEChem-11012400563D

 37 36  0     0  0  0  0  0  0999 V2000
    1.3659   -2.5767    1.2587 F   0  0  0  0  0  0  0  0  0  0  0  0
    2.9677    0.7639   -1.5213 F   0  0  0  0  0  0  0  0  0  0  0  0
   -3.7432   -0.4690    0.4432 F   0  0  0  0  0  0  0  0  0  0  0  0
   -1.1177    0.4877    0.2803 O   0  0  0  0  0  0  0  0  0  0  0  0
    0.2973    1.7872    1.5183 O   0  0  0  0  0  0  0  0  0  0  0  0
   -1.7959   -2.3767   -0.0321 O   0  5  0  0  0  0  0  0  0  0  0  0
    0.5375   -3.5629   -1.8479 O   0  5  0  0  0  0  0  0  0  0  0  0
    3.2293    3.0152    1.0412 O   0  5  0  0  0  0  0  0  0  0  0  0
    5.2304    0.5379    0.9563 O   0  5  0  0  0  0  0  0  0  0  0  0
   -0.9655   -2.5549    1.9951 O   0  0  0  0  0  0  0  0  0  0  0  0
    1.0610   -4.6931   -0.0373 O   0  0  0  0  0  0  0  0  0  0  0  0
    2.4956    3.1118   -1.0285 O   0  0  0  0  0  0  0  0  0  0  0  0
    5.4253    1.0610   -1.1693 O   0  0  0  0  0  0  0  0  0  0  0  0
   -3.2372    1.8374   -2.0255 O   0  5  0  0  0  0  0  0  0  0  0  0
   -4.5558    2.7930    0.7158 O   0  5  0  0  0  0  0  0  0  0  0  0
   -3.6022   -0.3294   -1.9804 O   0  0  0  0  0  0  0  0  0  0  0  0
   -5.7883    0.9871    0.4920 O   0  0  0  0  0  0  0  0  0  0  0  0
    1.1289   -0.0274    0.3251 N   0  0  0  0  0  0  0  0  0  0  0  0
   -0.8524   -2.4551    0.7657 N   0  3  0  0  0  0  0  0  0  0  0  0
    0.7229   -3.6579   -0.6273 N   0  3  0  0  0  0  0  0  0  0  0  0
    2.9780    2.5086   -0.0603 N   0  3  0  0  0  0  0  0  0  0  0  0
    4.7623    0.8718   -0.1404 N   0  3  0  0  0  0  0  0  0  0  0  0
   -3.4347    0.7681   -1.4322 N   0  3  0  0  0  0  0  0  0  0  0  0
   -4.7081    1.5911    0.4585 N   0  3  0  0  0  0  0  0  0  0  0  0
    0.8560   -1.1515   -0.5650 C   0  0  0  0  0  0  0  0  0  0  0  0
    2.5181    0.1499    0.7231 C   0  0  0  0  0  0  0  0  0  0  0  0
    0.5370   -2.4173    0.1992 C   0  0  0  0  0  0  0  0  0  0  0  0
    3.2731    1.0470   -0.2324 C   0  0  0  0  0  0  0  0  0  0  0  0
    0.1159    0.8289    0.7692 C   0  0  0  0  0  0  0  0  0  0  0  0
   -2.2113    1.3169    0.6906 C   0  0  0  0  0  0  0  0  0  0  0  0
   -3.4899    0.8074    0.0675 C   0  0  0  0  0  0  0  0  0  0  0  0
    0.0512   -0.8857   -1.2609 H   0  0  0  0  0  0  0  0  0  0  0  0
    1.7497   -1.2964   -1.1850 H   0  0  0  0  0  0  0  0  0  0  0  0
    2.5412    0.5497    1.7444 H   0  0  0  0  0  0  0  0  0  0  0  0
    2.9778   -0.8448    0.7695 H   0  0  0  0  0  0  0  0  0  0  0  0
   -2.0004    2.3515    0.3928 H   0  0  0  0  0  0  0  0  0  0  0  0
   -2.2886    1.2699    1.7837 H   0  0  0  0  0  0  0  0  0  0  0  0
  1 27  1  0  0  0  0
  2 28  1  0  0  0  0
  3 31  1  0  0  0  0
  4 29  1  0  0  0  0
  4 30  1  0  0  0  0
  5 29  2  0  0  0  0
  6 19  1  0  0  0  0
  7 20  1  0  0  0  0
  8 21  1  0  0  0  0
  9 22  1  0  0  0  0
 10 19  2  0  0  0  0
 11 20  2  0  0  0  0
 12 21  2  0  0  0  0
 13 22  2  0  0  0  0
 14 23  1  0  0  0  0
 15 24  1  0  0  0  0
 16 23  2  0  0  0  0
 17 24  2  0  0  0  0
 18 25  1  0  0  0  0
 18 26  1  0  0  0  0
 18 29  1  0  0  0  0
 19 27  1  0  0  0  0
 20 27  1  0  0  0  0
 21 28  1  0  0  0  0
 22 28  1  0  0  0  0
 23 31  1  0  0  0  0
 24 31  1  0  0  0  0
 25 27  1  0  0  0  0
 25 32  1  0  0  0  0
 25 33  1  0  0  0  0
 26 28  1  0  0  0  0
 26 34  1  0  0  0  0
 26 35  1  0  0  0  0
 30 31  1  0  0  0  0
 30 36  1  0  0  0  0
 30 37  1  0  0  0  0
M  CHG  8   6  -1   7  -1   8  -1   9  -1  14  -1  15  -1  19   1  20   1
M  CHG  4  21   1  22   1  23   1  24   1
M  END
> <PUBCHEM_COMPOUND_CID>
142430

> <PUBCHEM_CONFORMER_RMSD>
1.2

> <PUBCHEM_CONFORMER_DIVERSEORDER>
1
19
2
18
7
16
5
17
3
20
9
15
21
11
12
13
4
14
10
6
8

> <PUBCHEM_MMFF94_PARTIAL_CHARGES>
31
1 -0.34
10 -0.52
11 -0.52
12 -0.52
13 -0.52
14 -0.52
15 -0.52
16 -0.52
17 -0.52
18 -0.66
19 0.8
2 -0.34
20 0.8
21 0.8
22 0.8
23 0.8
24 0.8
25 0.3
26 0.3
27 0.82
28 0.82
29 0.78
3 -0.34
30 0.28
31 0.82
4 -0.43
5 -0.57
6 -0.52
7 -0.52
8 -0.52
9 -0.52

> <PUBCHEM_EFFECTIVE_ROTOR_COUNT>
14

> <PUBCHEM_PHARMACOPHORE_FEATURES>
19
1 10 acceptor
1 11 acceptor
1 12 acceptor
1 13 acceptor
1 14 acceptor
1 14 anion
1 15 acceptor
1 15 anion
1 16 acceptor
1 17 acceptor
1 5 acceptor
1 6 acceptor
1 6 anion
1 7 acceptor
1 7 anion
1 8 acceptor
1 8 anion
1 9 acceptor
1 9 anion

> <PUBCHEM_HEAVY_ATOM_COUNT>
31

> <PUBCHEM_ATOM_DEF_STEREO_COUNT>
0

> <PUBCHEM_ATOM_UDEF_STEREO_COUNT>
0

> <PUBCHEM_BOND_DEF_STEREO_COUNT>
0

> <PUBCHEM_BOND_UDEF_STEREO_COUNT>
0

> <PUBCHEM_ISOTOPIC_ATOM_COUNT>
0

> <PUBCHEM_COMPONENT_COUNT>
1

> <PUBCHEM_CACTVS_TAUTO_COUNT>
1

> <PUBCHEM_CONFORMER_ID>
00022C5E00000001

> <PUBCHEM_MMFF94_ENERGY>
65.1436

> <PUBCHEM_FEATURE_SELFOVERLAP>
96.937

> <PUBCHEM_SHAPE_FINGERPRINT>
12160290 23 17830992978152696827
12173636 292 18267868461504102877
12788726 201 17541662055201714152
13583140 156 16805870858116288057
14251751 93 18338514256631094511
14713325 29 18189060965451720811
16752209 62 18267018552143509130
1813 80 17479457837669500735
20567600 347 18411986827591929094
20600515 1 16331321326040594640
21524375 3 18334574672219726586
22907989 373 17976258263917746509
23559900 14 18272373131374954184
23598288 3 17973173004463078794
238 59 18118654692239519655
3060560 45 18409732837830304164
352729 6 18339655528452626264
4340502 62 18336559248285619305
4409770 3 18195533816363963730
474 4 18411138013347645521
59755656 520 18410858767416640366
6287921 2 18115601348502316461
633830 44 18202561795688364261

> <PUBCHEM_SHAPE_MULTIPOLES>
499.11
9.42
4.56
1.5
2.42
4.85
-0.43
-8.92
-0.95
-1.59
-0.13
0.42
0.13
-0.09

> <PUBCHEM_SHAPE_SELFOVERLAP>
1023.769

> <PUBCHEM_SHAPE_VOLUME>
287

> <PUBCHEM_COORDINATE_TYPE>
2
5
10

$$$$
