7595
  -OEChem-11012400353D

 28 29  0     0  0  0  0  0  0999 V2000
    0.0062    1.2573   -0.0004 O   0  0  0  0  0  0  0  0  0  0  0  0
   -1.1568   -0.7767    0.0003 N   0  0  0  0  0  0  0  0  0  0  0  0
    1.1531   -0.7809    0.0002 N   0  0  0  0  0  0  0  0  0  0  0  0
   -2.4935   -0.3771    0.0003 C   0  0  0  0  0  0  0  0  0  0  0  0
    2.5082   -0.3739    0.0000 C   0  0  0  0  0  0  0  0  0  0  0  0
    0.0070    0.0304    0.0000 C   0  0  0  0  0  0  0  0  0  0  0  0
   -3.5076   -1.3349    0.0006 C   0  0  0  0  0  0  0  0  0  0  0  0
    3.5047   -1.3358   -0.0007 C   0  0  0  0  0  0  0  0  0  0  0  0
   -2.8160    0.9800   -0.0006 C   0  0  0  0  0  0  0  0  0  0  0  0
    2.8099    0.9781    0.0009 C   0  0  0  0  0  0  0  0  0  0  0  0
   -4.8441   -0.9354    0.0003 C   0  0  0  0  0  0  0  0  0  0  0  0
    4.8407   -0.9346   -0.0007 C   0  0  0  0  0  0  0  0  0  0  0  0
   -4.1524    1.3794   -0.0006 C   0  0  0  0  0  0  0  0  0  0  0  0
    4.1458    1.3793    0.0007 C   0  0  0  0  0  0  0  0  0  0  0  0
   -5.1665    0.4217   -0.0002 C   0  0  0  0  0  0  0  0  0  0  0  0
    5.1612    0.4230   -0.0001 C   0  0  0  0  0  0  0  0  0  0  0  0
   -1.0013   -1.7818    0.0007 H   0  0  0  0  0  0  0  0  0  0  0  0
    0.9994   -1.7861    0.0000 H   0  0  0  0  0  0  0  0  0  0  0  0
   -3.2710   -2.3959    0.0011 H   0  0  0  0  0  0  0  0  0  0  0  0
    3.2659   -2.3957   -0.0012 H   0  0  0  0  0  0  0  0  0  0  0  0
   -2.0910    1.7813   -0.0011 H   0  0  0  0  0  0  0  0  0  0  0  0
    2.0858    1.7788    0.0019 H   0  0  0  0  0  0  0  0  0  0  0  0
   -5.6338   -1.6810    0.0005 H   0  0  0  0  0  0  0  0  0  0  0  0
    5.6314   -1.6792   -0.0013 H   0  0  0  0  0  0  0  0  0  0  0  0
   -4.4050    2.4359   -0.0010 H   0  0  0  0  0  0  0  0  0  0  0  0
    4.3970    2.4361    0.0014 H   0  0  0  0  0  0  0  0  0  0  0  0
   -6.2071    0.7327   -0.0003 H   0  0  0  0  0  0  0  0  0  0  0  0
    6.2014    0.7353   -0.0002 H   0  0  0  0  0  0  0  0  0  0  0  0
  1  6  2  0  0  0  0
  2  4  1  0  0  0  0
  2  6  1  0  0  0  0
  2 17  1  0  0  0  0
  3  5  1  0  0  0  0
  3  6  1  0  0  0  0
  3 18  1  0  0  0  0
  4  7  2  0  0  0  0
  4  9  1  0  0  0  0
  5  8  2  0  0  0  0
  5 10  1  0  0  0  0
  7 11  1  0  0  0  0
  7 19  1  0  0  0  0
  8 12  1  0  0  0  0
  8 20  1  0  0  0  0
  9 13  2  0  0  0  0
  9 21  1  0  0  0  0
 10 14  2  0  0  0  0
 10 22  1  0  0  0  0
 11 15  2  0  0  0  0
 11 23  1  0  0  0  0
 12 16  2  0  0  0  0
 12 24  1  0  0  0  0
 13 15  1  0  0  0  0
 13 25  1  0  0  0  0
 14 16  1  0  0  0  0
 14 26  1  0  0  0  0
 15 27  1  0  0  0  0
 16 28  1  0  0  0  0
M  END
> <PUBCHEM_COMPOUND_CID>
7595

> <PUBCHEM_CONFORMER_RMSD>
0.6

> <PUBCHEM_CONFORMER_DIVERSEORDER>
1
3
2

> <PUBCHEM_MMFF94_PARTIAL_CHARGES>
28
1 -0.57
10 -0.15
11 -0.15
12 -0.15
13 -0.15
14 -0.15
15 -0.15
16 -0.15
17 0.37
18 0.37
19 0.15
2 -0.55
20 0.15
21 0.15
22 0.15
23 0.15
24 0.15
25 0.15
26 0.15
27 0.15
28 0.15
3 -0.55
4 0.12
5 0.12
6 0.69
7 -0.15
8 -0.15
9 -0.15

> <PUBCHEM_EFFECTIVE_ROTOR_COUNT>
4

> <PUBCHEM_PHARMACOPHORE_FEATURES>
5
1 1 acceptor
1 2 donor
1 3 donor
6 4 7 9 11 13 15 rings
6 5 8 10 12 14 16 rings

> <PUBCHEM_HEAVY_ATOM_COUNT>
16

> <PUBCHEM_ATOM_DEF_STEREO_COUNT>
0

> <PUBCHEM_ATOM_UDEF_STEREO_COUNT>
0

> <PUBCHEM_BOND_DEF_STEREO_COUNT>
0

> <PUBCHEM_BOND_UDEF_STEREO_COUNT>
0

> <PUBCHEM_ISOTOPIC_ATOM_COUNT>
0

> <PUBCHEM_COMPONENT_COUNT>
1

> <PUBCHEM_CACTVS_TAUTO_COUNT>
2

> <PUBCHEM_CONFORMER_ID>
00001DAB00000001

> <PUBCHEM_MMFF94_ENERGY>
51.6405

> <PUBCHEM_FEATURE_SELFOVERLAP>
25.42

> <PUBCHEM_SHAPE_FINGERPRINT>
10014705 185 18260544503246256245
10680689 15 17385724682112748861
11287383 113 18409168830871595522
12107183 9 17689997834345213747
13081056 2 18409448085382024972
13167823 11 18410853261110622723
13533116 47 14620524376558043718
13675066 3 18114187436208656401
14123238 8 18333450949687060839
1420 363 18113907073966306699
14341114 176 18410299111555357185
14528608 73 18410859901657291020
15196674 1 18410575084663234821
17834072 33 18341611542131405750
17844677 252 18411426106695015865
18186145 218 17749102292481630154
200 152 18131349704532288017
20645477 70 18342178817713454486
21267235 1 18410864256221430851
22485316 2 18410572889935018018
23402539 116 18342733023054860791
23402655 69 18341895203837209862
23557571 272 17822290145670598276
23559900 14 18413103974550543088
239999 70 18343869896930692558
300161 21 18408878538242545547
3004659 81 18335422336188215406
34797466 226 17489315238500665908
351380 180 18410292518764688080
3545911 37 18410857659151443348
4073 2 18040722506269403290
42 15 18407761430181269678
4214541 1 18410855447507179393
42788 4 18410856563934854311
5104073 3 18410855455838496192
5374978 207 18411131433900691072
542803 24 18410575088958046213
7495541 125 17632010961212051522
77779 3 18410856559639822054
90127 26 18261403229942574376
9709674 26 18410863152515530334
9971528 1 17821730537723888052

> <PUBCHEM_SHAPE_MULTIPOLES>
313.44
13.05
1.5
0.6
0.06
0.1
0
0.15
0
0
0
0
0
0

> <PUBCHEM_SHAPE_SELFOVERLAP>
669.49

> <PUBCHEM_SHAPE_VOLUME>
172.1

> <PUBCHEM_COORDINATE_TYPE>
2
5
10

$$$$
