140124
  -OEChem-11012401023D

 10 10  0     0  0  0  0  0  0999 V2000
    0.6496    0.0046    0.0004 N   0  0  0  0  0  0  0  0  0  0  0  0
   -0.0169   -1.1583    0.0000 N   0  0  0  0  0  0  0  0  0  0  0  0
   -0.1014    1.1147    0.0000 N   0  0  0  0  0  0  0  0  0  0  0  0
   -1.3523    0.6705    0.0000 N   0  0  0  0  0  0  0  0  0  0  0  0
    2.0886    0.0586   -0.0002 C   0  0  0  0  0  0  0  0  0  0  0  0
   -1.2676   -0.6901   -0.0001 C   0  0  0  0  0  0  0  0  0  0  0  0
    2.4247    0.1578    1.0344 H   0  0  0  0  0  0  0  0  0  0  0  0
    2.4818   -0.8603   -0.4420 H   0  0  0  0  0  0  0  0  0  0  0  0
    2.4106    0.9195   -0.5913 H   0  0  0  0  0  0  0  0  0  0  0  0
   -2.1227   -1.3481   -0.0003 H   0  0  0  0  0  0  0  0  0  0  0  0
  1  2  1  0  0  0  0
  1  3  1  0  0  0  0
  1  5  1  0  0  0  0
  2  6  2  0  0  0  0
  3  4  2  0  0  0  0
  4  6  1  0  0  0  0
  5  7  1  0  0  0  0
  5  8  1  0  0  0  0
  5  9  1  0  0  0  0
  6 10  1  0  0  0  0
M  END
> <PUBCHEM_COMPOUND_CID>
140124

> <PUBCHEM_CONFORMER_RMSD>
0.4

> <PUBCHEM_CONFORMER_DIVERSEORDER>
1

> <PUBCHEM_MMFF94_PARTIAL_CHARGES>
7
1 0.58
10 0.15
2 -0.71
3 -0.42
4 -0.23
5 0.26
6 0.37

> <PUBCHEM_EFFECTIVE_ROTOR_COUNT>
0

> <PUBCHEM_PHARMACOPHORE_FEATURES>
2
3 2 4 6 cation
5 1 2 3 4 6 rings

> <PUBCHEM_HEAVY_ATOM_COUNT>
6

> <PUBCHEM_ATOM_DEF_STEREO_COUNT>
0

> <PUBCHEM_ATOM_UDEF_STEREO_COUNT>
0

> <PUBCHEM_BOND_DEF_STEREO_COUNT>
0

> <PUBCHEM_BOND_UDEF_STEREO_COUNT>
0

> <PUBCHEM_ISOTOPIC_ATOM_COUNT>
0

> <PUBCHEM_COMPONENT_COUNT>
1

> <PUBCHEM_CACTVS_TAUTO_COUNT>
1

> <PUBCHEM_CONFORMER_ID>
0002235C00000001

> <PUBCHEM_MMFF94_ENERGY>
3.5185

> <PUBCHEM_FEATURE_SELFOVERLAP>
10.148

> <PUBCHEM_SHAPE_FINGERPRINT>
139733 1 9294748479197148194
16714656 1 18410863169810742558
20096714 4 18338237042282832600
21015797 1 9222070769296545259
21040471 1 18266740177594842821
5943 1 12534210034512211275

> <PUBCHEM_SHAPE_MULTIPOLES>
103.55
2.08
1.1
0.55
0.94
0.01
0
-0.02
0
-0.24
0
0.01
-0.01
0

> <PUBCHEM_SHAPE_SELFOVERLAP>
203.595

> <PUBCHEM_SHAPE_VOLUME>
64

> <PUBCHEM_COORDINATE_TYPE>
2
5
10

$$$$
