24942143
  -OEChem-10312420152D

 23 20  0     0  0  0  0  0  0999 V2000
    3.0000    0.0000    0.0000 Hf  0  0  0  0  0  0  0  0  0  0  0  0
    4.0000    0.0000    0.0000 Cl  0  5  0  0  0  0  0  0  0  0  0  0
    2.0000    0.0000    0.0000 Cl  0  5  0  0  0  0  0  0  0  0  0  0
    2.1910   -1.5878    0.0000 C   0  0  0  0  0  0  0  0  0  0  0  0
    3.8090    1.5878    0.0000 C   0  0  0  0  0  0  0  0  0  0  0  0
    2.5000   -2.5388    0.0000 C   0  0  0  0  0  0  0  0  0  0  0  0
    3.5000    2.5388    0.0000 C   0  0  0  0  0  0  0  0  0  0  0  0
    3.5000   -2.5388    0.0000 C   0  0  0  0  0  0  0  0  0  0  0  0
    2.5000    2.5388    0.0000 C   0  0  0  0  0  0  0  0  0  0  0  0
    3.8090   -1.5878    0.0000 C   0  0  0  0  0  0  0  0  0  0  0  0
    2.1910    1.5878    0.0000 C   0  0  0  0  0  0  0  0  0  0  0  0
    3.0000   -1.0000    0.0000 C   0  5  0  0  0  0  0  0  0  0  0  0
    3.0000    1.0000    0.0000 C   0  5  0  0  0  0  0  0  0  0  0  0
    1.8810   -1.0508    0.0000 H   0  0  0  0  0  0  0  0  0  0  0  0
    1.6246   -1.8400    0.0000 H   0  0  0  0  0  0  0  0  0  0  0  0
    4.1190    1.0508    0.0000 H   0  0  0  0  0  0  0  0  0  0  0  0
    4.3754    1.8400    0.0000 H   0  0  0  0  0  0  0  0  0  0  0  0
    2.1356   -3.0404    0.0000 H   0  0  0  0  0  0  0  0  0  0  0  0
    3.8644    3.0404    0.0000 H   0  0  0  0  0  0  0  0  0  0  0  0
    3.8644   -3.0404    0.0000 H   0  0  0  0  0  0  0  0  0  0  0  0
    2.1356    3.0404    0.0000 H   0  0  0  0  0  0  0  0  0  0  0  0
    4.3987   -1.3962    0.0000 H   0  0  0  0  0  0  0  0  0  0  0  0
    1.6013    1.3962    0.0000 H   0  0  0  0  0  0  0  0  0  0  0  0
  4  6  1  0  0  0  0
  4 12  1  0  0  0  0
  4 14  1  0  0  0  0
  4 15  1  0  0  0  0
  5  7  1  0  0  0  0
  5 13  1  0  0  0  0
  5 16  1  0  0  0  0
  5 17  1  0  0  0  0
  6  8  2  0  0  0  0
  6 18  1  0  0  0  0
  7  9  2  0  0  0  0
  7 19  1  0  0  0  0
  8 10  1  0  0  0  0
  8 20  1  0  0  0  0
  9 11  1  0  0  0  0
  9 21  1  0  0  0  0
 10 12  2  0  0  0  0
 10 22  1  0  0  0  0
 11 13  2  0  0  0  0
 11 23  1  0  0  0  0
M  CHG  5   1   4   2  -1   3  -1  12  -1  13  -1
M  END
> <PUBCHEM_COMPOUND_CID>
24942143

> <PUBCHEM_COMPOUND_CANONICALIZED>
1

> <PUBCHEM_CACTVS_COMPLEXITY>
68.1

> <PUBCHEM_CACTVS_HBOND_ACCEPTOR>
4

> <PUBCHEM_CACTVS_HBOND_DONOR>
0

> <PUBCHEM_CACTVS_ROTATABLE_BOND>
0

> <PUBCHEM_CACTVS_SUBSKEYS>
AAADccBwAAAGAAAAAAABAAAAAAAAAQIAAAAAAAAAAAAAAAAAAAAAGAAAAAAACACAAAAAAAAAAACAACBCAAAAAAAgAAAICAAAAAgIAAAAAQAAAAAAAAAIgAIAAAAAAAAAAAAAAAAAAAAAAAAAAAAAAAAAAA==

> <PUBCHEM_IUPAC_OPENEYE_NAME>
cyclopenta-1,3-diene;hafnium(4+);dichloride

> <PUBCHEM_IUPAC_CAS_NAME>
cyclopenta-1,3-diene;hafnium(4+);dichloride

> <PUBCHEM_IUPAC_NAME_MARKUP>
cyclopenta-1,3-diene;hafnium(4+);dichloride

> <PUBCHEM_IUPAC_NAME>
cyclopenta-1,3-diene;hafnium(4+);dichloride

> <PUBCHEM_IUPAC_SYSTEMATIC_NAME>
cyclopenta-1,3-diene;hafnium(4+);dichloride

> <PUBCHEM_IUPAC_TRADITIONAL_NAME>
cyclopenta-1,3-diene;hafnium(4+);dichloride

> <PUBCHEM_IUPAC_INCHI>
InChI=1S/2C5H5.2ClH.Hf/c2*1-2-4-5-3-1;;;/h2*1-3H,4H2;2*1H;/q2*-1;;;+4/p-2

> <PUBCHEM_IUPAC_INCHIKEY>
IXKLRFLZVHXNCF-UHFFFAOYSA-L

> <PUBCHEM_EXACT_MASS>
379.96252

> <PUBCHEM_MOLECULAR_FORMULA>
C10H10Cl2Hf

> <PUBCHEM_MOLECULAR_WEIGHT>
379.57

> <PUBCHEM_OPENEYE_CAN_SMILES>
C1C=CC=[C-]1.C1C=CC=[C-]1.[Cl-].[Cl-].[Hf+4]

> <PUBCHEM_OPENEYE_ISO_SMILES>
C1C=CC=[C-]1.C1C=CC=[C-]1.[Cl-].[Cl-].[Hf+4]

> <PUBCHEM_CACTVS_TPSA>
0

> <PUBCHEM_MONOISOTOPIC_WEIGHT>
379.96252

> <PUBCHEM_TOTAL_CHARGE>
0

> <PUBCHEM_HEAVY_ATOM_COUNT>
13

> <PUBCHEM_ATOM_DEF_STEREO_COUNT>
0

> <PUBCHEM_ATOM_UDEF_STEREO_COUNT>
0

> <PUBCHEM_BOND_DEF_STEREO_COUNT>
0

> <PUBCHEM_BOND_UDEF_STEREO_COUNT>
0

> <PUBCHEM_ISOTOPIC_ATOM_COUNT>
0

> <PUBCHEM_COMPONENT_COUNT>
5

> <PUBCHEM_CACTVS_TAUTO_COUNT>
-1

> <PUBCHEM_COORDINATE_TYPE>
1
5
255

$$$$
