12484781
  -OEChem-11012400513D

 47 49  0     1  0  0  0  0  0999 V2000
    1.5325   -0.0419    0.3297 S   0  0  0  0  0  0  0  0  0  0  0  0
   -1.4024   -0.1236    0.8362 Si  0  0  0  0  0  0  0  0  0  0  0  0
   -1.5789    1.4170    0.1933 O   0  0  0  0  0  0  0  0  0  0  0  0
   -1.6131   -1.2379   -0.4011 O   0  0  0  0  0  0  0  0  0  0  0  0
   -2.6130   -0.3593    1.9752 O   0  0  0  0  0  0  0  0  0  0  0  0
   -4.3582    0.2229   -0.5432 N   0  0  0  0  0  0  0  0  0  0  0  0
   -3.7959    1.5173   -0.9177 C   0  0  0  0  0  0  0  0  0  0  0  0
   -3.9155   -0.9547   -1.2842 C   0  0  0  0  0  0  0  0  0  0  0  0
   -2.2578    1.6098   -1.0510 C   0  0  1  0  0  0  0  0  0  0  0  0
   -2.8786   -1.8747   -0.5978 C   0  0  1  0  0  0  0  0  0  0  0  0
   -4.7844    0.0376    0.8395 C   0  0  0  0  0  0  0  0  0  0  0  0
   -3.7898    0.4443    1.9387 C   0  0  0  0  0  0  0  0  0  0  0  0
    0.2819   -0.3202    1.6172 C   0  0  0  0  0  0  0  0  0  0  0  0
   -1.8727    3.0115   -1.5301 C   0  0  0  0  0  0  0  0  0  0  0  0
   -2.6072   -3.0881   -1.4903 C   0  0  0  0  0  0  0  0  0  0  0  0
    3.0151   -0.3066    1.3307 C   0  0  0  0  0  0  0  0  0  0  0  0
    4.2773   -0.1430    0.5296 C   0  0  0  0  0  0  0  0  0  0  0  0
    4.8754    1.1074    0.4414 C   0  0  0  0  0  0  0  0  0  0  0  0
    4.8296   -1.2442   -0.1114 C   0  0  0  0  0  0  0  0  0  0  0  0
    6.0462    1.2592   -0.3014 C   0  0  0  0  0  0  0  0  0  0  0  0
    6.0005   -1.0923   -0.8542 C   0  0  0  0  0  0  0  0  0  0  0  0
    6.6088    0.1594   -0.9491 C   0  0  0  0  0  0  0  0  0  0  0  0
   -4.1521    2.2887   -0.2228 H   0  0  0  0  0  0  0  0  0  0  0  0
   -4.2340    1.7845   -1.8885 H   0  0  0  0  0  0  0  0  0  0  0  0
   -3.5426   -0.6511   -2.2709 H   0  0  0  0  0  0  0  0  0  0  0  0
   -4.8116   -1.5545   -1.4911 H   0  0  0  0  0  0  0  0  0  0  0  0
   -1.8827    0.9077   -1.8067 H   0  0  0  0  0  0  0  0  0  0  0  0
   -3.2637   -2.2661    0.3526 H   0  0  0  0  0  0  0  0  0  0  0  0
   -5.0971   -1.0015    1.0005 H   0  0  0  0  0  0  0  0  0  0  0  0
   -5.6931    0.6359    0.9836 H   0  0  0  0  0  0  0  0  0  0  0  0
   -3.5422    1.5128    1.9043 H   0  0  0  0  0  0  0  0  0  0  0  0
   -4.2869    0.2953    2.9052 H   0  0  0  0  0  0  0  0  0  0  0  0
    0.4169    0.4082    2.4220 H   0  0  0  0  0  0  0  0  0  0  0  0
    0.3960   -1.3278    2.0273 H   0  0  0  0  0  0  0  0  0  0  0  0
   -0.7847    3.0945   -1.6290 H   0  0  0  0  0  0  0  0  0  0  0  0
   -2.3278    3.2415   -2.4983 H   0  0  0  0  0  0  0  0  0  0  0  0
   -2.1815    3.7732   -0.8054 H   0  0  0  0  0  0  0  0  0  0  0  0
   -2.1814   -2.7810   -2.4521 H   0  0  0  0  0  0  0  0  0  0  0  0
   -1.8730   -3.7509   -1.0189 H   0  0  0  0  0  0  0  0  0  0  0  0
   -3.5217   -3.6594   -1.6763 H   0  0  0  0  0  0  0  0  0  0  0  0
    2.9821   -1.3119    1.7666 H   0  0  0  0  0  0  0  0  0  0  0  0
    3.0157    0.3996    2.1693 H   0  0  0  0  0  0  0  0  0  0  0  0
    4.4456    1.9711    0.9410 H   0  0  0  0  0  0  0  0  0  0  0  0
    4.3639   -2.2236   -0.0452 H   0  0  0  0  0  0  0  0  0  0  0  0
    6.5198    2.2338   -0.3758 H   0  0  0  0  0  0  0  0  0  0  0  0
    6.4385   -1.9484   -1.3588 H   0  0  0  0  0  0  0  0  0  0  0  0
    7.5203    0.2778   -1.5276 H   0  0  0  0  0  0  0  0  0  0  0  0
  1 13  1  0  0  0  0
  1 16  1  0  0  0  0
  2  3  1  0  0  0  0
  2  4  1  0  0  0  0
  2  5  1  0  0  0  0
  2 13  1  0  0  0  0
  3  9  1  0  0  0  0
  4 10  1  0  0  0  0
  5 12  1  0  0  0  0
  6  7  1  0  0  0  0
  6  8  1  0  0  0  0
  6 11  1  0  0  0  0
  7  9  1  0  0  0  0
  7 23  1  0  0  0  0
  7 24  1  0  0  0  0
  8 10  1  0  0  0  0
  8 25  1  0  0  0  0
  8 26  1  0  0  0  0
  9 14  1  0  0  0  0
  9 27  1  0  0  0  0
 10 15  1  0  0  0  0
 10 28  1  0  0  0  0
 11 12  1  0  0  0  0
 11 29  1  0  0  0  0
 11 30  1  0  0  0  0
 12 31  1  0  0  0  0
 12 32  1  0  0  0  0
 13 33  1  0  0  0  0
 13 34  1  0  0  0  0
 14 35  1  0  0  0  0
 14 36  1  0  0  0  0
 14 37  1  0  0  0  0
 15 38  1  0  0  0  0
 15 39  1  0  0  0  0
 15 40  1  0  0  0  0
 16 17  1  0  0  0  0
 16 41  1  0  0  0  0
 16 42  1  0  0  0  0
 17 18  2  0  0  0  0
 17 19  1  0  0  0  0
 18 20  1  0  0  0  0
 18 43  1  0  0  0  0
 19 21  2  0  0  0  0
 19 44  1  0  0  0  0
 20 22  2  0  0  0  0
 20 45  1  0  0  0  0
 21 22  1  0  0  0  0
 21 46  1  0  0  0  0
 22 47  1  0  0  0  0
M  END
> <PUBCHEM_COMPOUND_CID>
12484781

> <PUBCHEM_CONFORMER_RMSD>
0.8

> <PUBCHEM_CONFORMER_DIVERSEORDER>
1
18
15
9
14
10
17
8
21
16
3
6
12
2
4
19
13
7
20
11
5

> <PUBCHEM_MMFF94_PARTIAL_CHARGES>
25
1 -0.46
10 0.28
11 0.27
12 0.28
13 0.15
16 0.37
17 -0.14
18 -0.15
19 -0.15
2 0.97
20 -0.15
21 -0.15
22 -0.15
3 -0.58
4 -0.58
43 0.15
44 0.15
45 0.15
46 0.15
47 0.15
5 -0.58
6 -0.81
7 0.27
8 0.27
9 0.28

> <PUBCHEM_EFFECTIVE_ROTOR_COUNT>
5.8

> <PUBCHEM_PHARMACOPHORE_FEATURES>
2
1 6 cation
6 17 18 19 20 21 22 rings

> <PUBCHEM_HEAVY_ATOM_COUNT>
22

> <PUBCHEM_ATOM_DEF_STEREO_COUNT>
0

> <PUBCHEM_ATOM_UDEF_STEREO_COUNT>
2

> <PUBCHEM_BOND_DEF_STEREO_COUNT>
0

> <PUBCHEM_BOND_UDEF_STEREO_COUNT>
0

> <PUBCHEM_ISOTOPIC_ATOM_COUNT>
0

> <PUBCHEM_COMPONENT_COUNT>
1

> <PUBCHEM_CACTVS_TAUTO_COUNT>
1

> <PUBCHEM_CONFORMER_ID>
00BE80AD00000001

> <PUBCHEM_MMFF94_ENERGY>
63.9344

> <PUBCHEM_FEATURE_SELFOVERLAP>
10.148

> <PUBCHEM_SHAPE_FINGERPRINT>
10670039 82 17241050903955390364
10680689 15 18335421266197858074
11315181 36 16988842791570632842
12670546 177 18342173380279030542
13914758 101 10951780651050669251
13994607 96 17531241730397421055
14251757 5 18412823616291910766
14840074 17 18335425672628783359
14910302 57 18129929161574384808
15183329 4 18131073714920086026
15250474 111 18131630054893160294
15575132 122 18114455678475654637
15799311 1 17774459221536977070
15849732 13 18410015455695291083
17844677 252 18410013209190486268
17857418 61 12679461976426009740
19958102 18 18272921726677455446
22061861 79 18131635556829740230
221357 26 18335421257967158680
23198884 109 17846782905408841361
23466295 7 18125722529035305291
23559900 14 17346307250180917290
255183 451 17689424306790520247
3004659 81 17918279736618365866
497634 4 18060421347522414760
531348 171 18263921051578126890
559249 180 14476964441411212752
59755656 520 17775010055355916971
633830 44 17313939711140181610

> <PUBCHEM_SHAPE_MULTIPOLES>
452.22
14.77
2.3
1.73
25.73
0
0.38
0.22
-2.95
-2.16
-1.68
-1.54
-0.03
-0.05

> <PUBCHEM_SHAPE_SELFOVERLAP>
905.785

> <PUBCHEM_SHAPE_VOLUME>
265.8

> <PUBCHEM_COORDINATE_TYPE>
2
5
10

$$$$
