1622530
  -OEChem-11012401273D

 23 23  0     0  0  0  0  0  0999 V2000
   -0.6751   -1.8924    0.5678 O   0  0  0  0  0  0  0  0  0  0  0  0
    3.7177    0.2954    0.6410 O   0  0  0  0  0  0  0  0  0  0  0  0
    1.5654    0.8658    1.1381 O   0  0  0  0  0  0  0  0  0  0  0  0
   -0.3305    0.1341   -0.6766 C   0  0  0  0  0  0  0  0  0  0  0  0
   -1.0483   -0.6192    0.2523 C   0  0  0  0  0  0  0  0  0  0  0  0
   -0.7339    1.4341   -0.9814 C   0  0  0  0  0  0  0  0  0  0  0  0
   -2.1698   -0.0727    0.8761 C   0  0  0  0  0  0  0  0  0  0  0  0
   -1.8553    1.9808   -0.3575 C   0  0  0  0  0  0  0  0  0  0  0  0
    0.8435   -0.4142   -1.3419 C   0  0  0  0  0  0  0  0  0  0  0  0
   -2.5732    1.2274    0.5712 C   0  0  0  0  0  0  0  0  0  0  0  0
    2.1091   -0.3385   -0.8771 C   0  0  0  0  0  0  0  0  0  0  0  0
   -1.2357   -2.9435   -0.2154 C   0  0  0  0  0  0  0  0  0  0  0  0
    2.3861    0.3429    0.4033 C   0  0  0  0  0  0  0  0  0  0  0  0
   -0.1859    2.0351   -1.7033 H   0  0  0  0  0  0  0  0  0  0  0  0
   -2.7337   -0.6530    1.6014 H   0  0  0  0  0  0  0  0  0  0  0  0
   -2.1695    2.9930   -0.5946 H   0  0  0  0  0  0  0  0  0  0  0  0
    0.6587   -0.9159   -2.2881 H   0  0  0  0  0  0  0  0  0  0  0  0
   -3.4462    1.6531    1.0572 H   0  0  0  0  0  0  0  0  0  0  0  0
    2.9307   -0.7721   -1.4359 H   0  0  0  0  0  0  0  0  0  0  0  0
   -0.9898   -2.8182   -1.2743 H   0  0  0  0  0  0  0  0  0  0  0  0
   -2.3220   -2.9781   -0.0853 H   0  0  0  0  0  0  0  0  0  0  0  0
   -0.8129   -3.8907    0.1307 H   0  0  0  0  0  0  0  0  0  0  0  0
    3.9561    0.7360    1.4845 H   0  0  0  0  0  0  0  0  0  0  0  0
  1  5  1  0  0  0  0
  1 12  1  0  0  0  0
  2 13  1  0  0  0  0
  2 23  1  0  0  0  0
  3 13  2  0  0  0  0
  4  5  1  0  0  0  0
  4  6  2  0  0  0  0
  4  9  1  0  0  0  0
  5  7  2  0  0  0  0
  6  8  1  0  0  0  0
  6 14  1  0  0  0  0
  7 10  1  0  0  0  0
  7 15  1  0  0  0  0
  8 10  2  0  0  0  0
  8 16  1  0  0  0  0
  9 11  2  0  0  0  0
  9 17  1  0  0  0  0
 10 18  1  0  0  0  0
 11 13  1  0  0  0  0
 11 19  1  0  0  0  0
 12 20  1  0  0  0  0
 12 21  1  0  0  0  0
 12 22  1  0  0  0  0
M  END
> <PUBCHEM_COMPOUND_CID>
1622530

> <PUBCHEM_CONFORMER_RMSD>
0.6

> <PUBCHEM_CONFORMER_DIVERSEORDER>
2
10
5
9
3
7
4
8
6
1

> <PUBCHEM_MMFF94_PARTIAL_CHARGES>
20
1 -0.36
10 -0.15
11 -0.14
12 0.28
13 0.71
14 0.15
15 0.15
16 0.15
17 0.15
18 0.15
19 0.15
2 -0.65
23 0.5
3 -0.57
4 0.03
5 0.08
6 -0.15
7 -0.15
8 -0.15
9 -0.18

> <PUBCHEM_EFFECTIVE_ROTOR_COUNT>
3

> <PUBCHEM_PHARMACOPHORE_FEATURES>
5
1 1 acceptor
1 2 acceptor
1 3 acceptor
3 2 3 13 anion
6 4 5 6 7 8 10 rings

> <PUBCHEM_HEAVY_ATOM_COUNT>
13

> <PUBCHEM_ATOM_DEF_STEREO_COUNT>
0

> <PUBCHEM_ATOM_UDEF_STEREO_COUNT>
0

> <PUBCHEM_BOND_DEF_STEREO_COUNT>
1

> <PUBCHEM_BOND_UDEF_STEREO_COUNT>
0

> <PUBCHEM_ISOTOPIC_ATOM_COUNT>
0

> <PUBCHEM_COMPONENT_COUNT>
1

> <PUBCHEM_CACTVS_TAUTO_COUNT>
1

> <PUBCHEM_CONFORMER_ID>
0018C20200000002

> <PUBCHEM_MMFF94_ENERGY>
48.9015

> <PUBCHEM_FEATURE_SELFOVERLAP>
25.427

> <PUBCHEM_SHAPE_FINGERPRINT>
1 1 17977667511312374367
10857977 72 18189353319764909413
12326174 3 17555731002021099959
12423570 1 14042388921700104381
13024252 1 14707197799690473213
13299463 15 10881395435314377808
14817 1 13060684737559285287
15076042 46 17677058944776448000
15775835 57 18335421210083818992
16945 1 18338809990856783189
20645464 45 18343022159963226276
20653085 51 15912775985424452153
20871998 184 18335713770545297499
21930827 45 18341062860217571438
21947302 44 17774163383777879292
22112679 90 17903098933348323615
23211744 41 18129105524122519837
23388829 49 17190100951635165927
23402539 116 18270668879181614295
23419403 2 17338120415691998007
257057 1 17762612193742320895
27216 239 17629460141939421592
2748010 2 18045802099628670135
305870 269 18122057598537648681
369184 2 18343016662178331541
4663303 62 17762336912171592215
5084963 1 18197236779296566165
53812654 25 18191037891900900615
54338 74 18118116094423741943
63268167 104 15769776819226115064
7364860 26 17619067231557892095
81228 2 18266748054823651427

> <PUBCHEM_SHAPE_MULTIPOLES>
249.93
3.95
2.25
1.16
2.79
1.77
0.11
-1.39
-1.19
-1.6
0.17
0.28
-0.14
0.39

> <PUBCHEM_SHAPE_SELFOVERLAP>
520.944

> <PUBCHEM_SHAPE_VOLUME>
141.7

> <PUBCHEM_COORDINATE_TYPE>
2
5
10

$$$$
