5462763
  -OEChem-11012401283D

 35 36  0     0  0  0  0  0  0999 V2000
   -2.9234   -2.9370    0.1092 O   0  5  0  0  0  0  0  0  0  0  0  0
   -0.9226   -2.1118   -0.2587 O   0  0  0  0  0  0  0  0  0  0  0  0
   -2.1604   -1.9710   -0.1243 N   0  3  0  0  0  0  0  0  0  0  0  0
   -0.2904    0.8690    2.7474 N   0  0  0  0  0  0  0  0  0  0  0  0
    1.9067    0.2973    0.0390 C   0  0  0  0  0  0  0  0  0  0  0  0
    2.6740    1.4067   -0.2757 C   0  0  0  0  0  0  0  0  0  0  0  0
    2.4654   -0.9689    0.1117 C   0  0  0  0  0  0  0  0  0  0  0  0
    3.8286   -1.1291   -0.1372 C   0  0  0  0  0  0  0  0  0  0  0  0
    0.4618    0.4337    0.3076 C   0  0  0  0  0  0  0  0  0  0  0  0
    4.0372    1.2464   -0.5243 C   0  0  0  0  0  0  0  0  0  0  0  0
    4.6144   -0.0216   -0.4552 C   0  0  0  0  0  0  0  0  0  0  0  0
   -1.9208    0.4467   -0.5008 C   0  0  0  0  0  0  0  0  0  0  0  0
   -0.4758    0.3340   -0.6654 C   0  0  0  0  0  0  0  0  0  0  0  0
    2.0895    2.7799   -0.3604 C   0  0  0  0  0  0  0  0  0  0  0  0
   -2.7199   -0.6670   -0.2413 C   0  0  0  0  0  0  0  0  0  0  0  0
    4.4470   -2.4842   -0.0633 C   0  0  0  0  0  0  0  0  0  0  0  0
   -2.5006    1.7107   -0.6102 C   0  0  0  0  0  0  0  0  0  0  0  0
   -4.0985   -0.5163   -0.0911 C   0  0  0  0  0  0  0  0  0  0  0  0
   -3.8792    1.8610   -0.4601 C   0  0  0  0  0  0  0  0  0  0  0  0
   -4.6781    0.7476   -0.2006 C   0  0  0  0  0  0  0  0  0  0  0  0
    0.0451    0.6740    1.6537 C   0  0  0  0  0  0  0  0  0  0  0  0
    1.8583   -1.8348    0.3641 H   0  0  0  0  0  0  0  0  0  0  0  0
    4.6649    2.0980   -0.7732 H   0  0  0  0  0  0  0  0  0  0  0  0
    5.6779   -0.1332   -0.6494 H   0  0  0  0  0  0  0  0  0  0  0  0
   -0.1580    0.1614   -1.6933 H   0  0  0  0  0  0  0  0  0  0  0  0
    1.3152    2.8246   -1.1334 H   0  0  0  0  0  0  0  0  0  0  0  0
    1.6628    3.0800    0.6021 H   0  0  0  0  0  0  0  0  0  0  0  0
    2.8466    3.5276   -0.6221 H   0  0  0  0  0  0  0  0  0  0  0  0
    3.7364   -3.2588   -0.3713 H   0  0  0  0  0  0  0  0  0  0  0  0
    5.3132   -2.5617   -0.7291 H   0  0  0  0  0  0  0  0  0  0  0  0
    4.7727   -2.6930    0.9606 H   0  0  0  0  0  0  0  0  0  0  0  0
   -1.8933    2.5899   -0.8129 H   0  0  0  0  0  0  0  0  0  0  0  0
   -4.7568   -1.3573    0.1117 H   0  0  0  0  0  0  0  0  0  0  0  0
   -4.3307    2.8451   -0.5454 H   0  0  0  0  0  0  0  0  0  0  0  0
   -5.7515    0.8654   -0.0838 H   0  0  0  0  0  0  0  0  0  0  0  0
  1  3  1  0  0  0  0
  2  3  2  0  0  0  0
  3 15  1  0  0  0  0
  4 21  3  0  0  0  0
  5  6  2  0  0  0  0
  5  7  1  0  0  0  0
  5  9  1  0  0  0  0
  6 10  1  0  0  0  0
  6 14  1  0  0  0  0
  7  8  2  0  0  0  0
  7 22  1  0  0  0  0
  8 11  1  0  0  0  0
  8 16  1  0  0  0  0
  9 13  2  0  0  0  0
  9 21  1  0  0  0  0
 10 11  2  0  0  0  0
 10 23  1  0  0  0  0
 11 24  1  0  0  0  0
 12 13  1  0  0  0  0
 12 15  1  0  0  0  0
 12 17  2  0  0  0  0
 13 25  1  0  0  0  0
 14 26  1  0  0  0  0
 14 27  1  0  0  0  0
 14 28  1  0  0  0  0
 15 18  2  0  0  0  0
 16 29  1  0  0  0  0
 16 30  1  0  0  0  0
 16 31  1  0  0  0  0
 17 19  1  0  0  0  0
 17 32  1  0  0  0  0
 18 20  1  0  0  0  0
 18 33  1  0  0  0  0
 19 20  2  0  0  0  0
 19 34  1  0  0  0  0
 20 35  1  0  0  0  0
M  CHG  2   1  -1   3   1
M  END
> <PUBCHEM_COMPOUND_CID>
5462763

> <PUBCHEM_CONFORMER_RMSD>
0.6

> <PUBCHEM_CONFORMER_DIVERSEORDER>
1
5
11
8
3
10
13
9
6
4
12
2
7

> <PUBCHEM_MMFF94_PARTIAL_CHARGES>
29
1 -0.52
10 -0.15
11 -0.15
12 0.03
13 -0.18
14 0.14
15 0.13
16 0.14
17 -0.15
18 -0.15
19 -0.15
2 -0.52
20 -0.15
21 0.49
22 0.15
23 0.15
24 0.15
25 0.15
3 0.91
32 0.15
33 0.15
34 0.15
35 0.15
4 -0.56
5 0.03
6 -0.14
7 -0.15
8 -0.14
9 0.04

> <PUBCHEM_EFFECTIVE_ROTOR_COUNT>
3

> <PUBCHEM_PHARMACOPHORE_FEATURES>
6
1 1 acceptor
1 1 anion
1 2 acceptor
1 4 acceptor
6 12 15 17 18 19 20 rings
6 5 6 7 8 10 11 rings

> <PUBCHEM_HEAVY_ATOM_COUNT>
21

> <PUBCHEM_ATOM_DEF_STEREO_COUNT>
0

> <PUBCHEM_ATOM_UDEF_STEREO_COUNT>
0

> <PUBCHEM_BOND_DEF_STEREO_COUNT>
1

> <PUBCHEM_BOND_UDEF_STEREO_COUNT>
0

> <PUBCHEM_ISOTOPIC_ATOM_COUNT>
0

> <PUBCHEM_COMPONENT_COUNT>
1

> <PUBCHEM_CACTVS_TAUTO_COUNT>
1

> <PUBCHEM_CONFORMER_ID>
00535AEB00000001

> <PUBCHEM_MMFF94_ENERGY>
74.8304

> <PUBCHEM_FEATURE_SELFOVERLAP>
30.528

> <PUBCHEM_SHAPE_FINGERPRINT>
10616163 171 18338800138154846758
10759866 29 18338524139846500878
11405975 8 18410855473134604072
11578080 2 17773025578174694457
12236239 1 17989208114612620964
12363563 72 16415478250746673816
12592029 89 18188773816743811651
12707595 3 16988561350605747640
12788726 201 17631461080981574136
13583140 156 17916577790585229792
14115302 16 18273214192332590064
14251751 93 18187920643223363839
14866123 147 17261316899877166954
15196674 1 18409729555984718679
15238133 3 17203062811206417385
15420108 30 15108615961697364872
16752209 62 16988572260017819192
17349148 13 17775008933984187660
17492 89 18336265755447777262
18186145 218 17167858660302537324
19784866 240 18199192780934664206
200 152 18060419092986227172
20645477 70 18337674114305628830
21065198 57 18410011056715298460
21267235 1 18408893914236118870
221490 88 18335708307652767634
22393880 68 18339934826345206716
23175994 123 17418095416583422033
23402539 116 18270954662037013629
23559900 14 18342734109839841984
3004659 81 18189056409213969766
335352 9 18337670789362417718
3545911 37 18410293631478099348
4214541 1 18409166610405204093
474 4 17096090328101762020
4921388 177 17095814311991385907
5104073 3 18409728473663217824
58051976 100 18409450322933165135
6287921 2 17970072351244230092
633830 44 16877944944601792172
69090 78 18261109664638232549
7226269 152 17559672837180071073
77779 3 18408041814204775228
81228 2 14275733103090636440
9709674 26 18337112357778362622
9981440 41 17177724827231746988

> <PUBCHEM_SHAPE_MULTIPOLES>
410.47
9.38
2.65
1.14
0.96
0.88
-1
1.2
2
0.29
0.3
-0.11
-0.38
0.02

> <PUBCHEM_SHAPE_SELFOVERLAP>
888.294

> <PUBCHEM_SHAPE_VOLUME>
223.9

> <PUBCHEM_COORDINATE_TYPE>
2
5
10

$$$$
