140711
  -OEChem-11012401023D

 25 26  0     1  0  0  0  0  0999 V2000
   -0.7448    0.6298    0.8657 C   0  0  2  0  0  0  0  0  0  0  0  0
   -0.2777   -1.2589   -0.2222 C   0  0  1  0  0  0  0  0  0  0  0  0
    0.7059    0.8650    0.3784 C   0  0  1  0  0  0  0  0  0  0  0  0
    0.9915   -0.4038   -0.4672 C   0  0  1  0  0  0  0  0  0  0  0  0
   -0.6936   -0.8643    1.1970 C   0  0  0  0  0  0  0  0  0  0  0  0
   -1.7533    0.6410   -0.2958 C   0  0  0  0  0  0  0  0  0  0  0  0
   -1.4291   -0.6566   -1.0495 C   0  0  0  0  0  0  0  0  0  0  0  0
    0.9345    2.1615   -0.3842 C   0  0  0  0  0  0  0  0  0  0  0  0
    2.2667   -1.1138   -0.0221 C   0  0  0  0  0  0  0  0  0  0  0  0
   -1.0323    1.2761    1.6981 H   0  0  0  0  0  0  0  0  0  0  0  0
   -0.1391   -2.3289   -0.3914 H   0  0  0  0  0  0  0  0  0  0  0  0
    1.3601    0.8819    1.2612 H   0  0  0  0  0  0  0  0  0  0  0  0
    1.0929   -0.1655   -1.5332 H   0  0  0  0  0  0  0  0  0  0  0  0
    0.0501   -1.1156    1.9595 H   0  0  0  0  0  0  0  0  0  0  0  0
   -1.6657   -1.2748    1.4912 H   0  0  0  0  0  0  0  0  0  0  0  0
   -1.6794    1.5244   -0.9344 H   0  0  0  0  0  0  0  0  0  0  0  0
   -2.7792    0.5985    0.0890 H   0  0  0  0  0  0  0  0  0  0  0  0
   -2.3003   -1.3217   -1.0460 H   0  0  0  0  0  0  0  0  0  0  0  0
   -1.1491   -0.4698   -2.0910 H   0  0  0  0  0  0  0  0  0  0  0  0
    2.0012    2.2910   -0.5965 H   0  0  0  0  0  0  0  0  0  0  0  0
    0.4093    2.1796   -1.3437 H   0  0  0  0  0  0  0  0  0  0  0  0
    0.6010    3.0209    0.2061 H   0  0  0  0  0  0  0  0  0  0  0  0
    2.4234   -2.0235   -0.6110 H   0  0  0  0  0  0  0  0  0  0  0  0
    3.1365   -0.4644   -0.1658 H   0  0  0  0  0  0  0  0  0  0  0  0
    2.2312   -1.4007    1.0337 H   0  0  0  0  0  0  0  0  0  0  0  0
  1  3  1  0  0  0  0
  1  5  1  0  0  0  0
  1  6  1  0  0  0  0
  1 10  1  0  0  0  0
  2  4  1  0  0  0  0
  2  5  1  0  0  0  0
  2  7  1  0  0  0  0
  2 11  1  0  0  0  0
  3  4  1  0  0  0  0
  3  8  1  0  0  0  0
  3 12  1  0  0  0  0
  4  9  1  0  0  0  0
  4 13  1  0  0  0  0
  5 14  1  0  0  0  0
  5 15  1  0  0  0  0
  6  7  1  0  0  0  0
  6 16  1  0  0  0  0
  6 17  1  0  0  0  0
  7 18  1  0  0  0  0
  7 19  1  0  0  0  0
  8 20  1  0  0  0  0
  8 21  1  0  0  0  0
  8 22  1  0  0  0  0
  9 23  1  0  0  0  0
  9 24  1  0  0  0  0
  9 25  1  0  0  0  0
M  END
> <PUBCHEM_COMPOUND_CID>
140711

> <PUBCHEM_CONFORMER_RMSD>
0.4

> <PUBCHEM_CONFORMER_DIVERSEORDER>
1
2
4
3

> <PUBCHEM_MMFF94_PARTIAL_CHARGES>
0

> <PUBCHEM_EFFECTIVE_ROTOR_COUNT>
1

> <PUBCHEM_PHARMACOPHORE_FEATURES>
1
7 1 2 3 4 5 6 7 rings

> <PUBCHEM_HEAVY_ATOM_COUNT>
9

> <PUBCHEM_ATOM_DEF_STEREO_COUNT>
0

> <PUBCHEM_ATOM_UDEF_STEREO_COUNT>
4

> <PUBCHEM_BOND_DEF_STEREO_COUNT>
0

> <PUBCHEM_BOND_UDEF_STEREO_COUNT>
0

> <PUBCHEM_ISOTOPIC_ATOM_COUNT>
0

> <PUBCHEM_COMPONENT_COUNT>
1

> <PUBCHEM_CACTVS_TAUTO_COUNT>
1

> <PUBCHEM_CONFORMER_ID>
000225A700000001

> <PUBCHEM_MMFF94_ENERGY>
30.9709

> <PUBCHEM_FEATURE_SELFOVERLAP>
5.074

> <PUBCHEM_SHAPE_FINGERPRINT>
12423570 1 16615322976203377211
13024252 1 17460613415275867798
137420 1 10979034872400632359
14128692 85 17702647986179524086
15557651 10 17313657149182914053
16945 1 18411973672164935463
18185500 45 18271523100494220334
21040471 1 17838322335321473769
23552423 10 18267859665194679478
241688 4 18267855099591644336
29004967 10 18337962168554967434
369184 2 18262518061877132490
5084963 1 18411416207090485913
68250623 7 18268439099591363267

> <PUBCHEM_SHAPE_MULTIPOLES>
185.22
2.14
1.77
1.05
0.52
0.77
0.12
-0.37
-0.3
0.59
-0.14
-0.32
-0.13
-0.08

> <PUBCHEM_SHAPE_SELFOVERLAP>
384.702

> <PUBCHEM_SHAPE_VOLUME>
106.9

> <PUBCHEM_COORDINATE_TYPE>
2
5
10

$$$$
