142545
  -OEChem-11012401103D

 35 35  0     0  0  0  0  0  0999 V2000
    2.1460    1.4202   -0.0842 O   0  0  0  0  0  0  0  0  0  0  0  0
    1.3614   -0.8075   -0.3371 O   0  0  0  0  0  0  0  0  0  0  0  0
    1.1530    0.4612    0.2878 C   0  0  0  0  0  0  0  0  0  0  0  0
    3.7479   -0.3846   -0.3097 C   0  0  0  0  0  0  0  0  0  0  0  0
   -0.1966    0.9883   -0.1691 C   0  0  0  0  0  0  0  0  0  0  0  0
   -1.3275    0.0306    0.2052 C   0  0  0  0  0  0  0  0  0  0  0  0
    3.4479    0.9836    0.3072 C   0  0  0  0  0  0  0  0  0  0  0  0
    2.6224   -1.3607    0.0406 C   0  0  0  0  0  0  0  0  0  0  0  0
   -2.6888    0.5808   -0.2271 C   0  0  0  0  0  0  0  0  0  0  0  0
   -3.8226   -0.3618    0.1827 C   0  0  0  0  0  0  0  0  0  0  0  0
    5.1053   -0.9129    0.1328 C   0  0  0  0  0  0  0  0  0  0  0  0
   -5.2100    0.1540   -0.2056 C   0  0  0  0  0  0  0  0  0  0  0  0
   -6.3383   -0.7912    0.1766 C   0  0  0  0  0  0  0  0  0  0  0  0
    1.1491    0.3415    1.3797 H   0  0  0  0  0  0  0  0  0  0  0  0
    3.7467   -0.2600   -1.4009 H   0  0  0  0  0  0  0  0  0  0  0  0
   -0.1870    1.1279   -1.2580 H   0  0  0  0  0  0  0  0  0  0  0  0
   -0.3727    1.9791    0.2672 H   0  0  0  0  0  0  0  0  0  0  0  0
   -1.1717   -0.9466   -0.2668 H   0  0  0  0  0  0  0  0  0  0  0  0
   -1.3261   -0.1302    1.2903 H   0  0  0  0  0  0  0  0  0  0  0  0
    3.5032    0.9560    1.4023 H   0  0  0  0  0  0  0  0  0  0  0  0
    4.1695    1.7293   -0.0423 H   0  0  0  0  0  0  0  0  0  0  0  0
    2.7492   -2.3038   -0.5010 H   0  0  0  0  0  0  0  0  0  0  0  0
    2.6056   -1.5932    1.1123 H   0  0  0  0  0  0  0  0  0  0  0  0
   -2.7026    0.7214   -1.3146 H   0  0  0  0  0  0  0  0  0  0  0  0
   -2.8505    1.5648    0.2291 H   0  0  0  0  0  0  0  0  0  0  0  0
   -3.7913   -0.5170    1.2684 H   0  0  0  0  0  0  0  0  0  0  0  0
   -3.6620   -1.3426   -0.2818 H   0  0  0  0  0  0  0  0  0  0  0  0
    5.9030   -0.2179   -0.1492 H   0  0  0  0  0  0  0  0  0  0  0  0
    5.1443   -1.0501    1.2188 H   0  0  0  0  0  0  0  0  0  0  0  0
    5.3185   -1.8782   -0.3381 H   0  0  0  0  0  0  0  0  0  0  0  0
   -5.3833    1.1250    0.2734 H   0  0  0  0  0  0  0  0  0  0  0  0
   -5.2437    0.3237   -1.2885 H   0  0  0  0  0  0  0  0  0  0  0  0
   -7.3038   -0.3724   -0.1237 H   0  0  0  0  0  0  0  0  0  0  0  0
   -6.3592   -0.9560    1.2585 H   0  0  0  0  0  0  0  0  0  0  0  0
   -6.2188   -1.7611   -0.3164 H   0  0  0  0  0  0  0  0  0  0  0  0
  1  3  1  0  0  0  0
  1  7  1  0  0  0  0
  2  3  1  0  0  0  0
  2  8  1  0  0  0  0
  3  5  1  0  0  0  0
  3 14  1  0  0  0  0
  4  7  1  0  0  0  0
  4  8  1  0  0  0  0
  4 11  1  0  0  0  0
  4 15  1  0  0  0  0
  5  6  1  0  0  0  0
  5 16  1  0  0  0  0
  5 17  1  0  0  0  0
  6  9  1  0  0  0  0
  6 18  1  0  0  0  0
  6 19  1  0  0  0  0
  7 20  1  0  0  0  0
  7 21  1  0  0  0  0
  8 22  1  0  0  0  0
  8 23  1  0  0  0  0
  9 10  1  0  0  0  0
  9 24  1  0  0  0  0
  9 25  1  0  0  0  0
 10 12  1  0  0  0  0
 10 26  1  0  0  0  0
 10 27  1  0  0  0  0
 11 28  1  0  0  0  0
 11 29  1  0  0  0  0
 11 30  1  0  0  0  0
 12 13  1  0  0  0  0
 12 31  1  0  0  0  0
 12 32  1  0  0  0  0
 13 33  1  0  0  0  0
 13 34  1  0  0  0  0
 13 35  1  0  0  0  0
M  END
> <PUBCHEM_COMPOUND_CID>
142545

> <PUBCHEM_CONFORMER_RMSD>
0.6

> <PUBCHEM_CONFORMER_DIVERSEORDER>
1
110
25
19
72
3
97
73
55
74
32
89
88
9
105
77
30
106
20
108
80
5
102
18
64
82
63
21
111
34
101
35
69
90
60
11
109
15
67
46
100
78
93
54
17
103
12
8
68
112
57
107
70
39
49
96
85
98
4
84
65
41
92
16
113
13
28
48
81
75
51
44
86
53
71
104
27
45
61
87
40
66
83
58
47
10
2
99
29
42
79
36
50
62
7
95
76
59
24
14
91
38
94
26
37
22
23
56
6
43
52
31
33

> <PUBCHEM_MMFF94_PARTIAL_CHARGES>
5
1 -0.56
2 -0.56
3 0.56
7 0.28
8 0.28

> <PUBCHEM_EFFECTIVE_ROTOR_COUNT>
6.2

> <PUBCHEM_PHARMACOPHORE_FEATURES>
5
1 1 acceptor
1 13 hydrophobe
1 2 acceptor
5 5 6 9 10 12 hydrophobe
6 1 2 3 4 7 8 rings

> <PUBCHEM_HEAVY_ATOM_COUNT>
13

> <PUBCHEM_ATOM_DEF_STEREO_COUNT>
0

> <PUBCHEM_ATOM_UDEF_STEREO_COUNT>
0

> <PUBCHEM_BOND_DEF_STEREO_COUNT>
0

> <PUBCHEM_BOND_UDEF_STEREO_COUNT>
0

> <PUBCHEM_ISOTOPIC_ATOM_COUNT>
0

> <PUBCHEM_COMPONENT_COUNT>
1

> <PUBCHEM_CACTVS_TAUTO_COUNT>
1

> <PUBCHEM_CONFORMER_ID>
00022CD100000001

> <PUBCHEM_MMFF94_ENERGY>
11.996

> <PUBCHEM_FEATURE_SELFOVERLAP>
25.408

> <PUBCHEM_SHAPE_FINGERPRINT>
11287383 113 18187085091859267257
11471102 20 18410575102175458856
12714333 28 13551475868963802254
12815109 37 18410292501938370179
13167823 11 18272367603314057895
14123238 8 18186802483011105933
1420 363 18187088364809054195
14251717 144 18412827971198682462
14251718 22 17749109993605814415
14252887 29 17703515402570621374
14350574 20 18334014986246089639
14455015 7 18334582343400556579
15048467 5 10159691400389872282
15242439 84 17821729442517653249
15477762 27 18410294679665981510
17834072 33 18271806856499244893
17834072 8 18187357711061819789
17834076 25 12829488151464914613
200 152 18273213088879396929
20279233 1 18040442096380914467
20645477 70 18411138008978987655
20767249 13 18409166606358078459
21267235 1 18342183241244549310
22485316 2 18410853278844003119
23402539 116 17822005385413054021
23402655 69 18411979144000905821
23557571 272 17458623372254431565
26918003 58 18413952789132319923
2871803 45 18187364298555279395
33824 294 18408884023137815994
4047638 21 10664100056266052732
42 15 18341896286084682741
4214541 1 18410856534656346089
42788 4 18410855460676800969
465052 167 18342179963963183990
522135 26 18410575088968621716
5374978 207 17131830975537581160
542803 24 13551187784486025701
57483677 66 18411979187472883007

> <PUBCHEM_SHAPE_MULTIPOLES>
255.8
13.13
1.25
0.65
14.59
0.02
-0.01
-4.02
-0.33
-0.9
-0.01
0
0
0.22

> <PUBCHEM_SHAPE_SELFOVERLAP>
482.293

> <PUBCHEM_SHAPE_VOLUME>
158.8

> <PUBCHEM_COORDINATE_TYPE>
2
5
10

$$$$
