80431
  -OEChem-11012401283D

 22 22  0     0  0  0  0  0  0999 V2000
    2.0389   -0.0001    0.5673 S   0  0  0  0  0  0  0  0  0  0  0  0
   -0.5461   -0.0001   -0.3968 C   0  0  0  0  0  0  0  0  0  0  0  0
    0.8799    0.0000   -0.8344 C   0  0  0  0  0  0  0  0  0  0  0  0
   -1.2126    1.2079   -0.1920 C   0  0  0  0  0  0  0  0  0  0  0  0
   -1.2128   -1.2080   -0.1920 C   0  0  0  0  0  0  0  0  0  0  0  0
    3.5822    0.0001   -0.3724 C   0  0  0  0  0  0  0  0  0  0  0  0
   -2.5461    1.2080    0.2173 C   0  0  0  0  0  0  0  0  0  0  0  0
   -2.5463   -1.2079    0.2173 C   0  0  0  0  0  0  0  0  0  0  0  0
   -3.2130    0.0001    0.4219 C   0  0  0  0  0  0  0  0  0  0  0  0
    4.7759    0.0000    0.5636 C   0  0  0  0  0  0  0  0  0  0  0  0
    1.0775   -0.8788   -1.4593 H   0  0  0  0  0  0  0  0  0  0  0  0
    1.0774    0.8790   -1.4591 H   0  0  0  0  0  0  0  0  0  0  0  0
    3.6179   -0.8880   -1.0112 H   0  0  0  0  0  0  0  0  0  0  0  0
    3.6178    0.8883   -1.0109 H   0  0  0  0  0  0  0  0  0  0  0  0
   -0.7047    2.1563   -0.3467 H   0  0  0  0  0  0  0  0  0  0  0  0
   -0.7051   -2.1563   -0.3468 H   0  0  0  0  0  0  0  0  0  0  0  0
   -3.0652    2.1486    0.3771 H   0  0  0  0  0  0  0  0  0  0  0  0
   -3.0655   -2.1484    0.3770 H   0  0  0  0  0  0  0  0  0  0  0  0
    4.7861    0.8892    1.2032 H   0  0  0  0  0  0  0  0  0  0  0  0
    4.7861   -0.8894    1.2030 H   0  0  0  0  0  0  0  0  0  0  0  0
    5.7046    0.0000   -0.0169 H   0  0  0  0  0  0  0  0  0  0  0  0
   -4.2513    0.0001    0.7408 H   0  0  0  0  0  0  0  0  0  0  0  0
  1  3  1  0  0  0  0
  1  6  1  0  0  0  0
  2  3  1  0  0  0  0
  2  4  2  0  0  0  0
  2  5  1  0  0  0  0
  3 11  1  0  0  0  0
  3 12  1  0  0  0  0
  4  7  1  0  0  0  0
  4 15  1  0  0  0  0
  5  8  2  0  0  0  0
  5 16  1  0  0  0  0
  6 10  1  0  0  0  0
  6 13  1  0  0  0  0
  6 14  1  0  0  0  0
  7  9  2  0  0  0  0
  7 17  1  0  0  0  0
  8  9  1  0  0  0  0
  8 18  1  0  0  0  0
  9 22  1  0  0  0  0
 10 19  1  0  0  0  0
 10 20  1  0  0  0  0
 10 21  1  0  0  0  0
M  END
> <PUBCHEM_COMPOUND_CID>
80431

> <PUBCHEM_CONFORMER_RMSD>
0.6

> <PUBCHEM_CONFORMER_DIVERSEORDER>
1
6
4
2
5
7
3

> <PUBCHEM_MMFF94_PARTIAL_CHARGES>
14
1 -0.46
15 0.15
16 0.15
17 0.15
18 0.15
2 -0.14
22 0.15
3 0.37
4 -0.15
5 -0.15
6 0.23
7 -0.15
8 -0.15
9 -0.15

> <PUBCHEM_EFFECTIVE_ROTOR_COUNT>
3

> <PUBCHEM_PHARMACOPHORE_FEATURES>
2
1 10 hydrophobe
6 2 4 5 7 8 9 rings

> <PUBCHEM_HEAVY_ATOM_COUNT>
10

> <PUBCHEM_ATOM_DEF_STEREO_COUNT>
0

> <PUBCHEM_ATOM_UDEF_STEREO_COUNT>
0

> <PUBCHEM_BOND_DEF_STEREO_COUNT>
0

> <PUBCHEM_BOND_UDEF_STEREO_COUNT>
0

> <PUBCHEM_ISOTOPIC_ATOM_COUNT>
0

> <PUBCHEM_COMPONENT_COUNT>
1

> <PUBCHEM_CACTVS_TAUTO_COUNT>
1

> <PUBCHEM_CONFORMER_ID>
00013A2F00000001

> <PUBCHEM_MMFF94_ENERGY>
19.0838

> <PUBCHEM_FEATURE_SELFOVERLAP>
10.148

> <PUBCHEM_SHAPE_FINGERPRINT>
11062470 55 10952051156601303528
124424 183 17917707981322292920
12932764 1 17531236262745972988
13024252 1 14851604371606982117
14325111 11 18411983533647204382
15219456 202 17916876716003333030
190213 19 17967813842960120390
20279233 1 17775851207404781854
20645464 45 17917998273655885231
20711985 327 17022907856580273286
20828058 44 18408319982663166906
20871998 184 18272657899837349919
23402539 116 18272362088644381447
369184 2 18412824681548892459
75552 356 18408605880933946347

> <PUBCHEM_SHAPE_MULTIPOLES>
209.64
7.29
1.2
0.83
8.72
0
-0.02
0
1.55
-1.08
0.01
0.24
0
0

> <PUBCHEM_SHAPE_SELFOVERLAP>
403.78

> <PUBCHEM_SHAPE_VOLUME>
127.7

> <PUBCHEM_COORDINATE_TYPE>
2
5
10

$$$$
