69481
  -OEChem-11012400353D

 31 30  0     0  0  0  0  0  0999 V2000
    0.9090   -0.5961    1.2844 O   0  0  0  0  0  0  0  0  0  0  0  0
   -1.9791   -1.0196   -1.4858 O   0  0  0  0  0  0  0  0  0  0  0  0
    2.8940    1.0098   -1.2915 O   0  0  0  0  0  0  0  0  0  0  0  0
   -2.3951    1.8333    0.6418 O   0  0  0  0  0  0  0  0  0  0  0  0
   -4.2794    2.6897   -0.2874 O   0  0  0  0  0  0  0  0  0  0  0  0
   -0.0040   -2.2686   -0.0433 N   0  0  0  0  0  0  0  0  0  0  0  0
    3.3150   -0.7720    0.1373 N   0  0  0  0  0  0  0  0  0  0  0  0
   -3.1595   -0.6597    0.4817 N   0  0  0  0  0  0  0  0  0  0  0  0
    4.4199    2.6388    0.3168 N   0  0  0  0  0  0  0  0  0  0  0  0
   -1.3424   -2.2360    0.5019 C   0  0  0  0  0  0  0  0  0  0  0  0
    2.3022   -1.6688   -0.3721 C   0  0  0  0  0  0  0  0  0  0  0  0
    1.0173   -1.4395    0.3971 C   0  0  0  0  0  0  0  0  0  0  0  0
   -2.1678   -1.2444   -0.2922 C   0  0  0  0  0  0  0  0  0  0  0  0
   -4.1061    0.3019   -0.0365 C   0  0  0  0  0  0  0  0  0  0  0  0
    3.5276    0.5020   -0.3690 C   0  0  0  0  0  0  0  0  0  0  0  0
    4.6716    1.2049    0.3325 C   0  0  0  0  0  0  0  0  0  0  0  0
   -3.6233    1.7243    0.0844 C   0  0  0  0  0  0  0  0  0  0  0  0
   -1.2986   -1.9597    1.5597 H   0  0  0  0  0  0  0  0  0  0  0  0
   -1.7827   -3.2317    0.3985 H   0  0  0  0  0  0  0  0  0  0  0  0
    2.1348   -1.4811   -1.4371 H   0  0  0  0  0  0  0  0  0  0  0  0
    2.6471   -2.6956   -0.2205 H   0  0  0  0  0  0  0  0  0  0  0  0
    0.1813   -2.9210   -0.7997 H   0  0  0  0  0  0  0  0  0  0  0  0
    3.8898   -1.1045    0.9060 H   0  0  0  0  0  0  0  0  0  0  0  0
   -3.2332   -0.9055    1.4645 H   0  0  0  0  0  0  0  0  0  0  0  0
   -5.0272    0.1945    0.5431 H   0  0  0  0  0  0  0  0  0  0  0  0
   -4.2955    0.0869   -1.0923 H   0  0  0  0  0  0  0  0  0  0  0  0
    5.6032    0.9692   -0.1912 H   0  0  0  0  0  0  0  0  0  0  0  0
    4.7545    0.8647    1.3694 H   0  0  0  0  0  0  0  0  0  0  0  0
    4.4146    2.9750   -0.6457 H   0  0  0  0  0  0  0  0  0  0  0  0
    5.1905    3.1208    0.7782 H   0  0  0  0  0  0  0  0  0  0  0  0
   -2.1033    2.7675    0.7084 H   0  0  0  0  0  0  0  0  0  0  0  0
  1 12  2  0  0  0  0
  2 13  2  0  0  0  0
  3 15  2  0  0  0  0
  4 17  1  0  0  0  0
  4 31  1  0  0  0  0
  5 17  2  0  0  0  0
  6 10  1  0  0  0  0
  6 12  1  0  0  0  0
  6 22  1  0  0  0  0
  7 11  1  0  0  0  0
  7 15  1  0  0  0  0
  7 23  1  0  0  0  0
  8 13  1  0  0  0  0
  8 14  1  0  0  0  0
  8 24  1  0  0  0  0
  9 16  1  0  0  0  0
  9 29  1  0  0  0  0
  9 30  1  0  0  0  0
 10 13  1  0  0  0  0
 10 18  1  0  0  0  0
 10 19  1  0  0  0  0
 11 12  1  0  0  0  0
 11 20  1  0  0  0  0
 11 21  1  0  0  0  0
 14 17  1  0  0  0  0
 14 25  1  0  0  0  0
 14 26  1  0  0  0  0
 15 16  1  0  0  0  0
 16 27  1  0  0  0  0
 16 28  1  0  0  0  0
M  END
> <PUBCHEM_COMPOUND_CID>
69481

> <PUBCHEM_CONFORMER_RMSD>
0.8

> <PUBCHEM_CONFORMER_DIVERSEORDER>
1
60
7
89
56
95
48
53
85
12
64
65
88
61
44
47
49
59
36
20
45
84
77
37
40
27
23
86
32
30
19
93
76
67
17
70
66
78
21
51
94
31
97
98
81
50
58
25
68
46
55
10
28
96
42
87
24
52
34
92
41
33
5
18
54
6
57
80
43
82
3
35
2
38
13
71
73
72
63
39
15
74
79
83
69
14
91
9
62
75
16
4
99
11
8
22
29
90
26

> <PUBCHEM_MMFF94_PARTIAL_CHARGES>
23
1 -0.57
10 0.36
11 0.36
12 0.57
13 0.57
14 0.36
15 0.57
16 0.33
17 0.66
2 -0.57
22 0.37
23 0.37
24 0.37
29 0.36
3 -0.57
30 0.36
31 0.5
4 -0.65
5 -0.57
6 -0.73
7 -0.73
8 -0.73
9 -0.99

> <PUBCHEM_EFFECTIVE_ROTOR_COUNT>
10

> <PUBCHEM_PHARMACOPHORE_FEATURES>
11
1 1 acceptor
1 2 acceptor
1 3 acceptor
1 4 acceptor
1 5 acceptor
1 6 donor
1 7 donor
1 8 donor
1 9 cation
1 9 donor
3 4 5 17 anion

> <PUBCHEM_HEAVY_ATOM_COUNT>
17

> <PUBCHEM_ATOM_DEF_STEREO_COUNT>
0

> <PUBCHEM_ATOM_UDEF_STEREO_COUNT>
0

> <PUBCHEM_BOND_DEF_STEREO_COUNT>
0

> <PUBCHEM_BOND_UDEF_STEREO_COUNT>
0

> <PUBCHEM_ISOTOPIC_ATOM_COUNT>
0

> <PUBCHEM_COMPONENT_COUNT>
1

> <PUBCHEM_CACTVS_TAUTO_COUNT>
8

> <PUBCHEM_CONFORMER_ID>
00010F6900000001

> <PUBCHEM_MMFF94_ENERGY>
22.6033

> <PUBCHEM_FEATURE_SELFOVERLAP>
55.883

> <PUBCHEM_SHAPE_FINGERPRINT>
10498660 4 18339642235629214465
11046707 91 9367352534898900818
12173636 292 18409450318881472911
122479 349 18334581209244639531
12633257 1 15430330126100436189
12824470 246 8574419942220181335
14123250 116 17988379069343438641
14123255 52 18410011005296912489
14251764 75 18269850734962025817
1741750 31 18335701684549875474
17834072 32 18339362963838864521
1798214 55 18409169878790959045
20398071 114 18269264828197118392
21652331 79 18410577292724668569
21864079 5 18410290298282563275
22182937 141 18335989743663510451
23503958 8 11025786592155470334
235170 7 15841545267164752213
23557571 272 18118985803879749286
23590187 138 18270690766303241257
23590187 71 18413388756425335168
24859131 72 11025790998749691929
27216 239 18260833730391022971
4028521 119 18272936020122387593
474 4 17894355500972716966
7064713 232 18260550008809163876
8199 26 18410575084668470618

> <PUBCHEM_SHAPE_MULTIPOLES>
300.58
9.76
2.99
0.94
2.75
0.99
-0.14
8.25
-0.16
-0.69
0.16
0.08
-0.08
0.05

> <PUBCHEM_SHAPE_SELFOVERLAP>
583.459

> <PUBCHEM_SHAPE_VOLUME>
179.1

> <PUBCHEM_COORDINATE_TYPE>
2
5
10

$$$$
