11878
  -OEChem-11012401223D

 21 21  0     0  0  0  0  0  0999 V2000
   -3.5644    0.7622   -1.0973 O   0  5  0  0  0  0  0  0  0  0  0  0
   -3.5640    0.7621    1.0979 O   0  0  0  0  0  0  0  0  0  0  0  0
    2.9470   -1.3518   -1.0973 O   0  5  0  0  0  0  0  0  0  0  0  0
    2.9457   -1.3532    1.0980 O   0  0  0  0  0  0  0  0  0  0  0  0
    2.1785    2.0641    1.0978 O   0  5  0  0  0  0  0  0  0  0  0  0
    2.1780    2.0650   -1.0975 O   0  0  0  0  0  0  0  0  0  0  0  0
   -2.9891    0.5724    0.0002 N   0  3  0  0  0  0  0  0  0  0  0  0
    2.3737   -1.1594    0.0001 N   0  3  0  0  0  0  0  0  0  0  0  0
    1.7432    1.6451    0.0000 N   0  3  0  0  0  0  0  0  0  0  0  0
   -1.3323   -1.2345   -0.0005 C   0  0  0  0  0  0  0  0  0  0  0  0
   -1.6384    0.1264   -0.0001 C   0  0  0  0  0  0  0  0  0  0  0  0
    1.0248   -0.7043   -0.0005 C   0  0  0  0  0  0  0  0  0  0  0  0
    0.7187    0.6565   -0.0001 C   0  0  0  0  0  0  0  0  0  0  0  0
   -0.0007   -1.6499   -0.0008 C   0  0  0  0  0  0  0  0  0  0  0  0
   -0.6129    1.0719   -0.0001 C   0  0  0  0  0  0  0  0  0  0  0  0
   -2.4079   -2.2726   -0.0001 C   0  0  0  0  0  0  0  0  0  0  0  0
    0.2406   -2.7109   -0.0009 H   0  0  0  0  0  0  0  0  0  0  0  0
   -0.8522    2.1340    0.0002 H   0  0  0  0  0  0  0  0  0  0  0  0
   -3.0327   -2.1789    0.8942 H   0  0  0  0  0  0  0  0  0  0  0  0
   -3.0345   -2.1778   -0.8931 H   0  0  0  0  0  0  0  0  0  0  0  0
   -1.9952   -3.2875   -0.0012 H   0  0  0  0  0  0  0  0  0  0  0  0
  1  7  1  0  0  0  0
  2  7  2  0  0  0  0
  3  8  1  0  0  0  0
  4  8  2  0  0  0  0
  5  9  1  0  0  0  0
  6  9  2  0  0  0  0
  7 11  1  0  0  0  0
  8 12  1  0  0  0  0
  9 13  1  0  0  0  0
 10 11  1  0  0  0  0
 10 14  2  0  0  0  0
 10 16  1  0  0  0  0
 11 15  2  0  0  0  0
 12 13  2  0  0  0  0
 12 14  1  0  0  0  0
 13 15  1  0  0  0  0
 14 17  1  0  0  0  0
 15 18  1  0  0  0  0
 16 19  1  0  0  0  0
 16 20  1  0  0  0  0
 16 21  1  0  0  0  0
M  CHG  6   1  -1   3  -1   5  -1   7   1   8   1   9   1
M  END
> <PUBCHEM_COMPOUND_CID>
11878

> <PUBCHEM_CONFORMER_RMSD>
0.6

> <PUBCHEM_CONFORMER_DIVERSEORDER>
1
3
2

> <PUBCHEM_MMFF94_PARTIAL_CHARGES>
18
1 -0.52
10 -0.14
11 0.13
12 0.13
13 0.13
14 -0.15
15 -0.15
16 0.14
17 0.15
18 0.15
2 -0.52
3 -0.52
4 -0.52
5 -0.52
6 -0.52
7 0.91
8 0.91
9 0.91

> <PUBCHEM_EFFECTIVE_ROTOR_COUNT>
3

> <PUBCHEM_PHARMACOPHORE_FEATURES>
10
1 1 acceptor
1 1 anion
1 2 acceptor
1 3 acceptor
1 3 anion
1 4 acceptor
1 5 acceptor
1 5 anion
1 6 acceptor
6 10 11 12 13 14 15 rings

> <PUBCHEM_HEAVY_ATOM_COUNT>
16

> <PUBCHEM_ATOM_DEF_STEREO_COUNT>
0

> <PUBCHEM_ATOM_UDEF_STEREO_COUNT>
0

> <PUBCHEM_BOND_DEF_STEREO_COUNT>
0

> <PUBCHEM_BOND_UDEF_STEREO_COUNT>
0

> <PUBCHEM_ISOTOPIC_ATOM_COUNT>
0

> <PUBCHEM_COMPONENT_COUNT>
1

> <PUBCHEM_CACTVS_TAUTO_COUNT>
1

> <PUBCHEM_CONFORMER_ID>
00002E6600000001

> <PUBCHEM_MMFF94_ENERGY>
59.163

> <PUBCHEM_FEATURE_SELFOVERLAP>
50.995

> <PUBCHEM_SHAPE_FINGERPRINT>
10465860 71 18198362696699867414
11680986 33 18412259558257785898
12932764 1 17967816041788398483
13140716 1 18410855477556237107
13380535 21 18266191684664753229
13922767 16 18338789010057794529
14614273 12 18047176738150180525
14648413 74 18412267258954870970
14897335 6 18340196505295299637
14911166 2 18338517422090557303
14993402 34 18338518508548490919
15279308 100 18334290933779349045
16945 1 18338797793250116487
18186145 218 18410573955561563837
193761 8 18338797947784627559
20511035 2 18340763840262695694
21130352 189 18261668173426749229
21501502 16 18338517555255648583
21524375 3 17832145292182574316
22344851 341 18336258045901821010
2334 1 18266177412514997263
23402539 116 17983282738723140446
23419403 2 15175762445131377891
23552423 10 18261393411515596590
23557571 272 14979950346700508569
23559900 14 18341621374382918982
2748010 2 18337955700518868391
57177213 63 17900264400940564294
7364860 26 18273216434658900856
74978 22 18410856559840490023

> <PUBCHEM_SHAPE_MULTIPOLES>
279.11
5.19
2.34
0.94
1.74
0.11
0
-0.41
0
-0.77
0
-0.21
-0.18
0

> <PUBCHEM_SHAPE_SELFOVERLAP>
590.596

> <PUBCHEM_SHAPE_VOLUME>
157.3

> <PUBCHEM_COORDINATE_TYPE>
2
5
10

$$$$
