77778
  -OEChem-11012400583D

 21 21  0     0  0  0  0  0  0999 V2000
   -0.7504    0.0000   -0.0295 C   0  0  0  0  0  0  0  0  0  0  0  0
    0.7502   -0.0002   -0.0292 C   0  0  0  0  0  0  0  0  0  0  0  0
    0.0003    0.0000   -1.3288 C   0  0  0  0  0  0  0  0  0  0  0  0
   -1.4768   -1.2468    0.3467 C   0  0  0  0  0  0  0  0  0  0  0  0
   -1.4754    1.2478    0.3470 C   0  0  0  0  0  0  0  0  0  0  0  0
    1.4764    1.2469    0.3468 C   0  0  0  0  0  0  0  0  0  0  0  0
    1.4756   -1.2477    0.3470 C   0  0  0  0  0  0  0  0  0  0  0  0
    0.0002   -0.9018   -1.9317 H   0  0  0  0  0  0  0  0  0  0  0  0
    0.0004    0.9019   -1.9316 H   0  0  0  0  0  0  0  0  0  0  0  0
   -1.4203   -1.4098    1.4283 H   0  0  0  0  0  0  0  0  0  0  0  0
   -2.5365   -1.1751    0.0762 H   0  0  0  0  0  0  0  0  0  0  0  0
   -1.0951   -2.1431   -0.1523 H   0  0  0  0  0  0  0  0  0  0  0  0
   -2.5353    1.1770    0.0773 H   0  0  0  0  0  0  0  0  0  0  0  0
   -1.4178    1.4110    1.4286 H   0  0  0  0  0  0  0  0  0  0  0  0
   -1.0934    2.1436   -0.1526 H   0  0  0  0  0  0  0  0  0  0  0  0
    1.0948    2.1430   -0.1525 H   0  0  0  0  0  0  0  0  0  0  0  0
    1.4198    1.4100    1.4284 H   0  0  0  0  0  0  0  0  0  0  0  0
    2.5362    1.1753    0.0764 H   0  0  0  0  0  0  0  0  0  0  0  0
    1.0933   -2.1436   -0.1519 H   0  0  0  0  0  0  0  0  0  0  0  0
    2.5354   -1.1770    0.0766 H   0  0  0  0  0  0  0  0  0  0  0  0
    1.4189   -1.4106    1.4287 H   0  0  0  0  0  0  0  0  0  0  0  0
  1  2  1  0  0  0  0
  1  3  1  0  0  0  0
  1  4  1  0  0  0  0
  1  5  1  0  0  0  0
  2  3  1  0  0  0  0
  2  6  1  0  0  0  0
  2  7  1  0  0  0  0
  3  8  1  0  0  0  0
  3  9  1  0  0  0  0
  4 10  1  0  0  0  0
  4 11  1  0  0  0  0
  4 12  1  0  0  0  0
  5 13  1  0  0  0  0
  5 14  1  0  0  0  0
  5 15  1  0  0  0  0
  6 16  1  0  0  0  0
  6 17  1  0  0  0  0
  6 18  1  0  0  0  0
  7 19  1  0  0  0  0
  7 20  1  0  0  0  0
  7 21  1  0  0  0  0
M  END
> <PUBCHEM_COMPOUND_CID>
77778

> <PUBCHEM_CONFORMER_RMSD>
0.4

> <PUBCHEM_CONFORMER_DIVERSEORDER>
1

> <PUBCHEM_MMFF94_PARTIAL_CHARGES>
9
1 -0.19
2 -0.19
3 -0.2
4 0.09
5 0.09
6 0.09
7 0.09
8 0.1
9 0.1

> <PUBCHEM_EFFECTIVE_ROTOR_COUNT>
0.6

> <PUBCHEM_PHARMACOPHORE_FEATURES>
2
3 1 4 5 hydrophobe
3 2 6 7 hydrophobe

> <PUBCHEM_HEAVY_ATOM_COUNT>
7

> <PUBCHEM_ATOM_DEF_STEREO_COUNT>
0

> <PUBCHEM_ATOM_UDEF_STEREO_COUNT>
0

> <PUBCHEM_BOND_DEF_STEREO_COUNT>
0

> <PUBCHEM_BOND_UDEF_STEREO_COUNT>
0

> <PUBCHEM_ISOTOPIC_ATOM_COUNT>
0

> <PUBCHEM_COMPONENT_COUNT>
1

> <PUBCHEM_CACTVS_TAUTO_COUNT>
1

> <PUBCHEM_CONFORMER_ID>
00012FD200000001

> <PUBCHEM_MMFF94_ENERGY>
20.7798

> <PUBCHEM_FEATURE_SELFOVERLAP>
10.171

> <PUBCHEM_SHAPE_FINGERPRINT>
137420 1 13636123124410876343
20096714 4 18273214183748105560
21040471 1 18265906747918171137
24536 1 18266436806985490672
29004967 10 17899132990633067315
5084963 1 16415479350231641927
5943 1 16599899138705168836

> <PUBCHEM_SHAPE_MULTIPOLES>
144.06
2.02
1.51
0.94
0
0
0.31
0
-0.43
0
-0.31
0
0
0

> <PUBCHEM_SHAPE_SELFOVERLAP>
278.951

> <PUBCHEM_SHAPE_VOLUME>
93.1

> <PUBCHEM_COORDINATE_TYPE>
2
5
10

$$$$
