3640858
  -OEChem-11012400563D

 14 14  0     0  0  0  0  0  0999 V2000
    3.4317    0.1616   -0.0625 O   0  5  0  0  0  0  0  0  0  0  0  0
    1.8467   -1.3619    0.0379 O   0  0  0  0  0  0  0  0  0  0  0  0
   -1.9314   -0.3460   -0.0106 N   0  0  0  0  0  0  0  0  0  0  0  0
    1.2538    0.7669    0.0493 N   0  0  0  0  0  0  0  0  0  0  0  0
   -0.6422   -0.7120    0.0155 N   0  0  0  0  0  0  0  0  0  0  0  0
   -0.9651    1.5294    0.0031 N   0  0  0  0  0  0  0  0  0  0  0  0
   -2.1700    0.9728   -0.0185 N   0  0  0  0  0  0  0  0  0  0  0  0
    2.2498   -0.1950   -0.0143 N   0  3  0  0  0  0  0  0  0  0  0  0
   -0.0749    0.4971    0.0231 C   0  0  0  0  0  0  0  0  0  0  0  0
   -2.9984   -1.3128   -0.0230 C   0  0  0  0  0  0  0  0  0  0  0  0
    1.5188    1.7501    0.0622 H   0  0  0  0  0  0  0  0  0  0  0  0
   -3.0707   -1.7263   -1.0315 H   0  0  0  0  0  0  0  0  0  0  0  0
   -2.7662   -2.1000    0.6985 H   0  0  0  0  0  0  0  0  0  0  0  0
   -3.9349   -0.8220    0.2534 H   0  0  0  0  0  0  0  0  0  0  0  0
  1  8  1  0  0  0  0
  2  8  2  0  0  0  0
  3  5  1  0  0  0  0
  3  7  1  0  0  0  0
  3 10  1  0  0  0  0
  4  8  1  0  0  0  0
  4  9  1  0  0  0  0
  4 11  1  0  0  0  0
  5  9  2  0  0  0  0
  6  7  2  0  0  0  0
  6  9  1  0  0  0  0
 10 12  1  0  0  0  0
 10 13  1  0  0  0  0
 10 14  1  0  0  0  0
M  CHG  2   1  -1   8   1
M  END
> <PUBCHEM_COMPOUND_CID>
3640858

> <PUBCHEM_CONFORMER_RMSD>
0.4

> <PUBCHEM_CONFORMER_DIVERSEORDER>
1
7
4
6
2
3
8
5

> <PUBCHEM_MMFF94_PARTIAL_CHARGES>
11
1 -0.52
10 0.26
11 0.4
2 -0.52
3 0.58
4 -0.49
5 -0.71
6 -0.23
7 -0.42
8 1.04
9 0.6

> <PUBCHEM_EFFECTIVE_ROTOR_COUNT>
2

> <PUBCHEM_PHARMACOPHORE_FEATURES>
5
1 1 acceptor
1 2 acceptor
1 4 donor
4 4 5 6 9 cation
5 3 5 6 7 9 rings

> <PUBCHEM_HEAVY_ATOM_COUNT>
10

> <PUBCHEM_ATOM_DEF_STEREO_COUNT>
0

> <PUBCHEM_ATOM_UDEF_STEREO_COUNT>
0

> <PUBCHEM_BOND_DEF_STEREO_COUNT>
0

> <PUBCHEM_BOND_UDEF_STEREO_COUNT>
0

> <PUBCHEM_ISOTOPIC_ATOM_COUNT>
0

> <PUBCHEM_COMPONENT_COUNT>
1

> <PUBCHEM_CACTVS_TAUTO_COUNT>
2

> <PUBCHEM_CONFORMER_ID>
00378E1A00000001

> <PUBCHEM_MMFF94_ENERGY>
16.4633

> <PUBCHEM_FEATURE_SELFOVERLAP>
25.451

> <PUBCHEM_SHAPE_FINGERPRINT>
10857977 72 18341601655121932808
12897270 3 18409728469505354382
14325111 11 18410575063494217028
20201158 50 18334575780173849339
20871998 184 18202566189566093167
21040471 1 18050566235882256033
23552423 10 18260269624648137630
29004967 10 18411983589154686240
369184 2 18341048523521837129

> <PUBCHEM_SHAPE_MULTIPOLES>
164.17
4.57
1.38
0.54
1.5
0.03
0
-1.3
-0.09
-0.56
0.01
-0.05
-0.01
-0.01

> <PUBCHEM_SHAPE_SELFOVERLAP>
331.981

> <PUBCHEM_SHAPE_VOLUME>
97.2

> <PUBCHEM_COORDINATE_TYPE>
2
5
10

$$$$
