137661
  -OEChem-11012401133D

 35 38  0     0  0  0  0  0  0999 V2000
   -0.6082    0.1312   -0.0008 N   0  0  0  0  0  0  0  0  0  0  0  0
   -0.9154   -2.0700    0.0004 N   0  0  0  0  0  0  0  0  0  0  0  0
   -1.9678   -0.0486   -0.0005 C   0  0  0  0  0  0  0  0  0  0  0  0
   -0.0237   -1.1046    0.0000 C   0  0  0  0  0  0  0  0  0  0  0  0
   -2.1339   -1.4308    0.0001 C   0  0  0  0  0  0  0  0  0  0  0  0
    0.0514    1.3628   -0.0006 C   0  0  0  0  0  0  0  0  0  0  0  0
    1.4090   -1.3118    0.0006 C   0  0  0  0  0  0  0  0  0  0  0  0
   -3.0339    0.8516   -0.0008 C   0  0  0  0  0  0  0  0  0  0  0  0
   -3.4338   -1.9643    0.0004 C   0  0  0  0  0  0  0  0  0  0  0  0
    0.3742    1.9646    1.2077 C   0  0  0  0  0  0  0  0  0  0  0  0
    0.3770    1.9639   -1.2084 C   0  0  0  0  0  0  0  0  0  0  0  0
   -4.3206    0.3033   -0.0003 C   0  0  0  0  0  0  0  0  0  0  0  0
   -4.5192   -1.0794    0.0002 C   0  0  0  0  0  0  0  0  0  0  0  0
    2.0940   -1.4117   -1.2076 C   0  0  0  0  0  0  0  0  0  0  0  0
    2.0946   -1.4110    1.2084 C   0  0  0  0  0  0  0  0  0  0  0  0
    1.0357    3.1927    1.2082 C   0  0  0  0  0  0  0  0  0  0  0  0
    1.0387    3.1920   -1.2078 C   0  0  0  0  0  0  0  0  0  0  0  0
    3.4743   -1.6124   -1.2079 C   0  0  0  0  0  0  0  0  0  0  0  0
    3.4749   -1.6115    1.2081 C   0  0  0  0  0  0  0  0  0  0  0  0
    1.3679    3.8063    0.0006 C   0  0  0  0  0  0  0  0  0  0  0  0
    4.1648   -1.7123   -0.0001 C   0  0  0  0  0  0  0  0  0  0  0  0
   -2.8842    1.9254   -0.0012 H   0  0  0  0  0  0  0  0  0  0  0  0
   -3.5987   -3.0370    0.0009 H   0  0  0  0  0  0  0  0  0  0  0  0
    0.1214    1.4964    2.1555 H   0  0  0  0  0  0  0  0  0  0  0  0
    0.1265    1.4953   -2.1565 H   0  0  0  0  0  0  0  0  0  0  0  0
   -5.1820    0.9666   -0.0004 H   0  0  0  0  0  0  0  0  0  0  0  0
   -5.5314   -1.4757    0.0005 H   0  0  0  0  0  0  0  0  0  0  0  0
    1.5694   -1.3360   -2.1570 H   0  0  0  0  0  0  0  0  0  0  0  0
    1.5704   -1.3347    2.1580 H   0  0  0  0  0  0  0  0  0  0  0  0
    1.2924    3.6708    2.1490 H   0  0  0  0  0  0  0  0  0  0  0  0
    1.2977    3.6698   -2.1481 H   0  0  0  0  0  0  0  0  0  0  0  0
    4.0115   -1.6906   -2.1485 H   0  0  0  0  0  0  0  0  0  0  0  0
    4.0128   -1.6891    2.1485 H   0  0  0  0  0  0  0  0  0  0  0  0
    1.8832    4.7624    0.0009 H   0  0  0  0  0  0  0  0  0  0  0  0
    5.2396   -1.8683   -0.0004 H   0  0  0  0  0  0  0  0  0  0  0  0
  1  3  1  0  0  0  0
  1  4  1  0  0  0  0
  1  6  1  0  0  0  0
  2  4  2  0  0  0  0
  2  5  1  0  0  0  0
  3  5  1  0  0  0  0
  3  8  2  0  0  0  0
  4  7  1  0  0  0  0
  5  9  2  0  0  0  0
  6 10  2  0  0  0  0
  6 11  1  0  0  0  0
  7 14  2  0  0  0  0
  7 15  1  0  0  0  0
  8 12  1  0  0  0  0
  8 22  1  0  0  0  0
  9 13  1  0  0  0  0
  9 23  1  0  0  0  0
 10 16  1  0  0  0  0
 10 24  1  0  0  0  0
 11 17  2  0  0  0  0
 11 25  1  0  0  0  0
 12 13  2  0  0  0  0
 12 26  1  0  0  0  0
 13 27  1  0  0  0  0
 14 18  1  0  0  0  0
 14 28  1  0  0  0  0
 15 19  2  0  0  0  0
 15 29  1  0  0  0  0
 16 20  2  0  0  0  0
 16 30  1  0  0  0  0
 17 20  1  0  0  0  0
 17 31  1  0  0  0  0
 18 21  2  0  0  0  0
 18 32  1  0  0  0  0
 19 21  1  0  0  0  0
 19 33  1  0  0  0  0
 20 34  1  0  0  0  0
 21 35  1  0  0  0  0
M  END
> <PUBCHEM_COMPOUND_CID>
137661

> <PUBCHEM_CONFORMER_RMSD>
0.6

> <PUBCHEM_CONFORMER_DIVERSEORDER>
1

> <PUBCHEM_MMFF94_PARTIAL_CHARGES>
35
1 0.33
10 -0.15
11 -0.15
12 -0.15
13 -0.15
14 -0.15
15 -0.15
16 -0.15
17 -0.15
18 -0.15
19 -0.15
2 -0.57
20 -0.15
21 -0.15
22 0.15
23 0.15
24 0.15
25 0.15
26 0.15
27 0.15
28 0.15
29 0.15
3 -0.15
30 0.15
31 0.15
32 0.15
33 0.15
34 0.15
35 0.15
4 0.13
5 0.23
6 -0.02
7 0.05
8 -0.15
9 -0.15

> <PUBCHEM_EFFECTIVE_ROTOR_COUNT>
2

> <PUBCHEM_PHARMACOPHORE_FEATURES>
5
3 1 2 4 cation
5 1 2 3 4 5 rings
6 3 5 8 9 12 13 rings
6 6 10 11 16 17 20 rings
6 7 14 15 18 19 21 rings

> <PUBCHEM_HEAVY_ATOM_COUNT>
21

> <PUBCHEM_ATOM_DEF_STEREO_COUNT>
0

> <PUBCHEM_ATOM_UDEF_STEREO_COUNT>
0

> <PUBCHEM_BOND_DEF_STEREO_COUNT>
0

> <PUBCHEM_BOND_UDEF_STEREO_COUNT>
0

> <PUBCHEM_ISOTOPIC_ATOM_COUNT>
0

> <PUBCHEM_COMPONENT_COUNT>
1

> <PUBCHEM_CACTVS_TAUTO_COUNT>
1

> <PUBCHEM_CONFORMER_ID>
000219BD00000001

> <PUBCHEM_MMFF94_ENERGY>
78.3643

> <PUBCHEM_FEATURE_SELFOVERLAP>
25.481

> <PUBCHEM_SHAPE_FINGERPRINT>
107951 10 16957603686678655176
1100329 8 18197507220634805401
11578080 2 17387383857785580612
11680986 33 18263926716740048411
11963148 33 17327449732454832019
12236239 1 17676774163044723686
12422481 6 18124279892643793552
12553582 1 18336549300687992683
12592029 89 18047755085429612776
12788726 201 18044661893154278554
13132413 78 18339081475977167541
13140716 1 18339074865932737432
133893 2 17976510000282592670
13681431 1 18339372940947412880
14022347 108 18194701279671283003
14181834 199 18268978955199425727
14347329 18 16083594940302141149
14790565 3 17619073832533340173
14955137 171 18124344664839634659
1601671 61 18194684753122138809
16945 1 18194402191165085959
17138139 8 12278207255342699704
17357779 13 18127392484901164085
17804303 29 18410011022951678323
1813 80 18412549777497890671
18785283 64 18264218074489092209
20028762 73 15963734367985665970
20097449 115 18409442557632365041
20510252 161 18050564045796886882
20567600 347 17616813670485920450
20600515 1 18342458097544807482
20642791 239 17898038865026292708
20671657 1 18338802346173757261
20691752 17 17458616874121892803
20905425 154 18196664101057486348
21029758 27 18334300829505350451
21033648 29 17346020174778310291
21304303 282 16891127857517899772
21524375 3 17620760912866090773
22182313 1 17896860210431571357
2297311 6 18269561542340053366
23366157 5 18043528519692798863
23402539 116 18340482249496389742
23419403 2 18118090702609003332
23557571 272 18198062474296495326
23559900 14 18338507647256824195
25147074 1 18128822018349308607
2748010 2 18268407093120462200
312423 11 18270688700809275195
3411729 13 18267015240386139944
350125 39 18409455787054971633
352729 6 17254539510082145423
43471831 8 17689430911652667931
4409770 3 17683222686834499605
5104073 3 18266753544709825875
5845 1 10845239245196490134
5895379 119 16986626116221482521
59755656 215 18048877686880413853
6138700 20 18265903630642722956
6442390 28 17046843949575883736
6443956 14 18412263969163201864
7164475 11 17974005051334692166
7364860 26 18270121360612936557
7399639 24 17988071172614353702
7495541 125 17967828158334356435
81228 2 18052273798999242962
90316 7 18191857929695437938
9981440 41 17617653701844032801

> <PUBCHEM_SHAPE_MULTIPOLES>
422.21
6.75
4.05
1.18
3.95
4.6
0
-5.51
0
-2.57
0
-0.99
0.31
0

> <PUBCHEM_SHAPE_SELFOVERLAP>
953.997

> <PUBCHEM_SHAPE_VOLUME>
222.6

> <PUBCHEM_COORDINATE_TYPE>
2
5
10

$$$$
