68410
  -OEChem-11012401063D

 16 15  0     0  0  0  0  0  0999 V2000
   -0.4199    0.0607    1.4241 O   0  0  0  0  0  0  0  0  0  0  0  0
    2.0274   -0.0008    0.0146 O   0  0  0  0  0  0  0  0  0  0  0  0
   -0.4018    0.0051   -0.0047 C   0  0  0  0  0  0  0  0  0  0  0  0
    0.8857    0.6696   -0.5078 C   0  0  0  0  0  0  0  0  0  0  0  0
   -0.4392   -1.4656   -0.4237 C   0  0  0  0  0  0  0  0  0  0  0  0
   -1.6521    0.7310   -0.5025 C   0  0  0  0  0  0  0  0  0  0  0  0
    0.9462    0.6495   -1.6006 H   0  0  0  0  0  0  0  0  0  0  0  0
    0.9419    1.7125   -0.1774 H   0  0  0  0  0  0  0  0  0  0  0  0
   -1.3584   -1.9480   -0.0712 H   0  0  0  0  0  0  0  0  0  0  0  0
   -0.3911   -1.5755   -1.5121 H   0  0  0  0  0  0  0  0  0  0  0  0
    0.3875   -2.0297    0.0222 H   0  0  0  0  0  0  0  0  0  0  0  0
   -1.6589    1.7712   -0.1573 H   0  0  0  0  0  0  0  0  0  0  0  0
   -2.5631    0.2669   -0.1077 H   0  0  0  0  0  0  0  0  0  0  0  0
   -1.7081    0.7290   -1.5959 H   0  0  0  0  0  0  0  0  0  0  0  0
   -1.2261   -0.3864    1.7339 H   0  0  0  0  0  0  0  0  0  0  0  0
    1.9526    0.0108    0.9841 H   0  0  0  0  0  0  0  0  0  0  0  0
  1  3  1  0  0  0  0
  1 15  1  0  0  0  0
  2  4  1  0  0  0  0
  2 16  1  0  0  0  0
  3  4  1  0  0  0  0
  3  5  1  0  0  0  0
  3  6  1  0  0  0  0
  4  7  1  0  0  0  0
  4  8  1  0  0  0  0
  5  9  1  0  0  0  0
  5 10  1  0  0  0  0
  5 11  1  0  0  0  0
  6 12  1  0  0  0  0
  6 13  1  0  0  0  0
  6 14  1  0  0  0  0
M  END
> <PUBCHEM_COMPOUND_CID>
68410

> <PUBCHEM_CONFORMER_RMSD>
0.4

> <PUBCHEM_CONFORMER_DIVERSEORDER>
1
3
2

> <PUBCHEM_MMFF94_PARTIAL_CHARGES>
6
1 -0.68
15 0.4
16 0.4
2 -0.68
3 0.28
4 0.28

> <PUBCHEM_EFFECTIVE_ROTOR_COUNT>
1

> <PUBCHEM_PHARMACOPHORE_FEATURES>
5
1 1 acceptor
1 1 donor
1 2 acceptor
1 2 donor
3 3 5 6 hydrophobe

> <PUBCHEM_HEAVY_ATOM_COUNT>
6

> <PUBCHEM_ATOM_DEF_STEREO_COUNT>
0

> <PUBCHEM_ATOM_UDEF_STEREO_COUNT>
0

> <PUBCHEM_BOND_DEF_STEREO_COUNT>
0

> <PUBCHEM_BOND_UDEF_STEREO_COUNT>
0

> <PUBCHEM_ISOTOPIC_ATOM_COUNT>
0

> <PUBCHEM_COMPONENT_COUNT>
1

> <PUBCHEM_CACTVS_TAUTO_COUNT>
1

> <PUBCHEM_CONFORMER_ID>
00010B3A00000001

> <PUBCHEM_MMFF94_ENERGY>
11.7331

> <PUBCHEM_FEATURE_SELFOVERLAP>
25.378

> <PUBCHEM_SHAPE_FINGERPRINT>
139733 1 7851371178314224862
20096714 4 17967527956593327389
21015797 1 12325683178980140767
21040471 1 18410852131528598573
24536 1 17345496914400996644

> <PUBCHEM_SHAPE_MULTIPOLES>
111.74
1.85
1.16
0.97
0.58
0.43
-0.34
-0.42
0.24
-0.25
0.25
-0.13
-0.01
-0.01

> <PUBCHEM_SHAPE_SELFOVERLAP>
198.45

> <PUBCHEM_SHAPE_VOLUME>
74.3

> <PUBCHEM_COORDINATE_TYPE>
2
5
10

$$$$
