1540638
  -OEChem-11012400353D

 27 27  0     0  0  0  0  0  0999 V2000
   -4.9254    1.1741   -0.4803 O   0  0  0  0  0  0  0  0  0  0  0  0
   -4.7079   -0.9406    0.3476 O   0  0  0  0  0  0  0  0  0  0  0  0
    3.7465    0.1861   -0.0625 N   0  0  0  0  0  0  0  0  0  0  0  0
    2.3482    0.0118    0.0011 C   0  0  0  0  0  0  0  0  0  0  0  0
    1.5064    1.1239    0.0141 C   0  0  0  0  0  0  0  0  0  0  0  0
    1.8074   -1.2730    0.0525 C   0  0  0  0  0  0  0  0  0  0  0  0
   -0.4172   -0.3336    0.1298 C   0  0  0  0  0  0  0  0  0  0  0  0
    0.1238    0.9512    0.0786 C   0  0  0  0  0  0  0  0  0  0  0  0
    0.4248   -1.4457    0.1167 C   0  0  0  0  0  0  0  0  0  0  0  0
    4.3661    1.3635    0.5123 C   0  0  0  0  0  0  0  0  0  0  0  0
    4.5832   -0.8168   -0.6911 C   0  0  0  0  0  0  0  0  0  0  0  0
   -1.8589   -0.5129    0.1966 C   0  0  0  0  0  0  0  0  0  0  0  0
   -2.7785    0.4108   -0.1606 C   0  0  0  0  0  0  0  0  0  0  0  0
   -4.2185    0.1012   -0.0547 C   0  0  0  0  0  0  0  0  0  0  0  0
    1.8952    2.1372   -0.0322 H   0  0  0  0  0  0  0  0  0  0  0  0
    2.4348   -2.1597    0.0562 H   0  0  0  0  0  0  0  0  0  0  0  0
   -0.4913    1.8460    0.1040 H   0  0  0  0  0  0  0  0  0  0  0  0
    0.0213   -2.4547    0.1575 H   0  0  0  0  0  0  0  0  0  0  0  0
    4.2634    2.2228   -0.1586 H   0  0  0  0  0  0  0  0  0  0  0  0
    5.4371    1.2043    0.6811 H   0  0  0  0  0  0  0  0  0  0  0  0
    3.9280    1.6129    1.4854 H   0  0  0  0  0  0  0  0  0  0  0  0
    5.5618   -0.4029   -0.9591 H   0  0  0  0  0  0  0  0  0  0  0  0
    4.1350   -1.1895   -1.6191 H   0  0  0  0  0  0  0  0  0  0  0  0
    4.7566   -1.6585   -0.0125 H   0  0  0  0  0  0  0  0  0  0  0  0
   -2.1926   -1.4840    0.5567 H   0  0  0  0  0  0  0  0  0  0  0  0
   -2.5129    1.3867   -0.5508 H   0  0  0  0  0  0  0  0  0  0  0  0
   -5.8930    1.0201   -0.4297 H   0  0  0  0  0  0  0  0  0  0  0  0
  1 14  1  0  0  0  0
  1 27  1  0  0  0  0
  2 14  2  0  0  0  0
  3  4  1  0  0  0  0
  3 10  1  0  0  0  0
  3 11  1  0  0  0  0
  4  5  2  0  0  0  0
  4  6  1  0  0  0  0
  5  8  1  0  0  0  0
  5 15  1  0  0  0  0
  6  9  2  0  0  0  0
  6 16  1  0  0  0  0
  7  8  2  0  0  0  0
  7  9  1  0  0  0  0
  7 12  1  0  0  0  0
  8 17  1  0  0  0  0
  9 18  1  0  0  0  0
 10 19  1  0  0  0  0
 10 20  1  0  0  0  0
 10 21  1  0  0  0  0
 11 22  1  0  0  0  0
 11 23  1  0  0  0  0
 11 24  1  0  0  0  0
 12 13  2  0  0  0  0
 12 25  1  0  0  0  0
 13 14  1  0  0  0  0
 13 26  1  0  0  0  0
M  END
> <PUBCHEM_COMPOUND_CID>
1540638

> <PUBCHEM_CONFORMER_RMSD>
0.6

> <PUBCHEM_CONFORMER_DIVERSEORDER>
1
2

> <PUBCHEM_MMFF94_PARTIAL_CHARGES>
21
1 -0.65
10 0.37
11 0.37
12 -0.18
13 -0.14
14 0.71
15 0.15
16 0.15
17 0.15
18 0.15
2 -0.57
25 0.15
26 0.15
27 0.5
3 -0.84
4 0.1
5 -0.15
6 -0.15
7 0.03
8 -0.15
9 -0.15

> <PUBCHEM_EFFECTIVE_ROTOR_COUNT>
3

> <PUBCHEM_PHARMACOPHORE_FEATURES>
5
1 1 acceptor
1 2 acceptor
1 3 cation
3 1 2 14 anion
6 4 5 6 7 8 9 rings

> <PUBCHEM_HEAVY_ATOM_COUNT>
14

> <PUBCHEM_ATOM_DEF_STEREO_COUNT>
0

> <PUBCHEM_ATOM_UDEF_STEREO_COUNT>
0

> <PUBCHEM_BOND_DEF_STEREO_COUNT>
1

> <PUBCHEM_BOND_UDEF_STEREO_COUNT>
0

> <PUBCHEM_ISOTOPIC_ATOM_COUNT>
0

> <PUBCHEM_COMPONENT_COUNT>
1

> <PUBCHEM_CACTVS_TAUTO_COUNT>
1

> <PUBCHEM_CONFORMER_ID>
0017821E00000001

> <PUBCHEM_MMFF94_ENERGY>
51.5888

> <PUBCHEM_FEATURE_SELFOVERLAP>
25.427

> <PUBCHEM_SHAPE_FINGERPRINT>
11401426 45 18342452655836885776
11471102 20 18413388735298430804
12236239 1 17632861928026033123
12670543 26 18338526222842439894
13081056 2 18411136935273924444
13675066 3 18411139172782840176
13690532 89 18412829070926490602
13760787 19 16732989742996670546
14123238 8 17240483619588643663
14911166 2 18410863152963319262
14943859 89 18272650172911238943
14993402 34 17489585662441699117
15196674 1 18410855468739201897
17834072 33 17917708036835095077
18186145 218 18334568053796306526
200 152 18060136544536633497
20279233 1 17895200999898056115
20645477 70 18131638859406805670
23402539 116 18408315597216669197
23402655 69 18341607084562066037
23557571 272 17531811238407253269
23559900 14 18343021121245700872
2916195 48 18269827765354912344
3545911 37 18335984190935493309
366044 4 18409448111325993098
4047638 21 18410575102460113656
4072396 5 18262784199625680858
42788 4 18410575088968608717
4990 188 18201445757131486830
5104073 3 18335139757024894651
69090 78 18059853991138328198

> <PUBCHEM_SHAPE_MULTIPOLES>
271.39
10
1.4
0.68
5.41
0.01
-0.01
-1.4
-0.8
-0.59
0.05
-0.14
0
0.67

> <PUBCHEM_SHAPE_SELFOVERLAP>
557.796

> <PUBCHEM_SHAPE_VOLUME>
157.6

> <PUBCHEM_COORDINATE_TYPE>
2
5
10

$$$$
