31465
  -OEChem-11012401173D

 35 35  0     0  0  0  0  0  0999 V2000
   -3.5040    0.9037   -0.3143 O   0  0  0  0  0  0  0  0  0  0  0  0
   -2.7268   -1.3246   -0.0456 O   0  0  0  0  0  0  0  0  0  0  0  0
   -1.1190    0.4752   -0.2701 C   0  0  0  0  0  0  0  0  0  0  0  0
    0.2370    1.0024    0.1783 C   0  0  0  0  0  0  0  0  0  0  0  0
    1.3637    0.0393   -0.1952 C   0  0  0  0  0  0  0  0  0  0  0  0
   -2.2442    1.4558    0.0688 C   0  0  0  0  0  0  0  0  0  0  0  0
   -1.4262   -0.8892    0.3513 C   0  0  0  0  0  0  0  0  0  0  0  0
    2.7283    0.5883    0.2275 C   0  0  0  0  0  0  0  0  0  0  0  0
    3.8577   -0.3599   -0.1817 C   0  0  0  0  0  0  0  0  0  0  0  0
   -3.7195   -0.3614    0.3155 C   0  0  0  0  0  0  0  0  0  0  0  0
    5.2482    0.1543    0.1971 C   0  0  0  0  0  0  0  0  0  0  0  0
   -5.0675   -0.8875   -0.1472 C   0  0  0  0  0  0  0  0  0  0  0  0
    6.3723   -0.7963   -0.1844 C   0  0  0  0  0  0  0  0  0  0  0  0
   -1.1235    0.3450   -1.3613 H   0  0  0  0  0  0  0  0  0  0  0  0
    0.2387    1.1655    1.2635 H   0  0  0  0  0  0  0  0  0  0  0  0
    0.4215    1.9776   -0.2892 H   0  0  0  0  0  0  0  0  0  0  0  0
    1.2303   -0.9285    0.2985 H   0  0  0  0  0  0  0  0  0  0  0  0
    1.3553   -0.1381   -1.2774 H   0  0  0  0  0  0  0  0  0  0  0  0
   -2.2673    1.6929    1.1395 H   0  0  0  0  0  0  0  0  0  0  0  0
   -2.1120    2.3962   -0.4763 H   0  0  0  0  0  0  0  0  0  0  0  0
   -0.7334   -1.6588    0.0016 H   0  0  0  0  0  0  0  0  0  0  0  0
   -1.3741   -0.8608    1.4463 H   0  0  0  0  0  0  0  0  0  0  0  0
    2.7480    0.7364    1.3139 H   0  0  0  0  0  0  0  0  0  0  0  0
    2.8909    1.5687   -0.2362 H   0  0  0  0  0  0  0  0  0  0  0  0
    3.8210   -0.5218   -1.2662 H   0  0  0  0  0  0  0  0  0  0  0  0
    3.6968   -1.3375    0.2896 H   0  0  0  0  0  0  0  0  0  0  0  0
   -3.7392   -0.2368    1.4061 H   0  0  0  0  0  0  0  0  0  0  0  0
    5.4220    1.1218   -0.2888 H   0  0  0  0  0  0  0  0  0  0  0  0
    5.2874    0.3306    1.2786 H   0  0  0  0  0  0  0  0  0  0  0  0
   -5.0761   -1.0216   -1.2349 H   0  0  0  0  0  0  0  0  0  0  0  0
   -5.2846   -1.8606    0.3044 H   0  0  0  0  0  0  0  0  0  0  0  0
   -5.8691   -0.1855    0.1025 H   0  0  0  0  0  0  0  0  0  0  0  0
    7.3403   -0.3784    0.1089 H   0  0  0  0  0  0  0  0  0  0  0  0
    6.3878   -0.9678   -1.2653 H   0  0  0  0  0  0  0  0  0  0  0  0
    6.2523   -1.7628    0.3151 H   0  0  0  0  0  0  0  0  0  0  0  0
  1  6  1  0  0  0  0
  1 10  1  0  0  0  0
  2  7  1  0  0  0  0
  2 10  1  0  0  0  0
  3  4  1  0  0  0  0
  3  6  1  0  0  0  0
  3  7  1  0  0  0  0
  3 14  1  0  0  0  0
  4  5  1  0  0  0  0
  4 15  1  0  0  0  0
  4 16  1  0  0  0  0
  5  8  1  0  0  0  0
  5 17  1  0  0  0  0
  5 18  1  0  0  0  0
  6 19  1  0  0  0  0
  6 20  1  0  0  0  0
  7 21  1  0  0  0  0
  7 22  1  0  0  0  0
  8  9  1  0  0  0  0
  8 23  1  0  0  0  0
  8 24  1  0  0  0  0
  9 11  1  0  0  0  0
  9 25  1  0  0  0  0
  9 26  1  0  0  0  0
 10 12  1  0  0  0  0
 10 27  1  0  0  0  0
 11 13  1  0  0  0  0
 11 28  1  0  0  0  0
 11 29  1  0  0  0  0
 12 30  1  0  0  0  0
 12 31  1  0  0  0  0
 12 32  1  0  0  0  0
 13 33  1  0  0  0  0
 13 34  1  0  0  0  0
 13 35  1  0  0  0  0
M  END
> <PUBCHEM_COMPOUND_CID>
31465

> <PUBCHEM_CONFORMER_RMSD>
0.6

> <PUBCHEM_CONFORMER_DIVERSEORDER>
1
46
23
61
15
69
39
49
36
57
67
50
14
58
11
25
9
40
38
31
62
4
20
2
41
17
68
42
7
54
53
34
22
5
16
52
56
48
59
65
37
6
24
13
55
44
35
66
60
3
45
64
12
30
63
19
33
29
43
21
8
10
47
18
32
51
28
26
27

> <PUBCHEM_MMFF94_PARTIAL_CHARGES>
5
1 -0.56
10 0.56
2 -0.56
6 0.28
7 0.28

> <PUBCHEM_EFFECTIVE_ROTOR_COUNT>
6.2

> <PUBCHEM_PHARMACOPHORE_FEATURES>
5
1 1 acceptor
1 13 hydrophobe
1 2 acceptor
5 4 5 8 9 11 hydrophobe
6 1 2 3 6 7 10 rings

> <PUBCHEM_HEAVY_ATOM_COUNT>
13

> <PUBCHEM_ATOM_DEF_STEREO_COUNT>
0

> <PUBCHEM_ATOM_UDEF_STEREO_COUNT>
0

> <PUBCHEM_BOND_DEF_STEREO_COUNT>
0

> <PUBCHEM_BOND_UDEF_STEREO_COUNT>
0

> <PUBCHEM_ISOTOPIC_ATOM_COUNT>
0

> <PUBCHEM_COMPONENT_COUNT>
1

> <PUBCHEM_CACTVS_TAUTO_COUNT>
1

> <PUBCHEM_CONFORMER_ID>
00007AE900000001

> <PUBCHEM_MMFF94_ENERGY>
13.3504

> <PUBCHEM_FEATURE_SELFOVERLAP>
25.407

> <PUBCHEM_SHAPE_FINGERPRINT>
10465860 250 18202844348886170896
10968037 39 18261394472535847702
11315181 36 18411703184041869040
12815109 37 18410573998405728586
13167823 11 18260827069160471362
13288520 33 18410575093643384221
13690532 89 18334857242523763541
14123238 8 17821729429664393228
1420 363 18131354103238214558
14251718 22 18333732425286250652
14251731 8 18408039593901777404
14252887 29 17060347293048162940
15048467 5 8214150659301377423
17834072 33 18334298695302314964
17834072 8 18186512207683348895
187816 3 15936408944170561568
200 152 17918273151430934360
20279233 1 18059863856941795342
20645477 70 17988366958400755510
20767249 13 18411981369046997174
21267235 1 18335709355197520059
22485316 2 18410291398358524538
2297311 6 18342747299489567020
23402539 116 18412821382977313573
23402655 69 12107780817963093904
23557571 272 18187928335578766108
23559900 14 18337946917200225272
26918003 58 16988846094036752674
4214541 1 18410293579996520324
42788 4 18410293610266662436
449060 50 10592049059324245896
559249 180 18261105219500126962
57483677 66 18408602531455775354

> <PUBCHEM_SHAPE_MULTIPOLES>
255.8
13
1.25
0.65
14.24
0.09
0.01
-4.1
-0.44
-0.87
0.01
0.01
0
0.2

> <PUBCHEM_SHAPE_SELFOVERLAP>
482.581

> <PUBCHEM_SHAPE_VOLUME>
157.7

> <PUBCHEM_COORDINATE_TYPE>
2
5
10

$$$$
