13440
  -OEChem-11012401053D

 30 30  0     0  0  0  0  0  0999 V2000
    2.7824    0.9667    0.0025 O   0  0  0  0  0  0  0  0  0  0  0  0
   -0.4243   -2.3680    0.0049 O   0  0  0  0  0  0  0  0  0  0  0  0
   -1.7088    2.0765   -0.0049 O   0  0  0  0  0  0  0  0  0  0  0  0
    1.2150   -0.7352    0.0041 N   0  0  0  0  0  0  0  0  0  0  0  0
    0.5488    1.5700   -0.0008 N   0  0  0  0  0  0  0  0  0  0  0  0
   -1.1145   -0.1595    0.0002 N   0  0  0  0  0  0  0  0  0  0  0  0
    3.7453   -0.0775    0.0054 C   0  0  0  0  0  0  0  0  0  0  0  0
   -1.8100   -2.6797    0.0038 C   0  0  0  0  0  0  0  0  0  0  0  0
   -3.0472    1.6010   -0.0059 C   0  0  0  0  0  0  0  0  0  0  0  0
    1.4612    0.5848    0.0019 C   0  0  0  0  0  0  0  0  0  0  0  0
   -0.0943   -1.0328    0.0031 C   0  0  0  0  0  0  0  0  0  0  0  0
   -0.7175    1.1232   -0.0017 C   0  0  0  0  0  0  0  0  0  0  0  0
    5.1318    0.5302   -0.0094 C   0  0  0  0  0  0  0  0  0  0  0  0
   -1.9769   -4.1843   -0.0089 C   0  0  0  0  0  0  0  0  0  0  0  0
   -3.9910    2.7845    0.0056 C   0  0  0  0  0  0  0  0  0  0  0  0
    3.6350   -0.6918    0.9071 H   0  0  0  0  0  0  0  0  0  0  0  0
    3.6249   -0.7078   -0.8840 H   0  0  0  0  0  0  0  0  0  0  0  0
   -2.2900   -2.2751    0.9030 H   0  0  0  0  0  0  0  0  0  0  0  0
   -2.2928   -2.2616   -0.8879 H   0  0  0  0  0  0  0  0  0  0  0  0
   -3.2359    1.0029   -0.9056 H   0  0  0  0  0  0  0  0  0  0  0  0
   -3.2338    0.9896    0.8853 H   0  0  0  0  0  0  0  0  0  0  0  0
    5.9003   -0.2480   -0.0075 H   0  0  0  0  0  0  0  0  0  0  0  0
    5.2680    1.1589   -0.8957 H   0  0  0  0  0  0  0  0  0  0  0  0
    5.2798    1.1748    0.8634 H   0  0  0  0  0  0  0  0  0  0  0  0
   -3.0350   -4.4607   -0.0098 H   0  0  0  0  0  0  0  0  0  0  0  0
   -1.4977   -4.6182   -0.8928 H   0  0  0  0  0  0  0  0  0  0  0  0
   -1.4956   -4.6332    0.8664 H   0  0  0  0  0  0  0  0  0  0  0  0
   -5.0335    2.4538    0.0050 H   0  0  0  0  0  0  0  0  0  0  0  0
   -3.8185    3.4070    0.8898 H   0  0  0  0  0  0  0  0  0  0  0  0
   -3.8221    3.4211   -0.8692 H   0  0  0  0  0  0  0  0  0  0  0  0
  1  7  1  0  0  0  0
  1 10  1  0  0  0  0
  2  8  1  0  0  0  0
  2 11  1  0  0  0  0
  3  9  1  0  0  0  0
  3 12  1  0  0  0  0
  4 10  2  0  0  0  0
  4 11  1  0  0  0  0
  5 10  1  0  0  0  0
  5 12  2  0  0  0  0
  6 11  2  0  0  0  0
  6 12  1  0  0  0  0
  7 13  1  0  0  0  0
  7 16  1  0  0  0  0
  7 17  1  0  0  0  0
  8 14  1  0  0  0  0
  8 18  1  0  0  0  0
  8 19  1  0  0  0  0
  9 15  1  0  0  0  0
  9 20  1  0  0  0  0
  9 21  1  0  0  0  0
 13 22  1  0  0  0  0
 13 23  1  0  0  0  0
 13 24  1  0  0  0  0
 14 25  1  0  0  0  0
 14 26  1  0  0  0  0
 14 27  1  0  0  0  0
 15 28  1  0  0  0  0
 15 29  1  0  0  0  0
 15 30  1  0  0  0  0
M  END
> <PUBCHEM_COMPOUND_CID>
13440

> <PUBCHEM_CONFORMER_RMSD>
0.8

> <PUBCHEM_CONFORMER_DIVERSEORDER>
1
10
8
2
4
11
6
7
3
5
9

> <PUBCHEM_MMFF94_PARTIAL_CHARGES>
12
1 -0.36
10 0.7
11 0.7
12 0.7
2 -0.36
3 -0.36
4 -0.62
5 -0.62
6 -0.62
7 0.28
8 0.28
9 0.28

> <PUBCHEM_EFFECTIVE_ROTOR_COUNT>
6

> <PUBCHEM_PHARMACOPHORE_FEATURES>
4
3 4 5 10 cation
3 4 6 11 cation
3 5 6 12 cation
6 4 5 6 10 11 12 rings

> <PUBCHEM_HEAVY_ATOM_COUNT>
15

> <PUBCHEM_ATOM_DEF_STEREO_COUNT>
0

> <PUBCHEM_ATOM_UDEF_STEREO_COUNT>
0

> <PUBCHEM_BOND_DEF_STEREO_COUNT>
0

> <PUBCHEM_BOND_UDEF_STEREO_COUNT>
0

> <PUBCHEM_ISOTOPIC_ATOM_COUNT>
0

> <PUBCHEM_COMPONENT_COUNT>
1

> <PUBCHEM_CACTVS_TAUTO_COUNT>
1

> <PUBCHEM_CONFORMER_ID>
0000348000000001

> <PUBCHEM_MMFF94_ENERGY>
33.622

> <PUBCHEM_FEATURE_SELFOVERLAP>
23.07

> <PUBCHEM_SHAPE_FINGERPRINT>
10411042 1 17906172111171679362
10756046 70 17531826721817427780
116883 192 18268716193311211103
12532896 13 18340487759754346503
13052359 8 18409444795552990811
13134695 92 17475226281402391551
13380535 76 18342737360692274236
14178000 15 17475514353522558927
15042514 8 18409169926114733722
15906896 17 18343293795180593671
17539 30 18269828890641560167
193761 8 18122343746449833505
19427546 20 18191031295047470780
204376 136 18337956671123669313
20645477 56 18410012122537438412
20645477 70 17829886530643718117
20671657 53 17620199062641153223
20871998 184 18129666434262076070
20871998 22 17763179541778955762
21041028 32 17901399097209993787
21426921 1 18338518668005320374
21478907 32 18266175226356005835
21499 59 18265327309796583181
22224240 67 18342745083677001785
23402539 116 18271516512204662796
23419403 2 17130418214928504435
23530152 11 18338518513186193583
23557571 272 18272662281030610684
23558518 356 18117277167199740784
23559900 14 18343864395388516996
2748010 2 18193579786511318007
3091708 16 9198595096674370347
3250762 1 18055623173310824888
366044 4 18337671910401992744
474229 33 18409170991841577585
53917941 68 18266718273319954813
54173680 148 18266177412472747275
58779409 54 18339067315237929655
58779409 8 18409737235454679575
68521 5 18194403513735691750
7364860 26 17690560788920584265
77188 2 17689999359438586719
81228 2 18117832433166272505
81539 233 18046345236766242013

> <PUBCHEM_SHAPE_MULTIPOLES>
276.14
6.95
4.16
0.58
7.67
4.7
0
-4.5
0.01
-6.52
0.01
-0.01
0.01
-0.01

> <PUBCHEM_SHAPE_SELFOVERLAP>
547.041

> <PUBCHEM_SHAPE_VOLUME>
160.9

> <PUBCHEM_COORDINATE_TYPE>
2
5
10

$$$$
