85987790
  -OEChem-10312420452D

 28 29  0     0  0  0  0  0  0999 V2000
    3.7993    1.5000    0.0000 O   0  0  0  0  0  0  0  0  0  0  0  0
    2.0673    1.5000    0.0000 O   0  5  0  0  0  0  0  0  0  0  0  0
    2.9333    0.0000    0.0000 O   0  0  0  0  0  0  0  0  0  0  0  0
    3.2018    6.1984    0.0000 N   0  0  0  0  0  0  0  0  0  0  0  0
    2.9333    1.0000    0.0000 N   0  3  0  0  0  0  0  0  0  0  0  0
    2.3358    4.6984    0.0000 C   0  0  0  0  0  0  0  0  0  0  0  0
    4.0678    4.6984    0.0000 C   0  0  0  0  0  0  0  0  0  0  0  0
    2.3358    5.6984    0.0000 C   0  0  0  0  0  0  0  0  0  0  0  0
    4.0678    5.6984    0.0000 C   0  0  0  0  0  0  0  0  0  0  0  0
    3.2018    4.1984    0.0000 C   0  0  0  0  0  0  0  0  0  0  0  0
    1.4418    4.1638    0.0000 C   0  0  0  0  0  0  0  0  0  0  0  0
    4.9617    4.1638    0.0000 C   0  0  0  0  0  0  0  0  0  0  0  0
    1.4418    6.2331    0.0000 C   0  0  0  0  0  0  0  0  0  0  0  0
    4.9617    6.2331    0.0000 C   0  0  0  0  0  0  0  0  0  0  0  0
    0.5357    4.6776    0.0000 C   0  0  0  0  0  0  0  0  0  0  0  0
    5.8678    4.6776    0.0000 C   0  0  0  0  0  0  0  0  0  0  0  0
    0.5357    5.7193    0.0000 C   0  0  0  0  0  0  0  0  0  0  0  0
    5.8678    5.7193    0.0000 C   0  0  0  0  0  0  0  0  0  0  0  0
    3.2018    3.5784    0.0000 H   0  0  0  0  0  0  0  0  0  0  0  0
    1.4490    3.5438    0.0000 H   0  0  0  0  0  0  0  0  0  0  0  0
    4.9546    3.5438    0.0000 H   0  0  0  0  0  0  0  0  0  0  0  0
    1.4490    6.8531    0.0000 H   0  0  0  0  0  0  0  0  0  0  0  0
    4.9546    6.8531    0.0000 H   0  0  0  0  0  0  0  0  0  0  0  0
    0.0000    4.3656    0.0000 H   0  0  0  0  0  0  0  0  0  0  0  0
    6.4035    4.3656    0.0000 H   0  0  0  0  0  0  0  0  0  0  0  0
    0.0000    6.0313    0.0000 H   0  0  0  0  0  0  0  0  0  0  0  0
    6.4035    6.0313    0.0000 H   0  0  0  0  0  0  0  0  0  0  0  0
    4.3363    1.1900    0.0000 H   0  0  0  0  0  0  0  0  0  0  0  0
  1  5  1  0  0  0  0
  1 28  1  0  0  0  0
  2  5  1  0  0  0  0
  3  5  2  0  0  0  0
  4  8  2  0  0  0  0
  4  9  1  0  0  0  0
  6  8  1  0  0  0  0
  6 10  2  0  0  0  0
  6 11  1  0  0  0  0
  7  9  1  0  0  0  0
  7 10  1  0  0  0  0
  7 12  2  0  0  0  0
  8 13  1  0  0  0  0
  9 14  2  0  0  0  0
 10 19  1  0  0  0  0
 11 15  2  0  0  0  0
 11 20  1  0  0  0  0
 12 16  1  0  0  0  0
 12 21  1  0  0  0  0
 13 17  2  0  0  0  0
 13 22  1  0  0  0  0
 14 18  1  0  0  0  0
 14 23  1  0  0  0  0
 15 17  1  0  0  0  0
 15 24  1  0  0  0  0
 16 18  2  0  0  0  0
 16 25  1  0  0  0  0
 17 26  1  0  0  0  0
 18 27  1  0  0  0  0
M  CHG  2   2  -1   5   1
M  END
> <PUBCHEM_COMPOUND_CID>
85987790

> <PUBCHEM_COMPOUND_CANONICALIZED>
1

> <PUBCHEM_CACTVS_COMPLEXITY>
206

> <PUBCHEM_CACTVS_HBOND_ACCEPTOR>
4

> <PUBCHEM_CACTVS_HBOND_DONOR>
1

> <PUBCHEM_CACTVS_ROTATABLE_BOND>
0

> <PUBCHEM_CACTVS_SUBSKEYS>
AAADccBzMAAAAAAAAAAAAAAAAAAAAAAAAAA8YIAAAAAAAACx/AAAHAAECAAADAiBHgAwwPIIUAChAyRiRQCCgCAhAiAImCAwZJgIIOLAkZGEIAhggADIyAcQgMAOAAAAAAACAAAAAAAAAAQAAAAAAAAAAA==

> <PUBCHEM_IUPAC_OPENEYE_NAME>
acridine;nitric acid

> <PUBCHEM_IUPAC_CAS_NAME>
acridine;nitric acid

> <PUBCHEM_IUPAC_NAME_MARKUP>
acridine;nitric acid

> <PUBCHEM_IUPAC_NAME>
acridine;nitric acid

> <PUBCHEM_IUPAC_SYSTEMATIC_NAME>
acridine;nitric acid

> <PUBCHEM_IUPAC_TRADITIONAL_NAME>
acridine;nitric acid

> <PUBCHEM_IUPAC_INCHI>
InChI=1S/C13H9N.HNO3/c1-3-7-12-10(5-1)9-11-6-2-4-8-13(11)14-12;2-1(3)4/h1-9H;(H,2,3,4)

> <PUBCHEM_IUPAC_INCHIKEY>
GORRTYJDVQIPBE-UHFFFAOYSA-N

> <PUBCHEM_EXACT_MASS>
242.06914219

> <PUBCHEM_MOLECULAR_FORMULA>
C13H10N2O3

> <PUBCHEM_MOLECULAR_WEIGHT>
242.23

> <PUBCHEM_OPENEYE_CAN_SMILES>
C1=CC=C2C(=C1)C=C3C=CC=CC3=N2.[N+](=O)(O)[O-]

> <PUBCHEM_OPENEYE_ISO_SMILES>
C1=CC=C2C(=C1)C=C3C=CC=CC3=N2.[N+](=O)(O)[O-]

> <PUBCHEM_CACTVS_TPSA>
78.9

> <PUBCHEM_MONOISOTOPIC_WEIGHT>
242.06914219

> <PUBCHEM_TOTAL_CHARGE>
0

> <PUBCHEM_HEAVY_ATOM_COUNT>
18

> <PUBCHEM_ATOM_DEF_STEREO_COUNT>
0

> <PUBCHEM_ATOM_UDEF_STEREO_COUNT>
0

> <PUBCHEM_BOND_DEF_STEREO_COUNT>
0

> <PUBCHEM_BOND_UDEF_STEREO_COUNT>
0

> <PUBCHEM_ISOTOPIC_ATOM_COUNT>
0

> <PUBCHEM_COMPONENT_COUNT>
2

> <PUBCHEM_CACTVS_TAUTO_COUNT>
-1

> <PUBCHEM_COORDINATE_TYPE>
1
5
255

> <PUBCHEM_BONDANNOTATIONS>
11  15  8
12  16  8
13  17  8
14  18  8
15  17  8
16  18  8
4  8  8
4  9  8
6  10  8
6  11  8
6  8  8
7  10  8
7  12  8
7  9  8
8  13  8
9  14  8

$$$$
