9407
  -OEChem-11012401163D

 36 39  0     0  0  0  0  0  0999 V2000
    0.2933   -0.2022    0.0035 C   0  0  0  0  0  0  0  0  0  0  0  0
    1.7090    0.0660   -0.0053 C   0  0  0  0  0  0  0  0  0  0  0  0
   -0.7081    0.8025    0.0106 C   0  0  0  0  0  0  0  0  0  0  0  0
   -0.1551   -1.5459    0.0052 C   0  0  0  0  0  0  0  0  0  0  0  0
   -2.0854    0.5102    0.0188 C   0  0  0  0  0  0  0  0  0  0  0  0
    2.6204   -1.0221   -0.0118 C   0  0  0  0  0  0  0  0  0  0  0  0
   -2.5010   -0.8335    0.0201 C   0  0  0  0  0  0  0  0  0  0  0  0
   -1.5292   -1.8430    0.0133 C   0  0  0  0  0  0  0  0  0  0  0  0
    2.2735    1.3665   -0.0080 C   0  0  0  0  0  0  0  0  0  0  0  0
    0.7728   -2.5908   -0.0016 C   0  0  0  0  0  0  0  0  0  0  0  0
    2.1395   -2.3333   -0.0099 C   0  0  0  0  0  0  0  0  0  0  0  0
   -0.4752    2.1913   -0.5287 C   0  0  0  0  0  0  0  0  0  0  0  0
    4.0073   -0.7948   -0.0203 C   0  0  0  0  0  0  0  0  0  0  0  0
   -3.0555    1.5275    0.0258 C   0  0  0  0  0  0  0  0  0  0  0  0
    3.6549    1.5790   -0.0163 C   0  0  0  0  0  0  0  0  0  0  0  0
   -3.8743   -1.1321    0.0283 C   0  0  0  0  0  0  0  0  0  0  0  0
    1.6318    2.6510    0.4293 C   0  0  0  0  0  0  0  0  0  0  0  0
    4.5221    0.4977   -0.0226 C   0  0  0  0  0  0  0  0  0  0  0  0
   -4.4157    1.2177    0.0342 C   0  0  0  0  0  0  0  0  0  0  0  0
   -4.8250   -0.1116    0.0354 C   0  0  0  0  0  0  0  0  0  0  0  0
   -1.8505   -2.8853    0.0142 H   0  0  0  0  0  0  0  0  0  0  0  0
    0.4417   -3.6278   -0.0005 H   0  0  0  0  0  0  0  0  0  0  0  0
    2.8264   -3.1776   -0.0149 H   0  0  0  0  0  0  0  0  0  0  0  0
    0.3185    2.2131   -1.2816 H   0  0  0  0  0  0  0  0  0  0  0  0
   -1.2548    2.4159   -1.2792 H   0  0  0  0  0  0  0  0  0  0  0  0
   -0.6131    3.0142    0.1786 H   0  0  0  0  0  0  0  0  0  0  0  0
    4.7048   -1.6305   -0.0237 H   0  0  0  0  0  0  0  0  0  0  0  0
   -2.8168    2.5860    0.0848 H   0  0  0  0  0  0  0  0  0  0  0  0
    4.0914    2.5753    0.0131 H   0  0  0  0  0  0  0  0  0  0  0  0
   -4.2151   -2.1654    0.0303 H   0  0  0  0  0  0  0  0  0  0  0  0
    2.3589    3.2033    1.0547 H   0  0  0  0  0  0  0  0  0  0  0  0
    1.4700    3.3979   -0.3546 H   0  0  0  0  0  0  0  0  0  0  0  0
    0.8965    2.5030    1.2268 H   0  0  0  0  0  0  0  0  0  0  0  0
    5.5961    0.6567   -0.0219 H   0  0  0  0  0  0  0  0  0  0  0  0
   -5.1547    2.0135    0.0532 H   0  0  0  0  0  0  0  0  0  0  0  0
   -5.8833   -0.3553    0.0450 H   0  0  0  0  0  0  0  0  0  0  0  0
  1  2  1  0  0  0  0
  1  3  2  0  0  0  0
  1  4  1  0  0  0  0
  2  6  1  0  0  0  0
  2  9  2  0  0  0  0
  3  5  1  0  0  0  0
  3 12  1  0  0  0  0
  4  8  2  0  0  0  0
  4 10  1  0  0  0  0
  5  7  1  0  0  0  0
  5 14  2  0  0  0  0
  6 11  1  0  0  0  0
  6 13  2  0  0  0  0
  7  8  1  0  0  0  0
  7 16  2  0  0  0  0
  8 21  1  0  0  0  0
  9 15  1  0  0  0  0
  9 17  1  0  0  0  0
 10 11  2  0  0  0  0
 10 22  1  0  0  0  0
 11 23  1  0  0  0  0
 12 24  1  0  0  0  0
 12 25  1  0  0  0  0
 12 26  1  0  0  0  0
 13 18  1  0  0  0  0
 13 27  1  0  0  0  0
 14 19  1  0  0  0  0
 14 28  1  0  0  0  0
 15 18  2  0  0  0  0
 15 29  1  0  0  0  0
 16 20  1  0  0  0  0
 16 30  1  0  0  0  0
 17 31  1  0  0  0  0
 17 32  1  0  0  0  0
 17 33  1  0  0  0  0
 18 34  1  0  0  0  0
 19 20  2  0  0  0  0
 19 35  1  0  0  0  0
 20 36  1  0  0  0  0
M  END
> <PUBCHEM_COMPOUND_CID>
9407

> <PUBCHEM_CONFORMER_RMSD>
0.6

> <PUBCHEM_CONFORMER_DIVERSEORDER>
1

> <PUBCHEM_MMFF94_PARTIAL_CHARGES>
24
10 -0.15
11 -0.15
12 0.14
13 -0.15
14 -0.15
15 -0.15
16 -0.15
17 0.14
18 -0.15
19 -0.15
20 -0.15
21 0.15
22 0.15
23 0.15
27 0.15
28 0.15
29 0.15
3 -0.14
30 0.15
34 0.15
35 0.15
36 0.15
8 -0.15
9 -0.14

> <PUBCHEM_EFFECTIVE_ROTOR_COUNT>
0

> <PUBCHEM_PHARMACOPHORE_FEATURES>
4
6 1 2 4 6 10 11 rings
6 1 3 4 5 7 8 rings
6 2 6 9 13 15 18 rings
6 5 7 14 16 19 20 rings

> <PUBCHEM_HEAVY_ATOM_COUNT>
20

> <PUBCHEM_ATOM_DEF_STEREO_COUNT>
0

> <PUBCHEM_ATOM_UDEF_STEREO_COUNT>
0

> <PUBCHEM_BOND_DEF_STEREO_COUNT>
0

> <PUBCHEM_BOND_UDEF_STEREO_COUNT>
0

> <PUBCHEM_ISOTOPIC_ATOM_COUNT>
0

> <PUBCHEM_COMPONENT_COUNT>
1

> <PUBCHEM_CACTVS_TAUTO_COUNT>
1

> <PUBCHEM_CONFORMER_ID>
000024BF00000001

> <PUBCHEM_MMFF94_ENERGY>
136.7079

> <PUBCHEM_FEATURE_SELFOVERLAP>
20.37

> <PUBCHEM_SHAPE_FINGERPRINT>
10411042 1 17618222802138575311
10608611 8 18409165485329409685
10616163 171 18339644546184645119
10967382 1 18410573963882362478
11132069 177 18410569595768825256
11471102 20 18411134727507539150
11578080 2 16662601052653397566
12011746 2 18409731755049880068
12236239 1 17846779598969682373
12403259 226 18335978653889147132
12592029 89 18408887330072541826
12838862 33 18339059563138705000
13140716 1 18337665442513158362
13583140 156 16805588305229061609
138480 1 17906453229713564238
13862211 1 18410288090970300266
14178342 30 17690545808248950352
14223421 5 18264487282622363653
14790565 3 18337117885818315796
15196674 1 18410575088963333966
15442244 35 18195809557216111691
15536298 74 18342459222667925022
1601671 61 18410857642235467664
16945 1 18265607684955411902
19591789 44 18338797926283313399
200 152 18059852874652286445
20645477 70 18343021051756416063
20905425 154 18195528091172064748
21267235 1 18410865351438221270
21421861 104 17825102610573054258
221490 88 18409456855647520011
23227448 37 18342174513707785679
2334 1 18266177412335402364
23402539 116 18342730840784355902
23463225 33 18408322176747844334
23558518 356 17757546735399311298
23559900 14 18269271266648097526
238 59 17758355683562215853
25 1 18408882936563577654
2748010 2 18265617769723226246
3004659 81 18334303038004861790
335352 9 18338516339916976350
34934 24 18410569570025538031
350125 39 18338239387229708569
3680242 22 18263362499597052498
4214541 1 18410856551461545489
474 4 18040720306792050884
495365 180 17417521531906769040
5104073 3 18409729547368138219
5939293 188 18412541033493076240
6138700 20 18339366250079891030
69090 78 18413105086799373015
7364860 26 18341051817899143622
9709674 26 18411425011631622055

> <PUBCHEM_SHAPE_MULTIPOLES>
411.59
8.29
2.76
0.64
2.94
0.09
0
-1.28
0.11
-0.94
0.03
-0.01
-0.06
0.11

> <PUBCHEM_SHAPE_SELFOVERLAP>
947.029

> <PUBCHEM_SHAPE_VOLUME>
195.7

> <PUBCHEM_COORDINATE_TYPE>
2
5
10

$$$$
