181526
  -OEChem-11012400323D

 45 45  0     1  0  0  0  0  0999 V2000
   -1.5056    0.5205    1.2781 O   0  0  0  0  0  0  0  0  0  0  0  0
    0.3532    0.0646   -0.1210 O   0  0  0  0  0  0  0  0  0  0  0  0
   -2.6858   -3.1436   -0.2159 O   0  0  0  0  0  0  0  0  0  0  0  0
    0.0968   -2.6755    0.4271 O   0  0  0  0  0  0  0  0  0  0  0  0
   -4.0067   -0.7548   -1.1108 O   0  0  0  0  0  0  0  0  0  0  0  0
    3.5415    1.1103    1.3202 O   0  0  0  0  0  0  0  0  0  0  0  0
   -4.4921    1.7460   -0.3541 O   0  0  0  0  0  0  0  0  0  0  0  0
    2.4765    3.0042   -0.3460 O   0  0  0  0  0  0  0  0  0  0  0  0
    4.5136   -1.2059    0.1904 O   0  0  0  0  0  0  0  0  0  0  0  0
   -0.2626    3.3621   -0.1442 O   0  0  0  0  0  0  0  0  0  0  0  0
    2.7919   -2.9075   -0.9158 O   0  0  0  0  0  0  0  0  0  0  0  0
   -2.0613   -1.8585   -0.2614 C   0  0  2  0  0  0  0  0  0  0  0  0
   -0.9620   -1.7997    0.7975 C   0  0  2  0  0  0  0  0  0  0  0  0
   -3.1285   -0.7966    0.0114 C   0  0  1  0  0  0  0  0  0  0  0  0
   -0.4330   -0.3768    0.9842 C   0  0  2  0  0  0  0  0  0  0  0  0
   -2.4936    0.5814    0.2429 C   0  0  1  0  0  0  0  0  0  0  0  0
    1.3797    0.9678    0.3032 C   0  0  1  0  0  0  0  0  0  0  0  0
    2.6345    0.1793    0.7172 C   0  0  1  0  0  0  0  0  0  0  0  0
   -3.5242    1.6224    0.6715 C   0  0  0  0  0  0  0  0  0  0  0  0
    1.5836    1.9886   -0.8261 C   0  0  1  0  0  0  0  0  0  0  0  0
    3.3573   -0.6068   -0.3847 C   0  0  2  0  0  0  0  0  0  0  0  0
    0.3042    2.6916   -1.2667 C   0  0  0  0  0  0  0  0  0  0  0  0
    2.5228   -1.7129   -0.9970 C   0  0  0  0  0  0  0  0  0  0  0  0
   -1.6418   -1.7549   -1.2688 H   0  0  0  0  0  0  0  0  0  0  0  0
   -1.3662   -2.1587    1.7529 H   0  0  0  0  0  0  0  0  0  0  0  0
   -3.7260   -1.0908    0.8828 H   0  0  0  0  0  0  0  0  0  0  0  0
    0.1944   -0.4097    1.8832 H   0  0  0  0  0  0  0  0  0  0  0  0
   -2.0362    0.9239   -0.6908 H   0  0  0  0  0  0  0  0  0  0  0  0
    1.0428    1.5332    1.1853 H   0  0  0  0  0  0  0  0  0  0  0  0
    2.3716   -0.5305    1.5101 H   0  0  0  0  0  0  0  0  0  0  0  0
   -3.0559    2.5964    0.8488 H   0  0  0  0  0  0  0  0  0  0  0  0
   -4.0238    1.3285    1.6006 H   0  0  0  0  0  0  0  0  0  0  0  0
    2.0349    1.5200   -1.7060 H   0  0  0  0  0  0  0  0  0  0  0  0
    3.7066    0.0567   -1.1815 H   0  0  0  0  0  0  0  0  0  0  0  0
   -3.0541   -3.2703    0.6751 H   0  0  0  0  0  0  0  0  0  0  0  0
   -0.2852   -3.5618    0.3076 H   0  0  0  0  0  0  0  0  0  0  0  0
   -3.4932   -0.4639   -1.8838 H   0  0  0  0  0  0  0  0  0  0  0  0
   -0.4264    1.9948   -1.6812 H   0  0  0  0  0  0  0  0  0  0  0  0
    0.5189    3.4495   -2.0278 H   0  0  0  0  0  0  0  0  0  0  0  0
    3.8961    1.6785    0.6155 H   0  0  0  0  0  0  0  0  0  0  0  0
    2.1311    3.3428    0.4970 H   0  0  0  0  0  0  0  0  0  0  0  0
   -4.0355    2.0509   -1.1567 H   0  0  0  0  0  0  0  0  0  0  0  0
    1.6602   -1.3834   -1.5986 H   0  0  0  0  0  0  0  0  0  0  0  0
    5.0341   -1.5934   -0.5341 H   0  0  0  0  0  0  0  0  0  0  0  0
    0.3135    4.1147    0.0713 H   0  0  0  0  0  0  0  0  0  0  0  0
  1 15  1  0  0  0  0
  1 16  1  0  0  0  0
  2 15  1  0  0  0  0
  2 17  1  0  0  0  0
  3 12  1  0  0  0  0
  3 35  1  0  0  0  0
  4 13  1  0  0  0  0
  4 36  1  0  0  0  0
  5 14  1  0  0  0  0
  5 37  1  0  0  0  0
  6 18  1  0  0  0  0
  6 40  1  0  0  0  0
  7 19  1  0  0  0  0
  7 42  1  0  0  0  0
  8 20  1  0  0  0  0
  8 41  1  0  0  0  0
  9 21  1  0  0  0  0
  9 44  1  0  0  0  0
 10 22  1  0  0  0  0
 10 45  1  0  0  0  0
 11 23  2  0  0  0  0
 12 13  1  0  0  0  0
 12 14  1  0  0  0  0
 12 24  1  0  0  0  0
 13 15  1  0  0  0  0
 13 25  1  0  0  0  0
 14 16  1  0  0  0  0
 14 26  1  0  0  0  0
 15 27  1  0  0  0  0
 16 19  1  0  0  0  0
 16 28  1  0  0  0  0
 17 18  1  0  0  0  0
 17 20  1  0  0  0  0
 17 29  1  0  0  0  0
 18 21  1  0  0  0  0
 18 30  1  0  0  0  0
 19 31  1  0  0  0  0
 19 32  1  0  0  0  0
 20 22  1  0  0  0  0
 20 33  1  0  0  0  0
 21 23  1  0  0  0  0
 21 34  1  0  0  0  0
 22 38  1  0  0  0  0
 22 39  1  0  0  0  0
 23 43  1  0  0  0  0
M  END
> <PUBCHEM_COMPOUND_CID>
181526

> <PUBCHEM_CONFORMER_RMSD>
1

> <PUBCHEM_CONFORMER_DIVERSEORDER>
4
3
63
49
9
84
78
57
52
23
27
76
47
66
18
7
32
12
24
56
65
74
75
48
91
61
58
67
21
45
29
97
83
35
28
54
92
86
43
40
26
62
95
50
68
90
72
42
30
53
38
14
39
77
1
44
41
96
15
89
10
33
69
59
85
73
13
82
64
5
11
37
60
80
79
2
93
34
46
88
31
16
36
20
19
71
55
94
6
22
17
81
25
51
70
87
8

> <PUBCHEM_MMFF94_PARTIAL_CHARGES>
32
1 -0.56
10 -0.68
11 -0.57
12 0.28
13 0.28
14 0.28
15 0.56
16 0.28
17 0.28
18 0.28
19 0.28
2 -0.56
20 0.28
21 0.34
22 0.28
23 0.45
3 -0.68
35 0.4
36 0.4
37 0.4
4 -0.68
40 0.4
41 0.4
42 0.4
43 0.06
44 0.4
45 0.4
5 -0.68
6 -0.68
7 -0.68
8 -0.68
9 -0.68

> <PUBCHEM_EFFECTIVE_ROTOR_COUNT>
9.2

> <PUBCHEM_PHARMACOPHORE_FEATURES>
20
1 1 acceptor
1 10 acceptor
1 10 donor
1 11 acceptor
1 2 acceptor
1 3 acceptor
1 3 donor
1 4 acceptor
1 4 donor
1 5 acceptor
1 5 donor
1 6 acceptor
1 6 donor
1 7 acceptor
1 7 donor
1 8 acceptor
1 8 donor
1 9 acceptor
1 9 donor
6 1 12 13 14 15 16 rings

> <PUBCHEM_HEAVY_ATOM_COUNT>
23

> <PUBCHEM_ATOM_DEF_STEREO_COUNT>
9

> <PUBCHEM_ATOM_UDEF_STEREO_COUNT>
0

> <PUBCHEM_BOND_DEF_STEREO_COUNT>
0

> <PUBCHEM_BOND_UDEF_STEREO_COUNT>
0

> <PUBCHEM_ISOTOPIC_ATOM_COUNT>
0

> <PUBCHEM_COMPONENT_COUNT>
1

> <PUBCHEM_CACTVS_TAUTO_COUNT>
6

> <PUBCHEM_CONFORMER_ID>
0002C51600000004

> <PUBCHEM_MMFF94_ENERGY>
62.3545

> <PUBCHEM_FEATURE_SELFOVERLAP>
101.624

> <PUBCHEM_SHAPE_FINGERPRINT>
10616163 171 18050291662938874782
10906281 52 18335155180506011984
10922523 26 18412548725399701787
10967382 1 18265055725786228417
11370993 70 18201991162148778618
116883 192 18338520716573241716
12553582 1 18337128790802784766
12654903 92 18408606967560717856
12788726 201 18045233648117645436
13140716 1 18335428979648112945
13544592 145 18199191685390832590
13583140 156 16773496854859154168
14178342 30 18340198687175687570
14251745 187 18268429044925087474
14790565 3 18049737212679097468
15442244 35 18336547208875259304
16945 1 18271542904836173240
17093844 170 18337947875331080564
17357779 13 18264483997152042404
17492 89 18192995039383137475
18186145 218 18408317770427896827
18981168 100 15141815092237425159
192875 21 18267853064135861701
19591789 44 17761778360064007469
20905425 154 17471577624757923846
21069387 34 16629973100849043606
21285901 2 18121507851456094732
2334 1 18263934408588554104
23402539 116 18337103471944356870
23419403 2 17125607564137326538
23558518 356 18116720809904886123
23559900 14 18201996634290554904
2748010 2 18410586084079969234
3060560 45 18265610975322210871
350125 39 18337404836909366771
6992083 37 18339657662824603457
7164475 11 18267584800562994911
7364860 26 18194409020221316744
74978 22 18261398904762775154
7832392 63 18409446972995999435
81228 2 18189344467963906584
9709674 26 18272654562278567014
9981440 41 17616248530025878064

> <PUBCHEM_SHAPE_MULTIPOLES>
408.77
7.07
3.76
1.09
0.98
0.49
-0.02
-0.7
0.36
-0.27
0.97
-0.19
0.11
0.12

> <PUBCHEM_SHAPE_SELFOVERLAP>
819.517

> <PUBCHEM_SHAPE_VOLUME>
236.3

> <PUBCHEM_COORDINATE_TYPE>
2
5
10

$$$$
