123240
  -OEChem-11012401213D

 30 30  0     0  0  0  0  0  0999 V2000
   -1.3438    0.8241   -0.1364 P   0  0  0  0  0  0  0  0  0  0  0  0
   -0.0266   -1.5484    0.0032 P   0  0  0  0  0  0  0  0  0  0  0  0
    1.3673    0.7852    0.1238 P   0  0  0  0  0  0  0  0  0  0  0  0
   -1.1807   -0.6725   -0.6656 N   0  0  0  0  0  0  0  0  0  0  0  0
    0.0269    1.6342   -0.0429 N   0  0  0  0  0  0  0  0  0  0  0  0
    1.1452   -0.6968    0.6721 N   0  0  0  0  0  0  0  0  0  0  0  0
   -2.1327    0.8320    1.4507 C   0  0  0  0  0  0  0  0  0  0  0  0
   -2.4247    1.6888   -1.2486 C   0  0  0  0  0  0  0  0  0  0  0  0
   -0.7418   -2.6052    1.2373 C   0  0  0  0  0  0  0  0  0  0  0  0
    0.6634   -2.6246   -1.2278 C   0  0  0  0  0  0  0  0  0  0  0  0
    2.4269    1.6413    1.2632 C   0  0  0  0  0  0  0  0  0  0  0  0
    2.2208    0.7417   -1.4291 C   0  0  0  0  0  0  0  0  0  0  0  0
   -3.0742    0.2762    1.4203 H   0  0  0  0  0  0  0  0  0  0  0  0
   -1.4910    0.3783    2.2104 H   0  0  0  0  0  0  0  0  0  0  0  0
   -2.3540    1.8554    1.7672 H   0  0  0  0  0  0  0  0  0  0  0  0
   -2.5927    2.7146   -0.9081 H   0  0  0  0  0  0  0  0  0  0  0  0
   -1.9943    1.7289   -2.2533 H   0  0  0  0  0  0  0  0  0  0  0  0
   -3.3956    1.1892   -1.3127 H   0  0  0  0  0  0  0  0  0  0  0  0
   -1.1782   -2.0231    2.0528 H   0  0  0  0  0  0  0  0  0  0  0  0
   -1.5302   -3.2273    0.8040 H   0  0  0  0  0  0  0  0  0  0  0  0
    0.0163   -3.2685    1.6637 H   0  0  0  0  0  0  0  0  0  0  0  0
    1.4404   -3.2606   -0.7940 H   0  0  0  0  0  0  0  0  0  0  0  0
   -0.1092   -3.2746   -1.6489 H   0  0  0  0  0  0  0  0  0  0  0  0
    1.1085   -2.0556   -2.0477 H   0  0  0  0  0  0  0  0  0  0  0  0
    1.9575    1.7126    2.2485 H   0  0  0  0  0  0  0  0  0  0  0  0
    3.3799    1.1165    1.3759 H   0  0  0  0  0  0  0  0  0  0  0  0
    2.6374    2.6553    0.9112 H   0  0  0  0  0  0  0  0  0  0  0  0
    3.1424    0.1581   -1.3508 H   0  0  0  0  0  0  0  0  0  0  0  0
    1.5966    0.2949   -2.2074 H   0  0  0  0  0  0  0  0  0  0  0  0
    2.4866    1.7524   -1.7525 H   0  0  0  0  0  0  0  0  0  0  0  0
  1  4  2  0  0  0  0
  1  5  1  0  0  0  0
  1  7  1  0  0  0  0
  1  8  1  0  0  0  0
  2  4  1  0  0  0  0
  2  6  2  0  0  0  0
  2  9  1  0  0  0  0
  2 10  1  0  0  0  0
  3  5  2  0  0  0  0
  3  6  1  0  0  0  0
  3 11  1  0  0  0  0
  3 12  1  0  0  0  0
  7 13  1  0  0  0  0
  7 14  1  0  0  0  0
  7 15  1  0  0  0  0
  8 16  1  0  0  0  0
  8 17  1  0  0  0  0
  8 18  1  0  0  0  0
  9 19  1  0  0  0  0
  9 20  1  0  0  0  0
  9 21  1  0  0  0  0
 10 22  1  0  0  0  0
 10 23  1  0  0  0  0
 10 24  1  0  0  0  0
 11 25  1  0  0  0  0
 11 26  1  0  0  0  0
 11 27  1  0  0  0  0
 12 28  1  0  0  0  0
 12 29  1  0  0  0  0
 12 30  1  0  0  0  0
M  END
> <PUBCHEM_COMPOUND_CID>
123240

> <PUBCHEM_CONFORMER_RMSD>
0.4

> <PUBCHEM_CONFORMER_DIVERSEORDER>
3
4
1
2
5
6
7

> <PUBCHEM_MMFF94_PARTIAL_CHARGES>
6
1 0.64
2 0.64
3 0.64
4 -0.64
5 -0.64
6 -0.64

> <PUBCHEM_EFFECTIVE_ROTOR_COUNT>
0

> <PUBCHEM_PHARMACOPHORE_FEATURES>
1
6 1 2 3 4 5 6 rings

> <PUBCHEM_HEAVY_ATOM_COUNT>
12

> <PUBCHEM_ATOM_DEF_STEREO_COUNT>
0

> <PUBCHEM_ATOM_UDEF_STEREO_COUNT>
0

> <PUBCHEM_BOND_DEF_STEREO_COUNT>
0

> <PUBCHEM_BOND_UDEF_STEREO_COUNT>
0

> <PUBCHEM_ISOTOPIC_ATOM_COUNT>
0

> <PUBCHEM_COMPONENT_COUNT>
1

> <PUBCHEM_CACTVS_TAUTO_COUNT>
1

> <PUBCHEM_CONFORMER_ID>
0001E16800000003

> <PUBCHEM_MMFF94_ENERGY>
22.5757

> <PUBCHEM_FEATURE_SELFOVERLAP>
5.074

> <PUBCHEM_SHAPE_FINGERPRINT>
1 1 18119788258119841661
100427 49 17547854053453862609
12138202 97 18127117787794452564
12423570 1 17190109743475574666
14817 1 15606779378421355582
15775835 57 18338502093188922564
16945 1 18042401520269040697
20511035 2 18188474796909696256
20645476 183 17821725048676445076
20711985 344 17974292324020776356
20871998 184 17979631561217654760
21040471 1 18335131016444965820
21041028 32 17335925390613285320
21922407 69 16734385121772639712
21930827 45 18195546976059109360
23419403 2 16316205493616941666
23552423 10 17830735353103136837
23595355 12 18262523567666353983
241688 4 16975320709514113403
2748010 2 18341333391643998556
5084963 1 18408041805604089503
81228 2 17977948212994284339

> <PUBCHEM_SHAPE_MULTIPOLES>
243.56
3.04
2.95
1.55
0.05
2.16
-0.02
-2.23
0.04
-0.05
-0.01
0
-0.04
0.82

> <PUBCHEM_SHAPE_SELFOVERLAP>
421.467

> <PUBCHEM_SHAPE_VOLUME>
165.1

> <PUBCHEM_COORDINATE_TYPE>
2
5
10

$$$$
