15046929
  -OEChem-11012401033D

 52 52  0     0  0  0  0  0  0999 V2000
    3.6005   -1.5735    0.0902 Si  0  0  0  0  0  0  0  0  0  0  0  0
   -0.6827    1.0299   -0.0296 O   0  0  0  0  0  0  0  0  0  0  0  0
    0.0808    2.2129    0.3406 O   0  0  0  0  0  0  0  0  0  0  0  0
   -2.6746   -0.1903    0.5250 C   0  0  0  0  0  0  0  0  0  0  0  0
   -1.8110    1.0282    0.8461 C   0  0  0  0  0  0  0  0  0  0  0  0
   -3.1778   -0.1312   -0.9237 C   0  0  0  0  0  0  0  0  0  0  0  0
   -1.8971   -1.4882    0.7809 C   0  0  0  0  0  0  0  0  0  0  0  0
   -4.0003   -1.3659   -1.2854 C   0  0  0  0  0  0  0  0  0  0  0  0
   -2.7216   -2.7207    0.4162 C   0  0  0  0  0  0  0  0  0  0  0  0
   -3.2273   -2.6543   -1.0215 C   0  0  0  0  0  0  0  0  0  0  0  0
   -1.3071    0.9748    2.2877 C   0  0  0  0  0  0  0  0  0  0  0  0
   -2.5885    2.3189    0.5965 C   0  0  0  0  0  0  0  0  0  0  0  0
    1.2042    2.2183   -0.5282 C   0  0  0  0  0  0  0  0  0  0  0  0
    0.7036    2.3100   -1.9694 C   0  0  0  0  0  0  0  0  0  0  0  0
    2.0479    3.4420   -0.1756 C   0  0  0  0  0  0  0  0  0  0  0  0
    1.9847    0.9849   -0.3273 C   0  0  0  0  0  0  0  0  0  0  0  0
    2.6196   -0.0208   -0.1630 C   0  0  0  0  0  0  0  0  0  0  0  0
    4.7432   -1.3951    1.5784 C   0  0  0  0  0  0  0  0  0  0  0  0
    2.4513   -3.0368    0.3919 C   0  0  0  0  0  0  0  0  0  0  0  0
    4.6521   -1.9433   -1.4297 C   0  0  0  0  0  0  0  0  0  0  0  0
   -3.5528   -0.1891    1.1867 H   0  0  0  0  0  0  0  0  0  0  0  0
   -2.3371   -0.0519   -1.6242 H   0  0  0  0  0  0  0  0  0  0  0  0
   -3.8159    0.7437   -1.0858 H   0  0  0  0  0  0  0  0  0  0  0  0
   -1.6201   -1.5818    1.8361 H   0  0  0  0  0  0  0  0  0  0  0  0
   -0.9658   -1.5033    0.2009 H   0  0  0  0  0  0  0  0  0  0  0  0
   -4.2896   -1.3200   -2.3415 H   0  0  0  0  0  0  0  0  0  0  0  0
   -4.9282   -1.3707   -0.7002 H   0  0  0  0  0  0  0  0  0  0  0  0
   -3.5754   -2.8042    1.0999 H   0  0  0  0  0  0  0  0  0  0  0  0
   -2.1151   -3.6233    0.5517 H   0  0  0  0  0  0  0  0  0  0  0  0
   -3.8689   -3.5184   -1.2273 H   0  0  0  0  0  0  0  0  0  0  0  0
   -2.3760   -2.7164   -1.7106 H   0  0  0  0  0  0  0  0  0  0  0  0
   -0.8731    1.9310    2.6039 H   0  0  0  0  0  0  0  0  0  0  0  0
   -2.1187    0.7493    2.9881 H   0  0  0  0  0  0  0  0  0  0  0  0
   -0.5084    0.2361    2.4167 H   0  0  0  0  0  0  0  0  0  0  0  0
   -2.6964    2.5372   -0.4717 H   0  0  0  0  0  0  0  0  0  0  0  0
   -2.0779    3.1916    1.0215 H   0  0  0  0  0  0  0  0  0  0  0  0
   -3.5828    2.2831    1.0552 H   0  0  0  0  0  0  0  0  0  0  0  0
    0.1549    1.4137   -2.2821 H   0  0  0  0  0  0  0  0  0  0  0  0
    0.0186    3.1572   -2.0913 H   0  0  0  0  0  0  0  0  0  0  0  0
    1.5353    2.4359   -2.6724 H   0  0  0  0  0  0  0  0  0  0  0  0
    2.9421    3.5165   -0.8043 H   0  0  0  0  0  0  0  0  0  0  0  0
    2.3720    3.4068    0.8717 H   0  0  0  0  0  0  0  0  0  0  0  0
    1.4655    4.3637   -0.2890 H   0  0  0  0  0  0  0  0  0  0  0  0
    5.4413   -0.5661    1.4294 H   0  0  0  0  0  0  0  0  0  0  0  0
    4.1641   -1.2005    2.4860 H   0  0  0  0  0  0  0  0  0  0  0  0
    5.3223   -2.3110    1.7285 H   0  0  0  0  0  0  0  0  0  0  0  0
    3.0291   -3.9533    0.5430 H   0  0  0  0  0  0  0  0  0  0  0  0
    1.8368   -2.8654    1.2807 H   0  0  0  0  0  0  0  0  0  0  0  0
    1.7858   -3.1852   -0.4638 H   0  0  0  0  0  0  0  0  0  0  0  0
    5.3489   -1.1226   -1.6236 H   0  0  0  0  0  0  0  0  0  0  0  0
    5.2311   -2.8595   -1.2809 H   0  0  0  0  0  0  0  0  0  0  0  0
    4.0189   -2.0749   -2.3121 H   0  0  0  0  0  0  0  0  0  0  0  0
  1 17  1  0  0  0  0
  1 18  1  0  0  0  0
  1 19  1  0  0  0  0
  1 20  1  0  0  0  0
  2  3  1  0  0  0  0
  2  5  1  0  0  0  0
  3 13  1  0  0  0  0
  4  5  1  0  0  0  0
  4  6  1  0  0  0  0
  4  7  1  0  0  0  0
  4 21  1  0  0  0  0
  5 11  1  0  0  0  0
  5 12  1  0  0  0  0
  6  8  1  0  0  0  0
  6 22  1  0  0  0  0
  6 23  1  0  0  0  0
  7  9  1  0  0  0  0
  7 24  1  0  0  0  0
  7 25  1  0  0  0  0
  8 10  1  0  0  0  0
  8 26  1  0  0  0  0
  8 27  1  0  0  0  0
  9 10  1  0  0  0  0
  9 28  1  0  0  0  0
  9 29  1  0  0  0  0
 10 30  1  0  0  0  0
 10 31  1  0  0  0  0
 11 32  1  0  0  0  0
 11 33  1  0  0  0  0
 11 34  1  0  0  0  0
 12 35  1  0  0  0  0
 12 36  1  0  0  0  0
 12 37  1  0  0  0  0
 13 14  1  0  0  0  0
 13 15  1  0  0  0  0
 13 16  1  0  0  0  0
 14 38  1  0  0  0  0
 14 39  1  0  0  0  0
 14 40  1  0  0  0  0
 15 41  1  0  0  0  0
 15 42  1  0  0  0  0
 15 43  1  0  0  0  0
 16 17  3  0  0  0  0
 18 44  1  0  0  0  0
 18 45  1  0  0  0  0
 18 46  1  0  0  0  0
 19 47  1  0  0  0  0
 19 48  1  0  0  0  0
 19 49  1  0  0  0  0
 20 50  1  0  0  0  0
 20 51  1  0  0  0  0
 20 52  1  0  0  0  0
M  END
> <PUBCHEM_COMPOUND_CID>
15046929

> <PUBCHEM_CONFORMER_RMSD>
0.8

> <PUBCHEM_CONFORMER_DIVERSEORDER>
1
11
2
12
13
7
10
3
8
4
9
6
14
5

> <PUBCHEM_MMFF94_PARTIAL_CHARGES>
10
1 0.54
13 0.48
16 -0.2
17 -0.29
18 -0.08
19 -0.08
2 -0.28
20 -0.08
3 -0.28
5 0.28

> <PUBCHEM_EFFECTIVE_ROTOR_COUNT>
5.2

> <PUBCHEM_PHARMACOPHORE_FEATURES>
3
3 13 14 15 hydrophobe
3 5 11 12 hydrophobe
6 4 6 7 8 9 10 rings

> <PUBCHEM_HEAVY_ATOM_COUNT>
20

> <PUBCHEM_ATOM_DEF_STEREO_COUNT>
0

> <PUBCHEM_ATOM_UDEF_STEREO_COUNT>
0

> <PUBCHEM_BOND_DEF_STEREO_COUNT>
0

> <PUBCHEM_BOND_UDEF_STEREO_COUNT>
0

> <PUBCHEM_ISOTOPIC_ATOM_COUNT>
0

> <PUBCHEM_COMPONENT_COUNT>
1

> <PUBCHEM_CACTVS_TAUTO_COUNT>
1

> <PUBCHEM_CONFORMER_ID>
00E5991100000001

> <PUBCHEM_MMFF94_ENERGY>
30.3351

> <PUBCHEM_FEATURE_SELFOVERLAP>
15.223

> <PUBCHEM_SHAPE_FINGERPRINT>
11069576 57 18055625376660443454
11370993 70 17685766217895937517
11552529 35 17846214398190030666
12553582 1 18262811653072538794
12596599 1 18129390306593605746
12841375 7 18337679624621867940
13583140 156 16056018161821657554
13911987 19 17253724183550981685
13931106 250 17828469281202765252
14081887 123 18123739873541630058
14251757 17 18043502028698670663
14787075 74 17485367008600102496
15099037 8 18341897428219085361
15415430 10 18410287000327941722
15420108 30 17335626306846375697
19141452 34 18196934370612415944
192875 21 18410002260669969730
20291156 8 18411986857793921766
20645477 70 18117271669483086403
20671657 53 18261102002216155382
20775530 9 18193276527366140903
21315764 21 16299775452561160066
21452121 71 18409737261509371668
23419403 2 17840544280860014152
23557571 272 17988630874886684306
23559900 14 18340756143628742288
23598288 3 17988373623862515477
23728640 28 18198071278768195857
26353 1 17603590707717281892
339767 52 18338218406589111986
4280585 95 18261381244553638138
463206 1 17837764887332727783
6433294 58 17690839381795930799
9709674 26 18337672026450148423

> <PUBCHEM_SHAPE_MULTIPOLES>
418.06
8.41
4.2
1.62
4.72
1.04
0.14
-7.03
-0.7
0.16
-0.68
-0.02
0.15
-1.29

> <PUBCHEM_SHAPE_SELFOVERLAP>
796.388

> <PUBCHEM_SHAPE_VOLUME>
261.4

> <PUBCHEM_COORDINATE_TYPE>
2
5
10

$$$$
