136535
  -OEChem-11012400583D

 29 31  0     0  0  0  0  0  0999 V2000
    0.5682    1.2765    0.2276 C   0  0  0  0  0  0  0  0  0  0  0  0
    0.5683   -1.2421    0.3715 C   0  0  0  0  0  0  0  0  0  0  0  0
   -0.6944   -0.0848   -1.4844 C   0  0  0  0  0  0  0  0  0  0  0  0
   -1.5423    0.0505    0.8841 C   0  0  0  0  0  0  0  0  0  0  0  0
    1.4009    0.0366    0.6382 C   0  0  0  0  0  0  0  0  0  0  0  0
    0.1383    1.1870   -1.2496 C   0  0  0  0  0  0  0  0  0  0  0  0
   -0.7017    1.3214    1.1026 C   0  0  0  0  0  0  0  0  0  0  0  0
    0.1385   -1.3216   -1.1063 C   0  0  0  0  0  0  0  0  0  0  0  0
   -0.7016   -1.1873    1.2459 C   0  0  0  0  0  0  0  0  0  0  0  0
   -1.9499   -0.0342   -0.5966 C   0  0  0  0  0  0  0  0  0  0  0  0
    2.7757   -0.0019   -0.0329 C   0  0  0  0  0  0  0  0  0  0  0  0
    1.1505    2.1913    0.3878 H   0  0  0  0  0  0  0  0  0  0  0  0
    1.1507   -2.1327    0.6348 H   0  0  0  0  0  0  0  0  0  0  0  0
   -0.9902   -0.1450   -2.5377 H   0  0  0  0  0  0  0  0  0  0  0  0
   -2.4385    0.0864    1.5133 H   0  0  0  0  0  0  0  0  0  0  0  0
    1.5939    0.0983    1.7188 H   0  0  0  0  0  0  0  0  0  0  0  0
    1.0132    1.1919   -1.9089 H   0  0  0  0  0  0  0  0  0  0  0  0
   -0.4535    2.0717   -1.5168 H   0  0  0  0  0  0  0  0  0  0  0  0
   -1.2954    2.2101    0.8551 H   0  0  0  0  0  0  0  0  0  0  0  0
   -0.4253    1.4099    2.1605 H   0  0  0  0  0  0  0  0  0  0  0  0
   -0.4533   -2.2310   -1.2709 H   0  0  0  0  0  0  0  0  0  0  0  0
    1.0134   -1.4015   -1.7607 H   0  0  0  0  0  0  0  0  0  0  0  0
   -0.4252   -1.1548    2.3071 H   0  0  0  0  0  0  0  0  0  0  0  0
   -1.2953   -2.0984    1.1012 H   0  0  0  0  0  0  0  0  0  0  0  0
   -2.5655    0.8327   -0.8664 H   0  0  0  0  0  0  0  0  0  0  0  0
   -2.5654   -0.9263   -0.7658 H   0  0  0  0  0  0  0  0  0  0  0  0
    3.3472    0.8979    0.2189 H   0  0  0  0  0  0  0  0  0  0  0  0
    3.3471   -0.8672    0.3197 H   0  0  0  0  0  0  0  0  0  0  0  0
    2.7199   -0.0641   -1.1224 H   0  0  0  0  0  0  0  0  0  0  0  0
  1  5  1  0  0  0  0
  1  6  1  0  0  0  0
  1  7  1  0  0  0  0
  1 12  1  0  0  0  0
  2  5  1  0  0  0  0
  2  8  1  0  0  0  0
  2  9  1  0  0  0  0
  2 13  1  0  0  0  0
  3  6  1  0  0  0  0
  3  8  1  0  0  0  0
  3 10  1  0  0  0  0
  3 14  1  0  0  0  0
  4  7  1  0  0  0  0
  4  9  1  0  0  0  0
  4 10  1  0  0  0  0
  4 15  1  0  0  0  0
  5 11  1  0  0  0  0
  5 16  1  0  0  0  0
  6 17  1  0  0  0  0
  6 18  1  0  0  0  0
  7 19  1  0  0  0  0
  7 20  1  0  0  0  0
  8 21  1  0  0  0  0
  8 22  1  0  0  0  0
  9 23  1  0  0  0  0
  9 24  1  0  0  0  0
 10 25  1  0  0  0  0
 10 26  1  0  0  0  0
 11 27  1  0  0  0  0
 11 28  1  0  0  0  0
 11 29  1  0  0  0  0
M  END
> <PUBCHEM_COMPOUND_CID>
136535

> <PUBCHEM_CONFORMER_RMSD>
0.4

> <PUBCHEM_CONFORMER_DIVERSEORDER>
1

> <PUBCHEM_MMFF94_PARTIAL_CHARGES>
0

> <PUBCHEM_EFFECTIVE_ROTOR_COUNT>
1.2

> <PUBCHEM_PHARMACOPHORE_FEATURES>
4
6 1 2 3 5 6 8 rings
6 1 2 4 5 7 9 rings
6 1 3 4 6 7 10 rings
6 2 3 4 8 9 10 rings

> <PUBCHEM_HEAVY_ATOM_COUNT>
11

> <PUBCHEM_ATOM_DEF_STEREO_COUNT>
0

> <PUBCHEM_ATOM_UDEF_STEREO_COUNT>
0

> <PUBCHEM_BOND_DEF_STEREO_COUNT>
0

> <PUBCHEM_BOND_UDEF_STEREO_COUNT>
0

> <PUBCHEM_ISOTOPIC_ATOM_COUNT>
0

> <PUBCHEM_COMPONENT_COUNT>
1

> <PUBCHEM_CACTVS_TAUTO_COUNT>
1

> <PUBCHEM_CONFORMER_ID>
0002155700000001

> <PUBCHEM_MMFF94_ENERGY>
24.005

> <PUBCHEM_FEATURE_SELFOVERLAP>
32.785

> <PUBCHEM_SHAPE_FINGERPRINT>
10702982 57 17060055878752322460
12423570 1 9362060439378899977
13024252 1 13551469254946209920
137420 1 10371993939980403917
14817 1 15266187325018330055
15557651 10 18117528843334330853
16945 1 18337655477983283459
369184 2 16877935045134477128
5084963 1 18262232351856679703
528886 8 17845919767353627687
68250623 7 17698452030822503687

> <PUBCHEM_SHAPE_MULTIPOLES>
226.37
2.25
1.48
1.48
1.13
0.01
-0.23
0.01
0.13
0
0.08
-0.39
-0.02
-0.02

> <PUBCHEM_SHAPE_SELFOVERLAP>
486.873

> <PUBCHEM_SHAPE_VOLUME>
114.9

> <PUBCHEM_COORDINATE_TYPE>
2
5
10

$$$$
