20230819
  -OEChem-11012400473D

 34 38  0     0  0  0  0  0  0999 V2000
   -6.2854    0.3296   -0.0010 N   0  0  0  0  0  0  0  0  0  0  0  0
    6.2852   -0.3302   -0.0007 N   0  0  0  0  0  0  0  0  0  0  0  0
   -1.4010   -0.2251    0.0001 C   0  0  0  0  0  0  0  0  0  0  0  0
    1.4010    0.2252    0.0001 C   0  0  0  0  0  0  0  0  0  0  0  0
   -0.9026    1.1048    0.0002 C   0  0  0  0  0  0  0  0  0  0  0  0
    0.9027   -1.1047    0.0001 C   0  0  0  0  0  0  0  0  0  0  0  0
   -0.5111   -1.3319    0.0000 C   0  0  0  0  0  0  0  0  0  0  0  0
    0.5112    1.3320    0.0000 C   0  0  0  0  0  0  0  0  0  0  0  0
   -2.8128   -0.4520    0.0002 C   0  0  0  0  0  0  0  0  0  0  0  0
    2.8129    0.4521    0.0001 C   0  0  0  0  0  0  0  0  0  0  0  0
   -1.8564    2.1544    0.0004 C   0  0  0  0  0  0  0  0  0  0  0  0
    1.8563   -2.1544    0.0002 C   0  0  0  0  0  0  0  0  0  0  0  0
   -1.0880   -2.6275    0.0000 C   0  0  0  0  0  0  0  0  0  0  0  0
    1.0881    2.6275    0.0000 C   0  0  0  0  0  0  0  0  0  0  0  0
   -3.7051    0.6216    0.0002 C   0  0  0  0  0  0  0  0  0  0  0  0
    3.7051   -0.6216    0.0001 C   0  0  0  0  0  0  0  0  0  0  0  0
   -3.3238   -1.7511    0.0002 C   0  0  0  0  0  0  0  0  0  0  0  0
    3.3237    1.7512   -0.0001 C   0  0  0  0  0  0  0  0  0  0  0  0
   -3.2292    1.9205    0.0003 C   0  0  0  0  0  0  0  0  0  0  0  0
    3.2293   -1.9205    0.0002 C   0  0  0  0  0  0  0  0  0  0  0  0
   -2.4652   -2.8355    0.0001 C   0  0  0  0  0  0  0  0  0  0  0  0
    2.4652    2.8357    0.0001 C   0  0  0  0  0  0  0  0  0  0  0  0
   -5.1323    0.4601   -0.0004 C   0  0  0  0  0  0  0  0  0  0  0  0
    5.1320   -0.4605   -0.0003 C   0  0  0  0  0  0  0  0  0  0  0  0
   -1.5515    3.1974    0.0005 H   0  0  0  0  0  0  0  0  0  0  0  0
    1.5515   -3.1974    0.0002 H   0  0  0  0  0  0  0  0  0  0  0  0
   -0.4721   -3.5227   -0.0001 H   0  0  0  0  0  0  0  0  0  0  0  0
    0.4721    3.5228   -0.0001 H   0  0  0  0  0  0  0  0  0  0  0  0
   -4.3895   -1.9639    0.0003 H   0  0  0  0  0  0  0  0  0  0  0  0
    4.3895    1.9641    0.0000 H   0  0  0  0  0  0  0  0  0  0  0  0
   -3.9072    2.7710    0.0002 H   0  0  0  0  0  0  0  0  0  0  0  0
    3.9073   -2.7710    0.0001 H   0  0  0  0  0  0  0  0  0  0  0  0
   -2.8617   -3.8466    0.0001 H   0  0  0  0  0  0  0  0  0  0  0  0
    2.8617    3.8468    0.0000 H   0  0  0  0  0  0  0  0  0  0  0  0
  1 23  3  0  0  0  0
  2 24  3  0  0  0  0
  3  5  2  0  0  0  0
  3  7  1  0  0  0  0
  3  9  1  0  0  0  0
  4  6  2  0  0  0  0
  4  8  1  0  0  0  0
  4 10  1  0  0  0  0
  5  8  1  0  0  0  0
  5 11  1  0  0  0  0
  6  7  1  0  0  0  0
  6 12  1  0  0  0  0
  7 13  2  0  0  0  0
  8 14  2  0  0  0  0
  9 15  2  0  0  0  0
  9 17  1  0  0  0  0
 10 16  2  0  0  0  0
 10 18  1  0  0  0  0
 11 19  2  0  0  0  0
 11 25  1  0  0  0  0
 12 20  2  0  0  0  0
 12 26  1  0  0  0  0
 13 21  1  0  0  0  0
 13 27  1  0  0  0  0
 14 22  1  0  0  0  0
 14 28  1  0  0  0  0
 15 19  1  0  0  0  0
 15 23  1  0  0  0  0
 16 20  1  0  0  0  0
 16 24  1  0  0  0  0
 17 21  2  0  0  0  0
 17 29  1  0  0  0  0
 18 22  2  0  0  0  0
 18 30  1  0  0  0  0
 19 31  1  0  0  0  0
 20 32  1  0  0  0  0
 21 33  1  0  0  0  0
 22 34  1  0  0  0  0
M  END
> <PUBCHEM_COMPOUND_CID>
20230819

> <PUBCHEM_CONFORMER_RMSD>
0.6

> <PUBCHEM_CONFORMER_DIVERSEORDER>
1

> <PUBCHEM_MMFF94_PARTIAL_CHARGES>
26
1 -0.56
11 -0.15
12 -0.15
13 -0.15
14 -0.15
15 0.07
16 0.07
17 -0.15
18 -0.15
19 -0.15
2 -0.56
20 -0.15
21 -0.15
22 -0.15
23 0.48
24 0.48
25 0.15
26 0.15
27 0.15
28 0.15
29 0.15
30 0.15
31 0.15
32 0.15
33 0.15
34 0.15

> <PUBCHEM_EFFECTIVE_ROTOR_COUNT>
0

> <PUBCHEM_PHARMACOPHORE_FEATURES>
7
1 1 acceptor
1 2 acceptor
6 3 4 5 6 7 8 rings
6 3 5 9 11 15 19 rings
6 3 7 9 13 17 21 rings
6 4 6 10 12 16 20 rings
6 4 8 10 14 18 22 rings

> <PUBCHEM_HEAVY_ATOM_COUNT>
24

> <PUBCHEM_ATOM_DEF_STEREO_COUNT>
0

> <PUBCHEM_ATOM_UDEF_STEREO_COUNT>
0

> <PUBCHEM_BOND_DEF_STEREO_COUNT>
0

> <PUBCHEM_BOND_UDEF_STEREO_COUNT>
0

> <PUBCHEM_ISOTOPIC_ATOM_COUNT>
0

> <PUBCHEM_COMPONENT_COUNT>
1

> <PUBCHEM_CACTVS_TAUTO_COUNT>
1

> <PUBCHEM_CONFORMER_ID>
0134B2A300000001

> <PUBCHEM_MMFF94_ENERGY>
88.7998

> <PUBCHEM_FEATURE_SELFOVERLAP>
35.67

> <PUBCHEM_SHAPE_FINGERPRINT>
10411042 1 17906453581859087234
10616163 171 18267025148669644799
10906281 52 18269856266562248230
10967382 1 18410856525301156709
1100329 8 18410856589704560921
11578080 2 17058351816102287027
12011746 2 18410573955086680350
12553582 1 18337658746553693964
12633257 1 18410573985151451178
12838862 33 18338216202980452945
13140716 1 18338517567934562577
13402501 40 18410573950791712900
13583140 156 17385726876714599361
138480 1 17689997834720363491
14223421 5 18338799051501207560
14790565 3 17835810690293160784
15099037 51 18410856551081510119
15196674 1 18338516464127967233
15442244 35 18410572920316079362
1601671 61 18411700963791521262
16087824 20 18337955563523702157
16945 1 18410575114727849990
17492 89 18193275427938831098
19591789 44 18050005497894942959
20028762 73 18201714055523586743
20691752 17 17458892855445074354
20775438 99 16547161484840207751
20905425 154 18125729125661018582
21033648 29 17822276977981636453
21267235 1 18411144614506436674
21421861 104 17824254896341844114
21859007 373 17897136088449665197
221490 88 18336834216043985018
23227448 37 18412543232337081471
2334 1 17906453581762920454
23366157 5 17969499501929215468
23402539 116 18342450452339639974
23558518 356 17899698148041735059
23559900 14 18341325699489869072
2748010 2 18194402186585178247
3004659 81 18260553303976903334
3178227 256 18335715905745275073
335352 9 18410575088958046663
338550 245 18262241130722600628
34934 24 18411132567176087842
350125 39 18409450292895033805
3545911 37 18411418397196694210
3633792 109 18340478985964809861
3680242 22 18263362486548776138
4214541 1 18410574006631581858
484989 97 18264484161168297679
5104073 3 18338517563639595945
59755656 215 18339365171657900118
9709674 26 18192996134651967290
9981440 41 17543068339338336352

> <PUBCHEM_SHAPE_MULTIPOLES>
483.95
10.23
3.18
0.61
0
0
0
0
0
0
0
0
0
0

> <PUBCHEM_SHAPE_SELFOVERLAP>
1131.953

> <PUBCHEM_SHAPE_VOLUME>
238.3

> <PUBCHEM_COORDINATE_TYPE>
2
5
10

$$$$
