107550
  -OEChem-11012400353D

 18 17  0     0  0  0  0  0  0999 V2000
   -3.9134   -0.3228   -0.5076 O   0  0  0  0  0  0  0  0  0  0  0  0
    3.9264   -0.3100    0.4809 O   0  0  0  0  0  0  0  0  0  0  0  0
   -2.3338   -1.1859    0.8834 O   0  0  0  0  0  0  0  0  0  0  0  0
    2.3198   -1.2058   -0.8578 O   0  0  0  0  0  0  0  0  0  0  0  0
   -1.9278    0.9148   -0.3003 C   0  0  0  0  0  0  0  0  0  0  0  0
    1.9289    0.9123    0.2997 C   0  0  0  0  0  0  0  0  0  0  0  0
   -0.5756    0.9172    0.3431 C   0  0  0  0  0  0  0  0  0  0  0  0
    0.5767    0.9158   -0.3436 C   0  0  0  0  0  0  0  0  0  0  0  0
   -2.7026   -0.3154    0.1092 C   0  0  0  0  0  0  0  0  0  0  0  0
    2.7014   -0.3202   -0.1070 C   0  0  0  0  0  0  0  0  0  0  0  0
   -2.4807    1.8012    0.0278 H   0  0  0  0  0  0  0  0  0  0  0  0
   -1.8475    0.9271   -1.3927 H   0  0  0  0  0  0  0  0  0  0  0  0
    1.8498    0.9273    1.3921 H   0  0  0  0  0  0  0  0  0  0  0  0
    2.4825    1.7972   -0.0313 H   0  0  0  0  0  0  0  0  0  0  0  0
   -0.5465    0.9276    1.4303 H   0  0  0  0  0  0  0  0  0  0  0  0
    0.5477    0.9243   -1.4308 H   0  0  0  0  0  0  0  0  0  0  0  0
   -4.4457   -1.1081   -0.2581 H   0  0  0  0  0  0  0  0  0  0  0  0
    4.4576   -1.0963    0.2320 H   0  0  0  0  0  0  0  0  0  0  0  0
  1  9  1  0  0  0  0
  1 17  1  0  0  0  0
  2 10  1  0  0  0  0
  2 18  1  0  0  0  0
  3  9  2  0  0  0  0
  4 10  2  0  0  0  0
  5  7  1  0  0  0  0
  5  9  1  0  0  0  0
  5 11  1  0  0  0  0
  5 12  1  0  0  0  0
  6  8  1  0  0  0  0
  6 10  1  0  0  0  0
  6 13  1  0  0  0  0
  6 14  1  0  0  0  0
  7  8  2  3  0  0  0
  7 15  1  0  0  0  0
  8 16  1  0  0  0  0
M  END
> <PUBCHEM_COMPOUND_CID>
107550

> <PUBCHEM_CONFORMER_RMSD>
0.6

> <PUBCHEM_CONFORMER_DIVERSEORDER>
3
17
1
18
9
16
12
4
2
15
14
6
19
13
8
20
11
5
10
7

> <PUBCHEM_MMFF94_PARTIAL_CHARGES>
14
1 -0.65
10 0.66
15 0.15
16 0.15
17 0.5
18 0.5
2 -0.65
3 -0.57
4 -0.57
5 0.2
6 0.2
7 -0.29
8 -0.29
9 0.66

> <PUBCHEM_EFFECTIVE_ROTOR_COUNT>
4

> <PUBCHEM_PHARMACOPHORE_FEATURES>
6
1 1 acceptor
1 2 acceptor
1 3 acceptor
1 4 acceptor
3 1 3 9 anion
3 2 4 10 anion

> <PUBCHEM_HEAVY_ATOM_COUNT>
10

> <PUBCHEM_ATOM_DEF_STEREO_COUNT>
0

> <PUBCHEM_ATOM_UDEF_STEREO_COUNT>
0

> <PUBCHEM_BOND_DEF_STEREO_COUNT>
0

> <PUBCHEM_BOND_UDEF_STEREO_COUNT>
1

> <PUBCHEM_ISOTOPIC_ATOM_COUNT>
0

> <PUBCHEM_COMPONENT_COUNT>
1

> <PUBCHEM_CACTVS_TAUTO_COUNT>
1

> <PUBCHEM_CONFORMER_ID>
0001A41E00000003

> <PUBCHEM_MMFF94_ENERGY>
3.693

> <PUBCHEM_FEATURE_SELFOVERLAP>
30.563

> <PUBCHEM_SHAPE_FINGERPRINT>
12932764 1 16487246652015475416
14390081 3 9367348115403816525
177051 138 18131634478049189284
20201158 50 18410576179880038283
20279233 1 18410573989446463907
20281407 28 18272937119607680437
20653085 51 10881696692778598156
20711978 1 18410012156227185852
21119208 17 15647049352386575238
22485316 2 18410849962570035910
3248919 1 18410298012028190945
581208 293 18202561800098765518

> <PUBCHEM_SHAPE_MULTIPOLES>
182.32
6.49
1.21
0.79
0.03
0.03
0
2.06
0.01
0
0
-0.02
0.1
0.39

> <PUBCHEM_SHAPE_SELFOVERLAP>
347.482

> <PUBCHEM_SHAPE_VOLUME>
111.1

> <PUBCHEM_COORDINATE_TYPE>
2
5
10

$$$$
