141696
  -OEChem-11012400323D

 72 80  0     1  0  0  0  0  0999 V2000
    0.7510   -1.5981   -1.6152 O   0  0  0  0  0  0  0  0  0  0  0  0
   -0.7517   -1.5984   -1.6150 O   0  0  0  0  0  0  0  0  0  0  0  0
    1.3052   -1.2229   -0.3174 C   0  0  1  0  0  0  0  0  0  0  0  0
   -1.3054   -1.2229   -0.3170 C   0  0  2  0  0  0  0  0  0  0  0  0
    0.7051    0.1653   -0.0638 C   0  0  0  0  0  0  0  0  0  0  0  0
   -0.7051    0.1653   -0.0636 C   0  0  0  0  0  0  0  0  0  0  0  0
    0.7067   -2.2625    0.6374 C   0  0  0  0  0  0  0  0  0  0  0  0
   -0.7067   -2.2627    0.6374 C   0  0  0  0  0  0  0  0  0  0  0  0
    1.3984    1.3710    0.0812 C   0  0  0  0  0  0  0  0  0  0  0  0
   -1.3983    1.3709    0.0815 C   0  0  0  0  0  0  0  0  0  0  0  0
    2.7770   -1.3526   -0.5011 C   0  0  0  0  0  0  0  0  0  0  0  0
   -2.7772   -1.3527   -0.5010 C   0  0  0  0  0  0  0  0  0  0  0  0
    0.7067    2.5810    0.2548 C   0  0  0  0  0  0  0  0  0  0  0  0
   -0.7066    2.5809    0.2548 C   0  0  0  0  0  0  0  0  0  0  0  0
    1.3995   -3.2057    1.4017 C   0  0  0  0  0  0  0  0  0  0  0  0
   -1.3994   -3.2066    1.4010 C   0  0  0  0  0  0  0  0  0  0  0  0
    2.8543    1.3823    0.0806 C   0  0  0  0  0  0  0  0  0  0  0  0
   -2.8542    1.3820    0.0813 C   0  0  0  0  0  0  0  0  0  0  0  0
    3.6324   -1.2354    0.5962 C   0  0  0  0  0  0  0  0  0  0  0  0
   -3.6327   -1.2361    0.5962 C   0  0  0  0  0  0  0  0  0  0  0  0
    3.3058   -1.5921   -1.7709 C   0  0  0  0  0  0  0  0  0  0  0  0
   -3.3057   -1.5907   -1.7712 C   0  0  0  0  0  0  0  0  0  0  0  0
    0.6965   -4.1250    2.1804 C   0  0  0  0  0  0  0  0  0  0  0  0
   -0.6962   -4.1255    2.1800 C   0  0  0  0  0  0  0  0  0  0  0  0
    1.3927    3.7960    0.4175 C   0  0  0  0  0  0  0  0  0  0  0  0
   -1.3926    3.7960    0.4171 C   0  0  0  0  0  0  0  0  0  0  0  0
    3.5444    1.2170    1.2763 C   0  0  0  0  0  0  0  0  0  0  0  0
   -3.5410    1.5578   -1.1149 C   0  0  0  0  0  0  0  0  0  0  0  0
    3.5412    1.5577   -1.1156 C   0  0  0  0  0  0  0  0  0  0  0  0
   -3.5444    1.2162    1.2769 C   0  0  0  0  0  0  0  0  0  0  0  0
    0.6955    4.9931    0.5807 C   0  0  0  0  0  0  0  0  0  0  0  0
   -0.6955    4.9932    0.5807 C   0  0  0  0  0  0  0  0  0  0  0  0
    5.0113   -1.3570    0.4243 C   0  0  0  0  0  0  0  0  0  0  0  0
   -5.0115   -1.3574    0.4240 C   0  0  0  0  0  0  0  0  0  0  0  0
    4.6847   -1.7138   -1.9427 C   0  0  0  0  0  0  0  0  0  0  0  0
   -4.6847   -1.7119   -1.9433 C   0  0  0  0  0  0  0  0  0  0  0  0
    5.5374   -1.5963   -0.8450 C   0  0  0  0  0  0  0  0  0  0  0  0
   -5.5375   -1.5953   -0.8458 C   0  0  0  0  0  0  0  0  0  0  0  0
    4.9393    1.2275    1.2760 C   0  0  0  0  0  0  0  0  0  0  0  0
   -4.9358    1.5682   -1.1154 C   0  0  0  0  0  0  0  0  0  0  0  0
    4.9361    1.5680   -1.1158 C   0  0  0  0  0  0  0  0  0  0  0  0
   -4.9392    1.2266    1.2763 C   0  0  0  0  0  0  0  0  0  0  0  0
    5.6350    1.4029    0.0801 C   0  0  0  0  0  0  0  0  0  0  0  0
   -5.6349    1.4025    0.0801 C   0  0  0  0  0  0  0  0  0  0  0  0
    2.4778   -3.2985    1.3980 H   0  0  0  0  0  0  0  0  0  0  0  0
   -2.4777   -3.3000    1.3968 H   0  0  0  0  0  0  0  0  0  0  0  0
    3.2423   -1.1671    1.6102 H   0  0  0  0  0  0  0  0  0  0  0  0
   -3.2427   -1.1685    1.6102 H   0  0  0  0  0  0  0  0  0  0  0  0
    2.6992   -1.6806   -2.6668 H   0  0  0  0  0  0  0  0  0  0  0  0
   -2.6991   -1.6784   -2.6671 H   0  0  0  0  0  0  0  0  0  0  0  0
    1.2370   -4.8592    2.7714 H   0  0  0  0  0  0  0  0  0  0  0  0
   -1.2365   -4.8600    2.7706 H   0  0  0  0  0  0  0  0  0  0  0  0
    2.4772    3.8634    0.4247 H   0  0  0  0  0  0  0  0  0  0  0  0
   -2.4771    3.8633    0.4241 H   0  0  0  0  0  0  0  0  0  0  0  0
    3.0158    1.1128    2.2220 H   0  0  0  0  0  0  0  0  0  0  0  0
   -3.0103    1.6923   -2.0543 H   0  0  0  0  0  0  0  0  0  0  0  0
    3.0107    1.6917   -2.0551 H   0  0  0  0  0  0  0  0  0  0  0  0
   -3.0159    1.1117    2.2225 H   0  0  0  0  0  0  0  0  0  0  0  0
    1.2387    5.9252    0.7065 H   0  0  0  0  0  0  0  0  0  0  0  0
   -1.2386    5.9253    0.7064 H   0  0  0  0  0  0  0  0  0  0  0  0
    5.6749   -1.3560    1.2857 H   0  0  0  0  0  0  0  0  0  0  0  0
   -5.6753   -1.3569    1.2853 H   0  0  0  0  0  0  0  0  0  0  0  0
    5.0955   -1.9011   -2.9305 H   0  0  0  0  0  0  0  0  0  0  0  0
   -5.0953   -1.8982   -2.9314 H   0  0  0  0  0  0  0  0  0  0  0  0
    6.6094   -1.7121   -0.9759 H   0  0  0  0  0  0  0  0  0  0  0  0
   -6.6095   -1.7106   -0.9769 H   0  0  0  0  0  0  0  0  0  0  0  0
    5.4832    1.1203    2.2105 H   0  0  0  0  0  0  0  0  0  0  0  0
   -5.4773    1.7093   -2.0461 H   0  0  0  0  0  0  0  0  0  0  0  0
    5.4780    1.7088   -2.0465 H   0  0  0  0  0  0  0  0  0  0  0  0
   -5.4834    1.1190    2.2106 H   0  0  0  0  0  0  0  0  0  0  0  0
    6.7211    1.4213    0.0809 H   0  0  0  0  0  0  0  0  0  0  0  0
   -6.7210    1.4207    0.0808 H   0  0  0  0  0  0  0  0  0  0  0  0
  1  2  1  0  0  0  0
  1  3  1  0  0  0  0
  2  4  1  0  0  0  0
  3  5  1  0  0  0  0
  3  7  1  0  0  0  0
  3 11  1  0  0  0  0
  4  6  1  0  0  0  0
  4  8  1  0  0  0  0
  4 12  1  0  0  0  0
  5  6  1  0  0  0  0
  5  9  2  0  0  0  0
  6 10  2  0  0  0  0
  7  8  1  0  0  0  0
  7 15  2  0  0  0  0
  8 16  2  0  0  0  0
  9 13  1  0  0  0  0
  9 17  1  0  0  0  0
 10 14  1  0  0  0  0
 10 18  1  0  0  0  0
 11 19  2  0  0  0  0
 11 21  1  0  0  0  0
 12 20  2  0  0  0  0
 12 22  1  0  0  0  0
 13 14  1  0  0  0  0
 13 25  2  0  0  0  0
 14 26  2  0  0  0  0
 15 23  1  0  0  0  0
 15 45  1  0  0  0  0
 16 24  1  0  0  0  0
 16 46  1  0  0  0  0
 17 27  2  0  0  0  0
 17 29  1  0  0  0  0
 18 28  2  0  0  0  0
 18 30  1  0  0  0  0
 19 33  1  0  0  0  0
 19 47  1  0  0  0  0
 20 34  1  0  0  0  0
 20 48  1  0  0  0  0
 21 35  2  0  0  0  0
 21 49  1  0  0  0  0
 22 36  2  0  0  0  0
 22 50  1  0  0  0  0
 23 24  2  0  0  0  0
 23 51  1  0  0  0  0
 24 52  1  0  0  0  0
 25 31  1  0  0  0  0
 25 53  1  0  0  0  0
 26 32  1  0  0  0  0
 26 54  1  0  0  0  0
 27 39  1  0  0  0  0
 27 55  1  0  0  0  0
 28 40  1  0  0  0  0
 28 56  1  0  0  0  0
 29 41  2  0  0  0  0
 29 57  1  0  0  0  0
 30 42  2  0  0  0  0
 30 58  1  0  0  0  0
 31 32  2  0  0  0  0
 31 59  1  0  0  0  0
 32 60  1  0  0  0  0
 33 37  2  0  0  0  0
 33 61  1  0  0  0  0
 34 38  2  0  0  0  0
 34 62  1  0  0  0  0
 35 37  1  0  0  0  0
 35 63  1  0  0  0  0
 36 38  1  0  0  0  0
 36 64  1  0  0  0  0
 37 65  1  0  0  0  0
 38 66  1  0  0  0  0
 39 43  2  0  0  0  0
 39 67  1  0  0  0  0
 40 44  2  0  0  0  0
 40 68  1  0  0  0  0
 41 43  1  0  0  0  0
 41 69  1  0  0  0  0
 42 44  1  0  0  0  0
 42 70  1  0  0  0  0
 43 71  1  0  0  0  0
 44 72  1  0  0  0  0
M  END
> <PUBCHEM_COMPOUND_CID>
141696

> <PUBCHEM_CONFORMER_RMSD>
1

> <PUBCHEM_CONFORMER_DIVERSEORDER>
1

> <PUBCHEM_MMFF94_PARTIAL_CHARGES>
66
1 -0.28
11 -0.14
12 -0.14
15 -0.15
16 -0.15
19 -0.15
2 -0.28
20 -0.15
21 -0.15
22 -0.15
23 -0.15
24 -0.15
25 -0.15
26 -0.15
27 -0.15
28 -0.15
29 -0.15
3 0.71
30 -0.15
31 -0.15
32 -0.15
33 -0.15
34 -0.15
35 -0.15
36 -0.15
37 -0.15
38 -0.15
39 -0.15
4 0.71
40 -0.15
41 -0.15
42 -0.15
43 -0.15
44 -0.15
45 0.15
46 0.15
47 0.15
48 0.15
49 0.15
5 -0.14
50 0.15
51 0.15
52 0.15
53 0.15
54 0.15
55 0.15
56 0.15
57 0.15
58 0.15
59 0.15
6 -0.14
60 0.15
61 0.15
62 0.15
63 0.15
64 0.15
65 0.15
66 0.15
67 0.15
68 0.15
69 0.15
7 -0.14
70 0.15
71 0.15
72 0.15
8 -0.14

> <PUBCHEM_EFFECTIVE_ROTOR_COUNT>
4.4

> <PUBCHEM_PHARMACOPHORE_FEATURES>
8
6 11 19 21 33 35 37 rings
6 12 20 22 34 36 38 rings
6 13 14 25 26 31 32 rings
6 17 27 29 39 41 43 rings
6 18 28 30 40 42 44 rings
6 5 6 9 10 13 14 rings
6 7 8 15 16 23 24 rings
8 1 2 3 4 5 6 7 8 rings

> <PUBCHEM_HEAVY_ATOM_COUNT>
44

> <PUBCHEM_ATOM_DEF_STEREO_COUNT>
0

> <PUBCHEM_ATOM_UDEF_STEREO_COUNT>
2

> <PUBCHEM_BOND_DEF_STEREO_COUNT>
0

> <PUBCHEM_BOND_UDEF_STEREO_COUNT>
0

> <PUBCHEM_ISOTOPIC_ATOM_COUNT>
0

> <PUBCHEM_COMPONENT_COUNT>
1

> <PUBCHEM_CACTVS_TAUTO_COUNT>
1

> <PUBCHEM_CONFORMER_ID>
0002298000000001

> <PUBCHEM_MMFF94_ENERGY>
278.0256

> <PUBCHEM_FEATURE_SELFOVERLAP>
40.654

> <PUBCHEM_SHAPE_FINGERPRINT>
10006869 2 17905888081358762713
10190108 129 17830770584609518913
10675989 125 18263358101598455340
10906281 52 18267311022294428528
1100329 8 18409170986860743193
11513181 2 17481420478909508663
11607047 403 16551395686664057323
12107698 1 18342457002914054110
12422481 6 17703794673801776526
12788726 201 18409728465690532664
13140716 1 18409729517276953776
13636023 20 18341597218848087937
13782708 43 17678171805859555883
13811026 1 18342449344285368398
140371 6 18267590293710453320
14394314 77 18412266150854140416
14400156 260 18267583508115682969
14790565 3 18334297573645969961
15324884 4 17624146293000876994
15351339 4 18261099786192671579
15361156 5 18341909476150678542
15420108 30 17914912937235146777
15968369 153 18131344211860271860
16112460 7 18270417013456488409
17909252 39 17774169998470861302
19311894 1 18342457032704745903
19319366 153 18188495662188432927
20642791 35 18269277850853840505
20691752 17 18259702285691801190
20764821 26 18262818305528429272
22393880 68 18337950087202211207
23559900 14 18341059549409664220
24771293 8 17986945439799694696
24771750 20 17542230502455357613
392239 28 18337392625868795714
463206 1 18411138034864816349
508706 21 18260267468964854219
6086070 43 18265309778103857279
9896288 288 17619343204850581562

> <PUBCHEM_SHAPE_MULTIPOLES>
893.76
11.38
5.61
1.71
0
3.14
-0.15
-0.39
-2.98
0
2.76
0
-1.49
0

> <PUBCHEM_SHAPE_SELFOVERLAP>
2115.316

> <PUBCHEM_SHAPE_VOLUME>
435

> <PUBCHEM_COORDINATE_TYPE>
2
5
10

$$$$
