136378
  -OEChem-11012400553D

 13 12  0     0  0  0  0  0  0999 V2000
    2.1555   -0.7336    0.0000 C   0  0  0  0  0  0  0  0  0  0  0  0
   -2.1553   -0.7337    0.0000 C   0  0  0  0  0  0  0  0  0  0  0  0
    1.3013    0.4895    0.0000 C   0  0  0  0  0  0  0  0  0  0  0  0
   -1.3015    0.4895    0.0000 C   0  0  0  0  0  0  0  0  0  0  0  0
    0.0000    0.4884    0.0000 C   0  0  0  0  0  0  0  0  0  0  0  0
    1.5567   -1.6502   -0.0010 H   0  0  0  0  0  0  0  0  0  0  0  0
    2.7956   -0.7426    0.8874 H   0  0  0  0  0  0  0  0  0  0  0  0
    2.7970   -0.7416   -0.8864 H   0  0  0  0  0  0  0  0  0  0  0  0
   -2.7969   -0.7418   -0.8864 H   0  0  0  0  0  0  0  0  0  0  0  0
   -1.5565   -1.6502   -0.0010 H   0  0  0  0  0  0  0  0  0  0  0  0
   -2.7954   -0.7428    0.8874 H   0  0  0  0  0  0  0  0  0  0  0  0
    1.8154    1.4462    0.0003 H   0  0  0  0  0  0  0  0  0  0  0  0
   -1.8155    1.4462    0.0005 H   0  0  0  0  0  0  0  0  0  0  0  0
  1  3  1  0  0  0  0
  1  6  1  0  0  0  0
  1  7  1  0  0  0  0
  1  8  1  0  0  0  0
  2  4  1  0  0  0  0
  2  9  1  0  0  0  0
  2 10  1  0  0  0  0
  2 11  1  0  0  0  0
  3  5  2  0  0  0  0
  3 12  1  0  0  0  0
  4  5  2  0  0  0  0
  4 13  1  0  0  0  0
M  END
> <PUBCHEM_COMPOUND_CID>
136378

> <PUBCHEM_CONFORMER_RMSD>
0.4

> <PUBCHEM_CONFORMER_DIVERSEORDER>
1

> <PUBCHEM_MMFF94_PARTIAL_CHARGES>
7
1 0.14
12 0.15
13 0.15
2 0.14
3 -0.22
4 -0.22
5 -0.13

> <PUBCHEM_EFFECTIVE_ROTOR_COUNT>
0

> <PUBCHEM_PHARMACOPHORE_FEATURES>
2
1 1 hydrophobe
1 2 hydrophobe

> <PUBCHEM_HEAVY_ATOM_COUNT>
5

> <PUBCHEM_ATOM_DEF_STEREO_COUNT>
0

> <PUBCHEM_ATOM_UDEF_STEREO_COUNT>
0

> <PUBCHEM_BOND_DEF_STEREO_COUNT>
0

> <PUBCHEM_BOND_UDEF_STEREO_COUNT>
0

> <PUBCHEM_ISOTOPIC_ATOM_COUNT>
0

> <PUBCHEM_COMPONENT_COUNT>
1

> <PUBCHEM_CACTVS_TAUTO_COUNT>
1

> <PUBCHEM_CONFORMER_ID>
000214BA00000001

> <PUBCHEM_MMFF94_ENERGY>
-0.0692

> <PUBCHEM_FEATURE_SELFOVERLAP>
10.149

> <PUBCHEM_SHAPE_FINGERPRINT>
14390081 3 8142079853653890078
20096714 4 9367347037250844302
21040471 1 9223227451213035716
29004967 10 18343300370696135872
5460574 1 18410856551171252229

> <PUBCHEM_SHAPE_MULTIPOLES>
102.9
3.15
0.98
0.62
0
0.09
0
1.03
0
0
0
0
0
0

> <PUBCHEM_SHAPE_SELFOVERLAP>
179.032

> <PUBCHEM_SHAPE_VOLUME>
66.6

> <PUBCHEM_COORDINATE_TYPE>
2
5
10

$$$$
