2797591
  -OEChem-11012400533D

 22 22  0     0  0  0  0  0  0999 V2000
    2.6532    1.4389   -1.0917 N   0  0  0  0  0  0  0  0  0  0  0  0
    1.2618   -0.3878    0.2566 C   0  0  0  0  0  0  0  0  0  0  0  0
   -0.2039   -0.1539    0.1096 C   0  0  0  0  0  0  0  0  0  0  0  0
    1.7783   -1.7742   -0.2512 C   0  0  0  0  0  0  0  0  0  0  0  0
    1.6931   -0.3032    1.7532 C   0  0  0  0  0  0  0  0  0  0  0  0
   -0.7644    1.0495    0.5377 C   0  0  0  0  0  0  0  0  0  0  0  0
   -1.0142   -1.1384   -0.4562 C   0  0  0  0  0  0  0  0  0  0  0  0
    2.0612    0.6356   -0.4987 C   0  0  0  0  0  0  0  0  0  0  0  0
   -2.1351    1.2686    0.4001 C   0  0  0  0  0  0  0  0  0  0  0  0
   -2.3849   -0.9193   -0.5938 C   0  0  0  0  0  0  0  0  0  0  0  0
   -2.9452    0.2843   -0.1657 C   0  0  0  0  0  0  0  0  0  0  0  0
    1.5860   -1.9101   -1.3227 H   0  0  0  0  0  0  0  0  0  0  0  0
    1.3117   -2.6024    0.2949 H   0  0  0  0  0  0  0  0  0  0  0  0
    2.8635   -1.8672   -0.1141 H   0  0  0  0  0  0  0  0  0  0  0  0
    1.5074    0.6888    2.1815 H   0  0  0  0  0  0  0  0  0  0  0  0
    1.1452   -1.0343    2.3596 H   0  0  0  0  0  0  0  0  0  0  0  0
    2.7653   -0.5018    1.8731 H   0  0  0  0  0  0  0  0  0  0  0  0
   -0.1545    1.8348    0.9761 H   0  0  0  0  0  0  0  0  0  0  0  0
   -0.6308   -2.0908   -0.8052 H   0  0  0  0  0  0  0  0  0  0  0  0
   -2.5715    2.2061    0.7321 H   0  0  0  0  0  0  0  0  0  0  0  0
   -3.0166   -1.6852   -1.0344 H   0  0  0  0  0  0  0  0  0  0  0  0
   -4.0124    0.4550   -0.2732 H   0  0  0  0  0  0  0  0  0  0  0  0
  1  8  3  0  0  0  0
  2  3  1  0  0  0  0
  2  4  1  0  0  0  0
  2  5  1  0  0  0  0
  2  8  1  0  0  0  0
  3  6  2  0  0  0  0
  3  7  1  0  0  0  0
  4 12  1  0  0  0  0
  4 13  1  0  0  0  0
  4 14  1  0  0  0  0
  5 15  1  0  0  0  0
  5 16  1  0  0  0  0
  5 17  1  0  0  0  0
  6  9  1  0  0  0  0
  6 18  1  0  0  0  0
  7 10  2  0  0  0  0
  7 19  1  0  0  0  0
  9 11  2  0  0  0  0
  9 20  1  0  0  0  0
 10 11  1  0  0  0  0
 10 21  1  0  0  0  0
 11 22  1  0  0  0  0
M  END
> <PUBCHEM_COMPOUND_CID>
2797591

> <PUBCHEM_CONFORMER_RMSD>
0.4

> <PUBCHEM_CONFORMER_DIVERSEORDER>
1
2
3

> <PUBCHEM_MMFF94_PARTIAL_CHARGES>
14
1 -0.56
10 -0.15
11 -0.15
18 0.15
19 0.15
2 0.34
20 0.15
21 0.15
22 0.15
3 -0.14
6 -0.15
7 -0.15
8 0.36
9 -0.15

> <PUBCHEM_EFFECTIVE_ROTOR_COUNT>
1

> <PUBCHEM_PHARMACOPHORE_FEATURES>
3
1 1 acceptor
3 2 4 5 hydrophobe
6 3 6 7 9 10 11 rings

> <PUBCHEM_HEAVY_ATOM_COUNT>
11

> <PUBCHEM_ATOM_DEF_STEREO_COUNT>
0

> <PUBCHEM_ATOM_UDEF_STEREO_COUNT>
0

> <PUBCHEM_BOND_DEF_STEREO_COUNT>
0

> <PUBCHEM_BOND_UDEF_STEREO_COUNT>
0

> <PUBCHEM_ISOTOPIC_ATOM_COUNT>
0

> <PUBCHEM_COMPONENT_COUNT>
1

> <PUBCHEM_CACTVS_TAUTO_COUNT>
1

> <PUBCHEM_CONFORMER_ID>
002AB01700000001

> <PUBCHEM_MMFF94_ENERGY>
31.585

> <PUBCHEM_FEATURE_SELFOVERLAP>
15.223

> <PUBCHEM_SHAPE_FINGERPRINT>
12326174 3 17530961346184349458
12897270 3 18270686479487925788
12932764 1 17418371402686672375
14128692 85 18057611966865478302
15310529 11 17749102301393324645
15775835 57 18260555549269333900
16945 1 18201147854025980075
170605 34 17968384532223186508
20082192 1 18189323598253279743
20645464 45 16844994788820076523
20653085 51 17968936362796533013
20711985 344 15696338174032500056
207724 885 18048885086945813690
21040471 1 18129937875931205027
21524375 3 17824268326551584452
23552423 10 18338515235968196471
2748010 2 18129936780867629319
3248919 1 18336254687448320147
369184 2 16877938335010834497
5084963 1 18198340654605710099
7364860 26 18272367547321038858
8030462 33 18131062732182119791

> <PUBCHEM_SHAPE_MULTIPOLES>
221.39
4.12
1.57
1.11
0.92
0.18
0.3
-0.49
-0.62
-0.24
-0.25
-0.77
-0.16
-0.66

> <PUBCHEM_SHAPE_SELFOVERLAP>
456.355

> <PUBCHEM_SHAPE_VOLUME>
126.3

> <PUBCHEM_COORDINATE_TYPE>
2
5
10

$$$$
