3085259
  -OEChem-11012401153D

 19 18  0     0  0  0  0  0  0999 V2000
   -0.0001   -0.1471    0.0000 Si  0  0  0  0  0  0  0  0  0  0  0  0
    0.0002   -1.1225    1.3588 O   0  0  0  0  0  0  0  0  0  0  0  0
   -0.0005   -1.1187   -1.3616 O   0  0  0  0  0  0  0  0  0  0  0  0
   -1.5189    0.9586    0.0011 C   0  0  0  0  0  0  0  0  0  0  0  0
    1.5191    0.9585    0.0010 C   0  0  0  0  0  0  0  0  0  0  0  0
   -2.8595    0.2357    0.0005 C   0  0  0  0  0  0  0  0  0  0  0  0
    2.8596    0.2355    0.0002 C   0  0  0  0  0  0  0  0  0  0  0  0
   -1.4720    1.6103    0.8812 H   0  0  0  0  0  0  0  0  0  0  0  0
   -1.4722    1.6125   -0.8774 H   0  0  0  0  0  0  0  0  0  0  0  0
    1.4723    1.6124   -0.8775 H   0  0  0  0  0  0  0  0  0  0  0  0
    1.4722    1.6101    0.8811 H   0  0  0  0  0  0  0  0  0  0  0  0
   -3.6791    0.9617    0.0014 H   0  0  0  0  0  0  0  0  0  0  0  0
   -2.9721   -0.3975   -0.8863 H   0  0  0  0  0  0  0  0  0  0  0  0
   -2.9718   -0.3995    0.8859 H   0  0  0  0  0  0  0  0  0  0  0  0
    3.6792    0.9615    0.0031 H   0  0  0  0  0  0  0  0  0  0  0  0
    2.9712   -0.4013    0.8846 H   0  0  0  0  0  0  0  0  0  0  0  0
    2.9732   -0.3961   -0.8876 H   0  0  0  0  0  0  0  0  0  0  0  0
    0.0004   -0.6877    2.2282 H   0  0  0  0  0  0  0  0  0  0  0  0
    0.7394   -1.7386   -1.4759 H   0  0  0  0  0  0  0  0  0  0  0  0
  1  2  1  0  0  0  0
  1  3  1  0  0  0  0
  1  4  1  0  0  0  0
  1  5  1  0  0  0  0
  2 18  1  0  0  0  0
  3 19  1  0  0  0  0
  4  6  1  0  0  0  0
  4  8  1  0  0  0  0
  4  9  1  0  0  0  0
  5  7  1  0  0  0  0
  5 10  1  0  0  0  0
  5 11  1  0  0  0  0
  6 12  1  0  0  0  0
  6 13  1  0  0  0  0
  6 14  1  0  0  0  0
  7 15  1  0  0  0  0
  7 16  1  0  0  0  0
  7 17  1  0  0  0  0
M  END
> <PUBCHEM_COMPOUND_CID>
3085259

> <PUBCHEM_CONFORMER_RMSD>
0.4

> <PUBCHEM_CONFORMER_DIVERSEORDER>
1
6
2
3
4
5

> <PUBCHEM_MMFF94_PARTIAL_CHARGES>
7
1 0.76
18 0.4
19 0.4
2 -0.7
3 -0.7
4 -0.08
5 -0.08

> <PUBCHEM_EFFECTIVE_ROTOR_COUNT>
2

> <PUBCHEM_PHARMACOPHORE_FEATURES>
0

> <PUBCHEM_HEAVY_ATOM_COUNT>
7

> <PUBCHEM_ATOM_DEF_STEREO_COUNT>
0

> <PUBCHEM_ATOM_UDEF_STEREO_COUNT>
0

> <PUBCHEM_BOND_DEF_STEREO_COUNT>
0

> <PUBCHEM_BOND_UDEF_STEREO_COUNT>
0

> <PUBCHEM_ISOTOPIC_ATOM_COUNT>
0

> <PUBCHEM_COMPONENT_COUNT>
1

> <PUBCHEM_CACTVS_TAUTO_COUNT>
1

> <PUBCHEM_CONFORMER_ID>
002F13CB00000001

> <PUBCHEM_MMFF94_ENERGY>
-4.3187

> <PUBCHEM_FEATURE_SELFOVERLAP>
0

> <PUBCHEM_SHAPE_FINGERPRINT>
11062470 55 9511462225337392561
16714656 1 18059850701129984845
20653085 51 18059305343436636352
21040471 1 18410292527481385608
24536 1 17770770222444364485
29004967 10 17775576316243683585
5084963 1 18408040710361445009
5943 1 15405586522933741190

> <PUBCHEM_SHAPE_MULTIPOLES>
150.53
3.54
1.19
1.04
0
0.11
0
-0.94
0
0
0
0
0.42
0

> <PUBCHEM_SHAPE_SELFOVERLAP>
252.114

> <PUBCHEM_SHAPE_VOLUME>
102.3

> <PUBCHEM_COORDINATE_TYPE>
2
5
10

$$$$
