75887
  -OEChem-11012400453D

 31 32  0     0  0  0  0  0  0999 V2000
   -0.0011    1.7688   -0.0001 O   0  0  0  0  0  0  0  0  0  0  0  0
   -2.7319   -1.8505    1.5976 N   0  0  0  0  0  0  0  0  0  0  0  0
    2.7293   -1.8509   -1.5976 N   0  0  0  0  0  0  0  0  0  0  0  0
   -4.7661   -1.0927   -0.2448 N   0  0  0  0  0  0  0  0  0  0  0  0
    4.7636   -1.0933    0.2447 N   0  0  0  0  0  0  0  0  0  0  0  0
   -1.1646    1.0648   -0.0555 C   0  0  0  0  0  0  0  0  0  0  0  0
    1.1826    1.0523    0.0563 C   0  0  0  0  0  0  0  0  0  0  0  0
   -2.5545   -0.7472    0.7332 C   0  0  0  0  0  0  0  0  0  0  0  0
    2.5520   -0.7475   -0.7332 C   0  0  0  0  0  0  0  0  0  0  0  0
   -1.3615   -0.0267    0.7903 C   0  0  0  0  0  0  0  0  0  0  0  0
    1.3591   -0.0269   -0.7904 C   0  0  0  0  0  0  0  0  0  0  0  0
   -3.5508   -0.3759   -0.1699 C   0  0  0  0  0  0  0  0  0  0  0  0
    3.5484   -0.3764    0.1698 C   0  0  0  0  0  0  0  0  0  0  0  0
   -2.1609    1.4358   -0.9585 C   0  0  0  0  0  0  0  0  0  0  0  0
    2.1587    1.4356    0.9584 C   0  0  0  0  0  0  0  0  0  0  0  0
   -3.3540    0.7155   -1.0157 C   0  0  0  0  0  0  0  0  0  0  0  0
    3.3517    0.7152    1.0155 C   0  0  0  0  0  0  0  0  0  0  0  0
   -0.6032   -0.3135    1.5158 H   0  0  0  0  0  0  0  0  0  0  0  0
    0.5994   -0.3104   -1.5143 H   0  0  0  0  0  0  0  0  0  0  0  0
   -2.0130    2.2850   -1.6201 H   0  0  0  0  0  0  0  0  0  0  0  0
    2.0066    2.2849    1.6175 H   0  0  0  0  0  0  0  0  0  0  0  0
   -4.1217    1.0156   -1.7244 H   0  0  0  0  0  0  0  0  0  0  0  0
    4.1195    1.0152    1.7242 H   0  0  0  0  0  0  0  0  0  0  0  0
   -3.5838   -2.3919    1.5845 H   0  0  0  0  0  0  0  0  0  0  0  0
   -1.9963   -2.1010    2.2454 H   0  0  0  0  0  0  0  0  0  0  0  0
    3.5812   -2.3923   -1.5846 H   0  0  0  0  0  0  0  0  0  0  0  0
    1.9938   -2.1013   -2.2455 H   0  0  0  0  0  0  0  0  0  0  0  0
   -5.4755   -0.8048   -0.9061 H   0  0  0  0  0  0  0  0  0  0  0  0
   -4.9419   -1.8860    0.3543 H   0  0  0  0  0  0  0  0  0  0  0  0
    5.4729   -0.8055    0.9063 H   0  0  0  0  0  0  0  0  0  0  0  0
    4.9391   -1.8869   -0.3538 H   0  0  0  0  0  0  0  0  0  0  0  0
  1  6  1  0  0  0  0
  1  7  1  0  0  0  0
  2  8  1  0  0  0  0
  2 24  1  0  0  0  0
  2 25  1  0  0  0  0
  3  9  1  0  0  0  0
  3 26  1  0  0  0  0
  3 27  1  0  0  0  0
  4 12  1  0  0  0  0
  4 28  1  0  0  0  0
  4 29  1  0  0  0  0
  5 13  1  0  0  0  0
  5 30  1  0  0  0  0
  5 31  1  0  0  0  0
  6 10  2  0  0  0  0
  6 14  1  0  0  0  0
  7 11  2  0  0  0  0
  7 15  1  0  0  0  0
  8 10  1  0  0  0  0
  8 12  2  0  0  0  0
  9 11  1  0  0  0  0
  9 13  2  0  0  0  0
 10 18  1  0  0  0  0
 11 19  1  0  0  0  0
 12 16  1  0  0  0  0
 13 17  1  0  0  0  0
 14 16  2  0  0  0  0
 14 20  1  0  0  0  0
 15 17  2  0  0  0  0
 15 21  1  0  0  0  0
 16 22  1  0  0  0  0
 17 23  1  0  0  0  0
M  END
> <PUBCHEM_COMPOUND_CID>
75887

> <PUBCHEM_CONFORMER_RMSD>
0.6

> <PUBCHEM_CONFORMER_DIVERSEORDER>
1
2
10
9
5
6
8
4
11
3
7

> <PUBCHEM_MMFF94_PARTIAL_CHARGES>
31
1 -0.17
10 -0.15
11 -0.15
12 0.1
13 0.1
14 -0.15
15 -0.15
16 -0.15
17 -0.15
18 0.15
19 0.15
2 -0.9
20 0.15
21 0.15
22 0.15
23 0.15
24 0.4
25 0.4
26 0.4
27 0.4
28 0.4
29 0.4
3 -0.9
30 0.4
31 0.4
4 -0.9
5 -0.9
6 0.08
7 0.08
8 0.1
9 0.1

> <PUBCHEM_EFFECTIVE_ROTOR_COUNT>
2

> <PUBCHEM_PHARMACOPHORE_FEATURES>
11
1 1 acceptor
1 2 cation
1 2 donor
1 3 cation
1 3 donor
1 4 cation
1 4 donor
1 5 cation
1 5 donor
6 6 8 10 12 14 16 rings
6 7 9 11 13 15 17 rings

> <PUBCHEM_HEAVY_ATOM_COUNT>
17

> <PUBCHEM_ATOM_DEF_STEREO_COUNT>
0

> <PUBCHEM_ATOM_UDEF_STEREO_COUNT>
0

> <PUBCHEM_BOND_DEF_STEREO_COUNT>
0

> <PUBCHEM_BOND_UDEF_STEREO_COUNT>
0

> <PUBCHEM_ISOTOPIC_ATOM_COUNT>
0

> <PUBCHEM_COMPONENT_COUNT>
1

> <PUBCHEM_CACTVS_TAUTO_COUNT>
1

> <PUBCHEM_CONFORMER_ID>
0001286F00000001

> <PUBCHEM_MMFF94_ENERGY>
99.4803

> <PUBCHEM_FEATURE_SELFOVERLAP>
55.833

> <PUBCHEM_SHAPE_FINGERPRINT>
10366900 7 18343306980761600122
10751810 167 16732703848250516697
11471102 22 17917992754834036292
11543360 7 17458357342317694548
11582403 64 16537273348458043541
11615757 297 16773791511159145544
12251169 10 17131830975701065724
12363563 72 18410017636568038540
13296908 3 18410572889935031013
13693222 15 17703791422469412984
13965767 371 14474474047500688219
14115302 16 16950562216065165795
14252887 29 18272654558120165160
14289901 80 17490148612331927505
14386348 63 18410857663446514567
15375358 24 18411128143322823689
15375462 189 16487249980345714746
15635459 17 18341897380900799886
16752209 62 17458613515610500257
17834072 14 18410851066376721924
17870717 6 18114469954868045742
19049666 15 18268147548194023860
19050596 39 15697994167123871725
19141452 34 18341614875944243511
19862831 5 15719113569264047629
200 152 17632285770610593029
20201158 50 18411699872178673139
20279233 1 18410855464423129089
204376 136 17630311168366272976
20645476 183 15285357336340162371
20645477 70 18272646861554588558
20871999 31 17821453447502701772
23402539 116 18113888334855293309
23403322 49 18335980874445378250
23557571 272 17968086547355884220
23559900 14 18187639194306925688
26918003 58 17917988369587901145
3060560 45 13767922404183101472
3082319 5 15719395044240712801
474 4 15768059519571094232
74978 22 15647344073068897981
77492 1 15769772472307917237
81228 2 18266746774654800729
8809292 202 18260830392826673097
9709674 26 18335698394636068489

> <PUBCHEM_SHAPE_MULTIPOLES>
324.06
8.35
1.73
1.24
0.03
0.11
0
3.28
0
0
0
0
0.31
1.54

> <PUBCHEM_SHAPE_SELFOVERLAP>
703.496

> <PUBCHEM_SHAPE_VOLUME>
177.5

> <PUBCHEM_COORDINATE_TYPE>
2
5
10

$$$$
