141026
  -OEChem-11012401003D

 29 28  0     1  0  0  0  0  0999 V2000
    1.1317    0.3970   -0.0098 O   0  0  0  0  0  0  0  0  0  0  0  0
   -0.1352   -1.0669   -1.2648 O   0  0  0  0  0  0  0  0  0  0  0  0
    2.2675   -0.4737   -0.0007 C   0  0  1  0  0  0  0  0  0  0  0  0
   -2.5411   -0.0418   -0.2065 C   0  0  0  0  0  0  0  0  0  0  0  0
    3.4890    0.3012    0.4981 C   0  0  0  0  0  0  0  0  0  0  0  0
   -1.1936    0.5160    0.2484 C   0  0  0  0  0  0  0  0  0  0  0  0
   -3.6984    0.6271    0.5338 C   0  0  0  0  0  0  0  0  0  0  0  0
    1.9663   -1.6658    0.8977 C   0  0  0  0  0  0  0  0  0  0  0  0
   -0.0355   -0.1629   -0.4467 C   0  0  0  0  0  0  0  0  0  0  0  0
    3.7880    1.5225   -0.3613 C   0  0  0  0  0  0  0  0  0  0  0  0
   -5.0388    0.0474    0.1117 C   0  0  0  0  0  0  0  0  0  0  0  0
    2.4628   -0.8173   -1.0245 H   0  0  0  0  0  0  0  0  0  0  0  0
   -2.6569    0.1052   -1.2876 H   0  0  0  0  0  0  0  0  0  0  0  0
   -2.5690   -1.1248   -0.0314 H   0  0  0  0  0  0  0  0  0  0  0  0
    3.3162    0.6447    1.5255 H   0  0  0  0  0  0  0  0  0  0  0  0
    4.3672   -0.3545    0.5129 H   0  0  0  0  0  0  0  0  0  0  0  0
   -1.0758    0.3663    1.3276 H   0  0  0  0  0  0  0  0  0  0  0  0
   -1.1451    1.5884    0.0286 H   0  0  0  0  0  0  0  0  0  0  0  0
   -3.6927    1.7054    0.3364 H   0  0  0  0  0  0  0  0  0  0  0  0
   -3.5757    0.4944    1.6151 H   0  0  0  0  0  0  0  0  0  0  0  0
    1.6317   -1.3357    1.8877 H   0  0  0  0  0  0  0  0  0  0  0  0
    1.1761   -2.3050    0.4930 H   0  0  0  0  0  0  0  0  0  0  0  0
    2.8552   -2.2926    1.0246 H   0  0  0  0  0  0  0  0  0  0  0  0
    2.9654    2.2438   -0.3328 H   0  0  0  0  0  0  0  0  0  0  0  0
    3.9590    1.2350   -1.4036 H   0  0  0  0  0  0  0  0  0  0  0  0
    4.6883    2.0274    0.0031 H   0  0  0  0  0  0  0  0  0  0  0  0
   -5.2075    0.1899   -0.9606 H   0  0  0  0  0  0  0  0  0  0  0  0
   -5.0887   -1.0245    0.3281 H   0  0  0  0  0  0  0  0  0  0  0  0
   -5.8525    0.5412    0.6521 H   0  0  0  0  0  0  0  0  0  0  0  0
  1  3  1  0  0  0  0
  1  9  1  0  0  0  0
  2  9  2  0  0  0  0
  3  5  1  0  0  0  0
  3  8  1  0  0  0  0
  3 12  1  0  0  0  0
  4  6  1  0  0  0  0
  4  7  1  0  0  0  0
  4 13  1  0  0  0  0
  4 14  1  0  0  0  0
  5 10  1  0  0  0  0
  5 15  1  0  0  0  0
  5 16  1  0  0  0  0
  6  9  1  0  0  0  0
  6 17  1  0  0  0  0
  6 18  1  0  0  0  0
  7 11  1  0  0  0  0
  7 19  1  0  0  0  0
  7 20  1  0  0  0  0
  8 21  1  0  0  0  0
  8 22  1  0  0  0  0
  8 23  1  0  0  0  0
 10 24  1  0  0  0  0
 10 25  1  0  0  0  0
 10 26  1  0  0  0  0
 11 27  1  0  0  0  0
 11 28  1  0  0  0  0
 11 29  1  0  0  0  0
M  END
> <PUBCHEM_COMPOUND_CID>
141026

> <PUBCHEM_CONFORMER_RMSD>
0.6

> <PUBCHEM_CONFORMER_DIVERSEORDER>
1
306
171
372
85
399
378
406
208
25
430
17
328
423
381
314
6
424
147
213
122
354
375
232
318
431
202
155
365
416
256
103
214
9
380
134
21
281
133
396
176
332
273
329
4
379
224
367
93
245
387
144
417
128
429
411
368
100
142
388
179
382
38
408
45
70
364
186
217
87
395
104
366
116
383
278
46
151
212
274
255
391
161
353
300
13
251
99
156
397
23
351
51
427
198
37
218
123
334
40
312
404
130
258
418
311
268
347
219
230
321
61
345
31
394
253
371
370
313
405
222
401
18
384
109
301
105
35
373
392
143
207
327
228
275
181
107
325
343
342
137
138
390
95
339
426
319
34
29
233
246
326
286
352
377
335
248
132
126
239
162
172
200
422
338
204
158
410
16
59
304
419
299
193
296
348
337
117
389
88
20
386
293
185
414
71
119
305
24
91
58
412
102
41
118
309
341
188
97
210
65
111
285
175
174
241
26
331
259
385
49
32
69
376
135
11
68
415
413
164
407
303
280
323
7
315
252
30
183
215
127
428
238
75
257
421
114
2
74
402
165
96
121
78
94
297
302
163
282
288
265
220
141
227
324
393
72
409
229
226
167
27
420
79
250
14
98
244
157
106
283
330
266
237
261
53
92
182
260
369
8
10
194
291
124
110
140
76
112
425
225
310
216
42
234
357
403
64
3
62
284
308
170
287
48
19
358
189
398
169
277
113
60
279
50
205
400
73
36
276
33
197
152
211
362
159
209
254
15
178
271
196
43
267
54
55
77
180
57
39
139
63
47
82
333
235
361
269
177
145
243
363
236
166
247
199
195
5
154
136
206
322
190
359
120
160
66
374
101
191
346
173
187
350
316
249
356
292
355
12
295
203
344
80
231
262
131
298
125
44
289
192
28
201
320
108
56
294
81
270
67
129
83
290
360
264
221
349
89
242
115
184
84
22
307
52
223
153
86
340
317
168
272
90
336
148
149
263
146
150
240

> <PUBCHEM_MMFF94_PARTIAL_CHARGES>
5
1 -0.43
2 -0.57
3 0.28
6 0.06
9 0.66

> <PUBCHEM_EFFECTIVE_ROTOR_COUNT>
6

> <PUBCHEM_PHARMACOPHORE_FEATURES>
3
1 10 hydrophobe
1 11 hydrophobe
1 2 acceptor

> <PUBCHEM_HEAVY_ATOM_COUNT>
11

> <PUBCHEM_ATOM_DEF_STEREO_COUNT>
0

> <PUBCHEM_ATOM_UDEF_STEREO_COUNT>
1

> <PUBCHEM_BOND_DEF_STEREO_COUNT>
0

> <PUBCHEM_BOND_UDEF_STEREO_COUNT>
0

> <PUBCHEM_ISOTOPIC_ATOM_COUNT>
0

> <PUBCHEM_COMPONENT_COUNT>
1

> <PUBCHEM_CACTVS_TAUTO_COUNT>
1

> <PUBCHEM_CONFORMER_ID>
000226E200000001

> <PUBCHEM_MMFF94_ENERGY>
7.5503

> <PUBCHEM_FEATURE_SELFOVERLAP>
15.223

> <PUBCHEM_SHAPE_FINGERPRINT>
10219947 1 18341334413941166965
11062470 55 18335140886564460281
12932764 1 18130208402883446685
14123238 8 17530685424658264153
14252887 29 16805327660627543449
14325111 11 18060137622140901631
14993402 34 17846782931110241896
15342168 16 17678183913266628076
15775835 57 18272088313889975896
170605 34 18411984663329111174
17834072 33 18338514244125773439
20279233 1 16732707134048074545
20645477 70 18188765042342059235
20711985 327 14707212110394857879
21119208 17 10807934864513189353
22485316 2 18113898252314347219
23048698 100 18411420583546031809
23402539 116 18187357736752404733
23557571 272 15285631045673506526
449060 50 18113057155366697605
449060 62 18412266138073934208
4990 188 14836409133237104013
522135 26 11312056551896546384
581208 293 17385445405653145083
81539 233 18201158767327214415

> <PUBCHEM_SHAPE_MULTIPOLES>
214.64
8.6
1.28
0.88
7.01
0.19
-0.1
-2.34
1.25
-1.39
0.1
-0.04
0.18
-0.46

> <PUBCHEM_SHAPE_SELFOVERLAP>
392.356

> <PUBCHEM_SHAPE_VOLUME>
137.3

> <PUBCHEM_COORDINATE_TYPE>
2
5
10

$$$$
