24233
  -OEChem-11012400333D

 14 13  0     1  0  0  0  0  0999 V2000
   -1.1326    1.2995   -0.9191 Cl  0  0  0  0  0  0  0  0  0  0  0  0
    1.1330   -1.2997   -0.9189 Cl  0  0  0  0  0  0  0  0  0  0  0  0
   -0.7387    0.2204    0.4565 C   0  0  2  0  0  0  0  0  0  0  0  0
    0.7386   -0.2203    0.4567 C   0  0  2  0  0  0  0  0  0  0  0  0
   -1.7143   -0.9537    0.4624 C   0  0  0  0  0  0  0  0  0  0  0  0
    1.7140    0.9538    0.4625 C   0  0  0  0  0  0  0  0  0  0  0  0
   -0.9189    0.8174    1.3578 H   0  0  0  0  0  0  0  0  0  0  0  0
    0.9187   -0.8173    1.3580 H   0  0  0  0  0  0  0  0  0  0  0  0
   -1.4902   -1.6383    1.2873 H   0  0  0  0  0  0  0  0  0  0  0  0
   -1.6884   -1.5249   -0.4712 H   0  0  0  0  0  0  0  0  0  0  0  0
   -2.7419   -0.5990    0.6009 H   0  0  0  0  0  0  0  0  0  0  0  0
    1.6883    1.5247   -0.4712 H   0  0  0  0  0  0  0  0  0  0  0  0
    1.4896    1.6385    1.2872 H   0  0  0  0  0  0  0  0  0  0  0  0
    2.7416    0.5992    0.6014 H   0  0  0  0  0  0  0  0  0  0  0  0
  1  3  1  0  0  0  0
  2  4  1  0  0  0  0
  3  4  1  0  0  0  0
  3  5  1  0  0  0  0
  3  7  1  0  0  0  0
  4  6  1  0  0  0  0
  4  8  1  0  0  0  0
  5  9  1  0  0  0  0
  5 10  1  0  0  0  0
  5 11  1  0  0  0  0
  6 12  1  0  0  0  0
  6 13  1  0  0  0  0
  6 14  1  0  0  0  0
M  END
> <PUBCHEM_COMPOUND_CID>
24233

> <PUBCHEM_CONFORMER_RMSD>
0.4

> <PUBCHEM_CONFORMER_DIVERSEORDER>
1
4
8
7
3
5
2
6

> <PUBCHEM_MMFF94_PARTIAL_CHARGES>
4
1 -0.29
2 -0.29
3 0.29
4 0.29

> <PUBCHEM_EFFECTIVE_ROTOR_COUNT>
1

> <PUBCHEM_PHARMACOPHORE_FEATURES>
0

> <PUBCHEM_HEAVY_ATOM_COUNT>
6

> <PUBCHEM_ATOM_DEF_STEREO_COUNT>
0

> <PUBCHEM_ATOM_UDEF_STEREO_COUNT>
2

> <PUBCHEM_BOND_DEF_STEREO_COUNT>
0

> <PUBCHEM_BOND_UDEF_STEREO_COUNT>
0

> <PUBCHEM_ISOTOPIC_ATOM_COUNT>
0

> <PUBCHEM_COMPONENT_COUNT>
1

> <PUBCHEM_CACTVS_TAUTO_COUNT>
1

> <PUBCHEM_CONFORMER_ID>
00005EA900000001

> <PUBCHEM_MMFF94_ENERGY>
5.0795

> <PUBCHEM_FEATURE_SELFOVERLAP>
0

> <PUBCHEM_SHAPE_FINGERPRINT>
137420 1 14466633537630954050
16714656 1 18051696847589612520
20096714 4 17753312189334271385
20711978 78 17632305535854903999
21040471 1 17534616015213032957
24536 1 18130499721840667576
29004967 10 17845100562614122962
5943 1 16104823279079915541

> <PUBCHEM_SHAPE_MULTIPOLES>
127.22
2.21
1.53
1.06
0
0
-0.21
0
0.04
0
-0.3
0
0
0.72

> <PUBCHEM_SHAPE_SELFOVERLAP>
206.202

> <PUBCHEM_SHAPE_VOLUME>
90.6

> <PUBCHEM_COORDINATE_TYPE>
2
5
10

$$$$
