12340418
  -OEChem-11012400333D

 10 10  0     0  0  0  0  0  0999 V2000
    1.2943    1.0037    0.0001 N   0  0  0  0  0  0  0  0  0  0  0  0
    0.4073   -0.9935    0.0001 N   0  0  0  0  0  0  0  0  0  0  0  0
    2.3632    0.1929    0.0001 N   0  0  0  0  0  0  0  0  0  0  0  0
   -1.0483    0.9385   -0.0001 N   0  0  0  0  0  0  0  0  0  0  0  0
   -2.0210    0.1476    0.0000 N   0  3  0  0  0  0  0  0  0  0  0  0
   -2.9041   -0.5759    0.0001 N   0  5  0  0  0  0  0  0  0  0  0  0
    0.1358    0.2909   -0.0001 C   0  0  0  0  0  0  0  0  0  0  0  0
    1.7728   -1.0042   -0.0002 C   0  0  0  0  0  0  0  0  0  0  0  0
    1.4315    2.0074    0.0002 H   0  0  0  0  0  0  0  0  0  0  0  0
    2.3559   -1.9129   -0.0004 H   0  0  0  0  0  0  0  0  0  0  0  0
  1  3  1  0  0  0  0
  1  7  1  0  0  0  0
  1  9  1  0  0  0  0
  2  7  2  0  0  0  0
  2  8  1  0  0  0  0
  3  8  2  0  0  0  0
  4  5  2  0  0  0  0
  4  7  1  0  0  0  0
  5  6  2  0  0  0  0
  8 10  1  0  0  0  0
M  CHG  2   5   1   6  -1
M  END
> <PUBCHEM_COMPOUND_CID>
12340418

> <PUBCHEM_CONFORMER_RMSD>
0.4

> <PUBCHEM_CONFORMER_DIVERSEORDER>
1
4
3
2

> <PUBCHEM_MMFF94_PARTIAL_CHARGES>
10
1 0.3
10 0.15
2 -0.57
3 -0.71
4 -0.44
5 0.69
6 -0.37
7 0.31
8 0.37
9 0.27

> <PUBCHEM_EFFECTIVE_ROTOR_COUNT>
1

> <PUBCHEM_PHARMACOPHORE_FEATURES>
3
1 1 donor
4 1 2 4 7 cation
5 1 2 3 7 8 rings

> <PUBCHEM_HEAVY_ATOM_COUNT>
8

> <PUBCHEM_ATOM_DEF_STEREO_COUNT>
0

> <PUBCHEM_ATOM_UDEF_STEREO_COUNT>
0

> <PUBCHEM_BOND_DEF_STEREO_COUNT>
0

> <PUBCHEM_BOND_UDEF_STEREO_COUNT>
1

> <PUBCHEM_ISOTOPIC_ATOM_COUNT>
0

> <PUBCHEM_COMPONENT_COUNT>
1

> <PUBCHEM_CACTVS_TAUTO_COUNT>
4

> <PUBCHEM_CONFORMER_ID>
00BC4CC200000001

> <PUBCHEM_MMFF94_ENERGY>
3.606

> <PUBCHEM_FEATURE_SELFOVERLAP>
15.223

> <PUBCHEM_SHAPE_FINGERPRINT>
12897270 3 18407758131804602989
21040471 1 18338517551102833248
23552423 10 18117004281930638790
29004967 10 18410294692044533256
5460574 1 9295289443170750785

> <PUBCHEM_SHAPE_MULTIPOLES>
134.75
3.46
1.09
0.54
1.78
0.04
0
0.54
0
-0.22
0
-0.03
0.01
0

> <PUBCHEM_SHAPE_SELFOVERLAP>
279.412

> <PUBCHEM_SHAPE_VOLUME>
75.5

> <PUBCHEM_COORDINATE_TYPE>
2
5
10

$$$$
