144960
  -OEChem-11012400533D

 30 31  0     0  0  0  0  0  0999 V2000
    2.1325    0.7264   -0.0003 C   0  0  0  0  0  0  0  0  0  0  0  0
    1.0173   -0.2730    0.0003 C   0  0  0  0  0  0  0  0  0  0  0  0
   -0.3466    0.0619    0.0002 C   0  0  0  0  0  0  0  0  0  0  0  0
   -1.3129   -0.9721    0.0001 C   0  0  0  0  0  0  0  0  0  0  0  0
   -0.7728    1.4001    0.0000 C   0  0  0  0  0  0  0  0  0  0  0  0
    1.4228   -1.6081    0.0006 C   0  0  0  0  0  0  0  0  0  0  0  0
    3.0077    0.6223   -1.2609 C   0  0  0  0  0  0  0  0  0  0  0  0
    3.0082    0.6235    1.2601 C   0  0  0  0  0  0  0  0  0  0  0  0
   -0.8869   -2.3104   -0.0001 C   0  0  0  0  0  0  0  0  0  0  0  0
    0.4724   -2.6249    0.0002 C   0  0  0  0  0  0  0  0  0  0  0  0
   -2.6768   -0.6374   -0.0003 C   0  0  0  0  0  0  0  0  0  0  0  0
   -2.1320    1.7143    0.0000 C   0  0  0  0  0  0  0  0  0  0  0  0
    0.1495    2.5798    0.0002 C   0  0  0  0  0  0  0  0  0  0  0  0
   -3.0824    0.6975   -0.0001 C   0  0  0  0  0  0  0  0  0  0  0  0
    1.9636    1.7712   -0.0011 H   0  0  0  0  0  0  0  0  0  0  0  0
    2.4709   -1.8935    0.0008 H   0  0  0  0  0  0  0  0  0  0  0  0
    3.5282   -0.3384   -1.3325 H   0  0  0  0  0  0  0  0  0  0  0  0
    3.7768    1.4038   -1.2665 H   0  0  0  0  0  0  0  0  0  0  0  0
    2.4020    0.7467   -2.1658 H   0  0  0  0  0  0  0  0  0  0  0  0
    2.4029    0.7488    2.1650 H   0  0  0  0  0  0  0  0  0  0  0  0
    3.7774    1.4049    1.2647 H   0  0  0  0  0  0  0  0  0  0  0  0
    3.5286   -0.3372    1.3325 H   0  0  0  0  0  0  0  0  0  0  0  0
   -1.6122   -3.1214   -0.0003 H   0  0  0  0  0  0  0  0  0  0  0  0
    0.7881   -3.6641    0.0002 H   0  0  0  0  0  0  0  0  0  0  0  0
   -3.4370   -1.4159   -0.0004 H   0  0  0  0  0  0  0  0  0  0  0  0
   -2.4794    2.7443   -0.0001 H   0  0  0  0  0  0  0  0  0  0  0  0
    0.6969    2.6785    0.9441 H   0  0  0  0  0  0  0  0  0  0  0  0
    0.6962    2.6793   -0.9441 H   0  0  0  0  0  0  0  0  0  0  0  0
   -0.4461    3.5062    0.0008 H   0  0  0  0  0  0  0  0  0  0  0  0
   -4.1405    0.9423   -0.0002 H   0  0  0  0  0  0  0  0  0  0  0  0
  1  2  1  0  0  0  0
  1  7  1  0  0  0  0
  1  8  1  0  0  0  0
  1 15  1  0  0  0  0
  2  3  1  0  0  0  0
  2  6  2  0  0  0  0
  3  4  1  0  0  0  0
  3  5  2  0  0  0  0
  4  9  1  0  0  0  0
  4 11  2  0  0  0  0
  5 12  1  0  0  0  0
  5 13  1  0  0  0  0
  6 10  1  0  0  0  0
  6 16  1  0  0  0  0
  7 17  1  0  0  0  0
  7 18  1  0  0  0  0
  7 19  1  0  0  0  0
  8 20  1  0  0  0  0
  8 21  1  0  0  0  0
  8 22  1  0  0  0  0
  9 10  2  0  0  0  0
  9 23  1  0  0  0  0
 10 24  1  0  0  0  0
 11 14  1  0  0  0  0
 11 25  1  0  0  0  0
 12 14  2  0  0  0  0
 12 26  1  0  0  0  0
 13 27  1  0  0  0  0
 13 28  1  0  0  0  0
 13 29  1  0  0  0  0
 14 30  1  0  0  0  0
M  END
> <PUBCHEM_COMPOUND_CID>
144960

> <PUBCHEM_CONFORMER_RMSD>
0.4

> <PUBCHEM_CONFORMER_DIVERSEORDER>
1

> <PUBCHEM_MMFF94_PARTIAL_CHARGES>
16
1 0.14
10 -0.15
11 -0.15
12 -0.15
13 0.14
14 -0.15
16 0.15
2 -0.14
23 0.15
24 0.15
25 0.15
26 0.15
30 0.15
5 -0.14
6 -0.15
9 -0.15

> <PUBCHEM_EFFECTIVE_ROTOR_COUNT>
1

> <PUBCHEM_PHARMACOPHORE_FEATURES>
3
3 1 7 8 hydrophobe
6 2 3 4 6 9 10 rings
6 3 4 5 11 12 14 rings

> <PUBCHEM_HEAVY_ATOM_COUNT>
14

> <PUBCHEM_ATOM_DEF_STEREO_COUNT>
0

> <PUBCHEM_ATOM_UDEF_STEREO_COUNT>
0

> <PUBCHEM_BOND_DEF_STEREO_COUNT>
0

> <PUBCHEM_BOND_UDEF_STEREO_COUNT>
0

> <PUBCHEM_ISOTOPIC_ATOM_COUNT>
0

> <PUBCHEM_COMPONENT_COUNT>
1

> <PUBCHEM_CACTVS_TAUTO_COUNT>
1

> <PUBCHEM_CONFORMER_ID>
0002364000000001

> <PUBCHEM_MMFF94_ENERGY>
68.8845

> <PUBCHEM_FEATURE_SELFOVERLAP>
15.249

> <PUBCHEM_SHAPE_FINGERPRINT>
10967382 1 18410575037676979463
11132069 177 18411131454784833057
11206711 2 18337950220298718215
12382932 28 18410567388145053345
12423570 1 11609936139067133394
12524768 44 18193558865820363363
13140716 1 17978228588807566083
13172582 1 18337105769271715057
13380535 21 18267601129791147491
13380535 76 18410004416722355827
13538477 17 18042118933217657682
14614273 12 18261383412932023613
14790565 3 18193863598209512537
16945 1 18338799034527151143
17804303 29 18340197485054421034
193761 8 17834113039653796005
20510252 161 18271811275551523168
20511035 2 17765419951212609101
20645476 183 17749962183752597038
21501502 16 18195248802233513153
22802520 49 18129402486957216598
2334 1 18410575046282777295
23402539 116 18199167637605133390
23419403 2 15313405723319790975
23463225 33 18261949661525582722
23493267 7 17749686128823978576
23552423 10 18119533128736190663
23559900 14 18271537468283523436
241688 4 16536795838425386427
2748010 2 18338520725015249263
2897 32 17905612098927584342
5255222 1 17834117437631774380
528886 8 18410572898582760665
53812653 166 18343578551348768489
53812653 8 18262526990987306500
589210 1 17834109745403440913
7364860 26 18055629508503312238
77492 1 17604424219272468804
81228 2 18052536869914846994

> <PUBCHEM_SHAPE_MULTIPOLES>
288.11
4.22
2.73
0.84
0.47
0.69
0
-1.27
0
-0.35
0
0.68
-0.14
0

> <PUBCHEM_SHAPE_SELFOVERLAP>
621.756

> <PUBCHEM_SHAPE_VOLUME>
152.2

> <PUBCHEM_COORDINATE_TYPE>
2
5
10

$$$$
