238532
  -OEChem-11012401123D

 36 37  0     0  0  0  0  0  0999 V2000
   -1.6542   -1.2532    1.7136 O   0  0  0  0  0  0  0  0  0  0  0  0
    1.6580   -1.2549   -1.7136 O   0  0  0  0  0  0  0  0  0  0  0  0
   -0.6258   -1.8534   -0.2783 N   0  0  0  0  0  0  0  0  0  0  0  0
    0.6282   -1.8540    0.2783 N   0  0  0  0  0  0  0  0  0  0  0  0
   -3.0195   -1.5570   -0.2399 C   0  0  0  0  0  0  0  0  0  0  0  0
    3.0220   -1.5573    0.2405 C   0  0  0  0  0  0  0  0  0  0  0  0
   -3.6857   -0.2069   -0.2207 C   0  0  0  0  0  0  0  0  0  0  0  0
    3.6859   -0.2063    0.2209 C   0  0  0  0  0  0  0  0  0  0  0  0
   -1.7092   -1.5399    0.5187 C   0  0  0  0  0  0  0  0  0  0  0  0
    1.7121   -1.5417   -0.5187 C   0  0  0  0  0  0  0  0  0  0  0  0
   -4.5708    0.1039    0.8023 C   0  0  0  0  0  0  0  0  0  0  0  0
    4.5708    0.1055   -0.8019 C   0  0  0  0  0  0  0  0  0  0  0  0
   -3.4052    0.7081   -1.2259 C   0  0  0  0  0  0  0  0  0  0  0  0
    3.4035    0.7088    1.2257 C   0  0  0  0  0  0  0  0  0  0  0  0
   -5.1879    1.3545    0.8203 C   0  0  0  0  0  0  0  0  0  0  0  0
    5.1858    1.3573   -0.8203 C   0  0  0  0  0  0  0  0  0  0  0  0
   -4.0223    1.9590   -1.2077 C   0  0  0  0  0  0  0  0  0  0  0  0
    4.0185    1.9606    1.2071 C   0  0  0  0  0  0  0  0  0  0  0  0
   -4.9137    2.2822   -0.1845 C   0  0  0  0  0  0  0  0  0  0  0  0
    4.9097    2.2848    0.1841 C   0  0  0  0  0  0  0  0  0  0  0  0
   -3.6663   -2.3121    0.2241 H   0  0  0  0  0  0  0  0  0  0  0  0
   -2.8748   -1.8862   -1.2759 H   0  0  0  0  0  0  0  0  0  0  0  0
    3.6699   -2.3116   -0.2231 H   0  0  0  0  0  0  0  0  0  0  0  0
    2.8771   -1.8865    1.2765 H   0  0  0  0  0  0  0  0  0  0  0  0
   -4.7902   -0.6107    1.5906 H   0  0  0  0  0  0  0  0  0  0  0  0
    4.7917   -0.6090   -1.5900 H   0  0  0  0  0  0  0  0  0  0  0  0
   -2.7109    0.4666   -2.0258 H   0  0  0  0  0  0  0  0  0  0  0  0
    2.7094    0.4664    2.0254 H   0  0  0  0  0  0  0  0  0  0  0  0
   -0.6962   -2.0967   -1.2610 H   0  0  0  0  0  0  0  0  0  0  0  0
    0.6982   -2.0969    1.2612 H   0  0  0  0  0  0  0  0  0  0  0  0
   -5.8816    1.6064    1.6171 H   0  0  0  0  0  0  0  0  0  0  0  0
    5.8793    1.6101   -1.6170 H   0  0  0  0  0  0  0  0  0  0  0  0
   -3.8083    2.6816   -1.9898 H   0  0  0  0  0  0  0  0  0  0  0  0
    3.8031    2.6833    1.9888 H   0  0  0  0  0  0  0  0  0  0  0  0
   -5.3939    3.2562   -0.1703 H   0  0  0  0  0  0  0  0  0  0  0  0
    5.3883    3.2596    0.1696 H   0  0  0  0  0  0  0  0  0  0  0  0
  1  9  2  0  0  0  0
  2 10  2  0  0  0  0
  3  4  1  0  0  0  0
  3  9  1  0  0  0  0
  3 29  1  0  0  0  0
  4 10  1  0  0  0  0
  4 30  1  0  0  0  0
  5  7  1  0  0  0  0
  5  9  1  0  0  0  0
  5 21  1  0  0  0  0
  5 22  1  0  0  0  0
  6  8  1  0  0  0  0
  6 10  1  0  0  0  0
  6 23  1  0  0  0  0
  6 24  1  0  0  0  0
  7 11  2  0  0  0  0
  7 13  1  0  0  0  0
  8 12  2  0  0  0  0
  8 14  1  0  0  0  0
 11 15  1  0  0  0  0
 11 25  1  0  0  0  0
 12 16  1  0  0  0  0
 12 26  1  0  0  0  0
 13 17  2  0  0  0  0
 13 27  1  0  0  0  0
 14 18  2  0  0  0  0
 14 28  1  0  0  0  0
 15 19  2  0  0  0  0
 15 31  1  0  0  0  0
 16 20  2  0  0  0  0
 16 32  1  0  0  0  0
 17 19  1  0  0  0  0
 17 33  1  0  0  0  0
 18 20  1  0  0  0  0
 18 34  1  0  0  0  0
 19 35  1  0  0  0  0
 20 36  1  0  0  0  0
M  END
> <PUBCHEM_COMPOUND_CID>
238532

> <PUBCHEM_CONFORMER_RMSD>
0.8

> <PUBCHEM_CONFORMER_DIVERSEORDER>
1
4
14
23
19
24
18
6
22
13
20
3
11
21
17
12
16
15
2
9
5
8
10
7

> <PUBCHEM_MMFF94_PARTIAL_CHARGES>
32
1 -0.57
10 0.57
11 -0.15
12 -0.15
13 -0.15
14 -0.15
15 -0.15
16 -0.15
17 -0.15
18 -0.15
19 -0.15
2 -0.57
20 -0.15
25 0.15
26 0.15
27 0.15
28 0.15
29 0.37
3 -0.43
30 0.37
31 0.15
32 0.15
33 0.15
34 0.15
35 0.15
36 0.15
4 -0.43
5 0.2
6 0.2
7 -0.14
8 -0.14
9 0.57

> <PUBCHEM_EFFECTIVE_ROTOR_COUNT>
7

> <PUBCHEM_PHARMACOPHORE_FEATURES>
6
1 1 acceptor
1 2 acceptor
1 3 donor
1 4 donor
6 7 11 13 15 17 19 rings
6 8 12 14 16 18 20 rings

> <PUBCHEM_HEAVY_ATOM_COUNT>
20

> <PUBCHEM_ATOM_DEF_STEREO_COUNT>
0

> <PUBCHEM_ATOM_UDEF_STEREO_COUNT>
0

> <PUBCHEM_BOND_DEF_STEREO_COUNT>
0

> <PUBCHEM_BOND_UDEF_STEREO_COUNT>
0

> <PUBCHEM_ISOTOPIC_ATOM_COUNT>
0

> <PUBCHEM_COMPONENT_COUNT>
1

> <PUBCHEM_CACTVS_TAUTO_COUNT>
3

> <PUBCHEM_CONFORMER_ID>
0003A3C400000001

> <PUBCHEM_MMFF94_ENERGY>
45.7428

> <PUBCHEM_FEATURE_SELFOVERLAP>
31.992

> <PUBCHEM_SHAPE_FINGERPRINT>
10498660 4 18130227159422230216
11595378 159 16660354853482327692
11796584 16 9799153815443767966
12596602 18 15719397251870052008
12633257 1 16805877511247242396
12769317 202 18272928306651287386
13103583 49 13046222715417125343
13402501 40 18410572885645767213
13878862 14 18118380896094654629
14123255 352 18334290955380727461
1420 369 7997974578562714594
14216079 64 9511168661025178621
14251740 57 12396291531315911416
14251764 38 18267303127527600585
14341114 328 16733262465040930708
14347329 18 18336265743032055776
14848178 96 18412539894888821520
1768 210 17914311701289087925
17834072 32 18412262865334975044
17868525 174 18045487622276517306
17870717 6 12751232589539490065
17959699 21 18271807891285806547
20645477 56 18411707577936110267
21033648 29 18411418457827331682
21315759 227 9222965750566605496
21315763 87 12252190709394145756
21315764 119 13829867768031626441
21388113 180 17771044279944711776
21401589 2 18259988175989695057
22289505 5 18059862762120695644
22849339 104 14764045897243520333
23503958 8 8142089783876988527
23559900 14 18058446509013175634
2838139 119 18342449374772164856
2916195 48 18334577928121246745
316301 35 9439412311318447956
341906 21 18113335336224805190
3472631 163 18270678663301477613
4259306 186 10087635996642561123
44062 13 10519722089090230715
5104073 3 18114179718094884739
574716 61 15840977992131817409
7062679 13 9727635003151109820
7808743 9 18262520419877182590

> <PUBCHEM_SHAPE_MULTIPOLES>
389.89
14.07
2.7
1.32
0.03
0.46
0
10.41
0
-0.01
0
0
0.14
1.06

> <PUBCHEM_SHAPE_SELFOVERLAP>
822.717

> <PUBCHEM_SHAPE_VOLUME>
217.1

> <PUBCHEM_COORDINATE_TYPE>
2
5
10

$$$$
