734009
  -OEChem-11012401213D

 27 27  0     0  0  0  0  0  0999 V2000
    0.1662    2.3710   -0.3252 O   0  0  0  0  0  0  0  0  0  0  0  0
    4.0655   -0.3308    0.0852 O   0  0  0  0  0  0  0  0  0  0  0  0
   -4.4950   -1.5998    0.6664 O   0  0  0  0  0  0  0  0  0  0  0  0
   -4.3735    0.2917   -0.6033 O   0  0  0  0  0  0  0  0  0  0  0  0
   -0.0612   -0.0198   -0.2367 C   0  0  0  0  0  0  0  0  0  0  0  0
    0.7263    1.1314   -0.2287 C   0  0  0  0  0  0  0  0  0  0  0  0
    2.7124   -0.2286   -0.0206 C   0  0  0  0  0  0  0  0  0  0  0  0
    2.1131    1.0269   -0.1205 C   0  0  0  0  0  0  0  0  0  0  0  0
    0.5379   -1.2754   -0.1365 C   0  0  0  0  0  0  0  0  0  0  0  0
    1.9248   -1.3799   -0.0286 C   0  0  0  0  0  0  0  0  0  0  0  0
   -1.5114    0.0624   -0.3485 C   0  0  0  0  0  0  0  0  0  0  0  0
   -2.3856   -0.8097    0.1980 C   0  0  0  0  0  0  0  0  0  0  0  0
   -0.1937    3.0147    0.8949 C   0  0  0  0  0  0  0  0  0  0  0  0
    4.6117   -1.6450    0.1843 C   0  0  0  0  0  0  0  0  0  0  0  0
   -3.8376   -0.6091    0.0198 C   0  0  0  0  0  0  0  0  0  0  0  0
    2.7285    1.9232   -0.1149 H   0  0  0  0  0  0  0  0  0  0  0  0
   -0.0412   -2.1951   -0.1578 H   0  0  0  0  0  0  0  0  0  0  0  0
    2.3251   -2.3857    0.0415 H   0  0  0  0  0  0  0  0  0  0  0  0
   -1.8910    0.9089   -0.9165 H   0  0  0  0  0  0  0  0  0  0  0  0
   -2.0657   -1.6586    0.7926 H   0  0  0  0  0  0  0  0  0  0  0  0
    0.6960    3.2013    1.5048 H   0  0  0  0  0  0  0  0  0  0  0  0
   -0.9137    2.4127    1.4579 H   0  0  0  0  0  0  0  0  0  0  0  0
   -0.6570    3.9747    0.6515 H   0  0  0  0  0  0  0  0  0  0  0  0
    5.6987   -1.5383    0.2620 H   0  0  0  0  0  0  0  0  0  0  0  0
    4.4121   -2.2329   -0.7181 H   0  0  0  0  0  0  0  0  0  0  0  0
    4.2747   -2.1535    1.0940 H   0  0  0  0  0  0  0  0  0  0  0  0
   -5.4683   -1.5133    0.5785 H   0  0  0  0  0  0  0  0  0  0  0  0
  1  6  1  0  0  0  0
  1 13  1  0  0  0  0
  2  7  1  0  0  0  0
  2 14  1  0  0  0  0
  3 15  1  0  0  0  0
  3 27  1  0  0  0  0
  4 15  2  0  0  0  0
  5  6  2  0  0  0  0
  5  9  1  0  0  0  0
  5 11  1  0  0  0  0
  6  8  1  0  0  0  0
  7  8  2  0  0  0  0
  7 10  1  0  0  0  0
  8 16  1  0  0  0  0
  9 10  2  0  0  0  0
  9 17  1  0  0  0  0
 10 18  1  0  0  0  0
 11 12  2  0  0  0  0
 11 19  1  0  0  0  0
 12 15  1  0  0  0  0
 12 20  1  0  0  0  0
 13 21  1  0  0  0  0
 13 22  1  0  0  0  0
 13 23  1  0  0  0  0
 14 24  1  0  0  0  0
 14 25  1  0  0  0  0
 14 26  1  0  0  0  0
M  END
> <PUBCHEM_COMPOUND_CID>
734009

> <PUBCHEM_CONFORMER_RMSD>
0.6

> <PUBCHEM_CONFORMER_DIVERSEORDER>
1
10
7
3
8
4
9
5
2
6

> <PUBCHEM_MMFF94_PARTIAL_CHARGES>
21
1 -0.36
10 -0.15
11 -0.18
12 -0.14
13 0.28
14 0.28
15 0.71
16 0.15
17 0.15
18 0.15
19 0.15
2 -0.36
20 0.15
27 0.5
3 -0.65
4 -0.57
5 0.03
6 0.08
7 0.08
8 -0.15
9 -0.15

> <PUBCHEM_EFFECTIVE_ROTOR_COUNT>
4

> <PUBCHEM_PHARMACOPHORE_FEATURES>
6
1 1 acceptor
1 2 acceptor
1 3 acceptor
1 4 acceptor
3 3 4 15 anion
6 5 6 7 8 9 10 rings

> <PUBCHEM_HEAVY_ATOM_COUNT>
15

> <PUBCHEM_ATOM_DEF_STEREO_COUNT>
0

> <PUBCHEM_ATOM_UDEF_STEREO_COUNT>
0

> <PUBCHEM_BOND_DEF_STEREO_COUNT>
1

> <PUBCHEM_BOND_UDEF_STEREO_COUNT>
0

> <PUBCHEM_ISOTOPIC_ATOM_COUNT>
0

> <PUBCHEM_COMPONENT_COUNT>
1

> <PUBCHEM_CACTVS_TAUTO_COUNT>
1

> <PUBCHEM_CONFORMER_ID>
000B333900000001

> <PUBCHEM_MMFF94_ENERGY>
59.3504

> <PUBCHEM_FEATURE_SELFOVERLAP>
30.504

> <PUBCHEM_SHAPE_FINGERPRINT>
10130415 120 18407758153094836097
10219947 1 18343303686221153183
10465860 250 18335415755480640499
108231 29 18408885161198238730
11471102 20 18409443717283974245
11543360 7 15575007190445996142
12032990 46 18409168800917763078
124424 183 18334572443479716807
13134695 92 18272362118298299797
13862211 1 18410568475073108918
14252887 29 18202572765145432734
15501101 241 18188491392858656469
15848700 24 18411973667885766580
16945 1 18271516525447721478
19010151 120 18342182154433038376
200 152 18411134718986390599
20339313 130 18343309196838124221
20510252 161 18271520889187300416
20645477 70 18408602582293983983
20871998 22 18271816661656712158
21041028 32 18342461443403757681
21267235 1 18410301297773208919
21296965 67 18411416202727083168
21524375 3 17050207884079182309
221490 88 18118691160522532139
23402539 116 18201146685447067023
23557571 272 18198909110765227452
2748010 2 18339341020893361708
3250762 1 17338731361409411638
3286 77 18263362650216358503
3312278 4 18263641775286710885
5104073 3 18410014368567419099
537710 114 18336271240479223500
58734987 33 18272932760247809712
68521 5 18338518530208086620
7364860 26 18197497543925293969
7471813 234 17774708862300680357
81228 2 18121797040088794224
8809292 202 18113622317450173443

> <PUBCHEM_SHAPE_MULTIPOLES>
285.22
7.82
2.37
0.72
2.77
2.05
-0.04
-5.22
-0.53
-0.22
-0.53
0.19
0.12
0.13

> <PUBCHEM_SHAPE_SELFOVERLAP>
590.131

> <PUBCHEM_SHAPE_VOLUME>
163.8

> <PUBCHEM_COORDINATE_TYPE>
2
5
10

$$$$
