75802
  -OEChem-11012401213D

 26 26  0     0  0  0  0  0  0999 V2000
    2.5516    0.2437   -0.0377 O   0  0  0  0  0  0  0  0  0  0  0  0
    1.1232   -1.4926    0.2929 O   0  0  0  0  0  0  0  0  0  0  0  0
    0.2767    0.6590   -0.1572 N   0  0  0  0  0  0  0  0  0  0  0  0
   -1.1131    0.2632   -0.0704 C   0  0  0  0  0  0  0  0  0  0  0  0
   -1.4410   -1.0205   -0.4170 C   0  0  0  0  0  0  0  0  0  0  0  0
   -2.0238    1.1938    0.3541 C   0  0  0  0  0  0  0  0  0  0  0  0
    0.6204    2.0578   -0.4520 C   0  0  0  0  0  0  0  0  0  0  0  0
    1.2936   -0.3019    0.0422 C   0  0  0  0  0  0  0  0  0  0  0  0
   -2.7799   -1.4022   -0.3332 C   0  0  0  0  0  0  0  0  0  0  0  0
   -3.3628    0.8119    0.4380 C   0  0  0  0  0  0  0  0  0  0  0  0
    3.6500   -0.6488    0.1865 C   0  0  0  0  0  0  0  0  0  0  0  0
   -3.7408   -0.4861    0.0944 C   0  0  0  0  0  0  0  0  0  0  0  0
    4.9461    0.1227    0.0592 C   0  0  0  0  0  0  0  0  0  0  0  0
   -0.7555   -1.7456   -0.8370 H   0  0  0  0  0  0  0  0  0  0  0  0
   -1.7539    2.2036    0.6436 H   0  0  0  0  0  0  0  0  0  0  0  0
    0.6562    2.6135    0.4896 H   0  0  0  0  0  0  0  0  0  0  0  0
   -0.1215    2.4962   -1.1267 H   0  0  0  0  0  0  0  0  0  0  0  0
    1.5949    2.1339   -0.9418 H   0  0  0  0  0  0  0  0  0  0  0  0
   -3.0782   -2.4066   -0.6194 H   0  0  0  0  0  0  0  0  0  0  0  0
   -4.1110    1.5242    0.7738 H   0  0  0  0  0  0  0  0  0  0  0  0
    3.5719   -1.0776    1.1917 H   0  0  0  0  0  0  0  0  0  0  0  0
    3.6235   -1.4531   -0.5570 H   0  0  0  0  0  0  0  0  0  0  0  0
   -4.7839   -0.7822    0.1562 H   0  0  0  0  0  0  0  0  0  0  0  0
    5.8078   -0.5299    0.2248 H   0  0  0  0  0  0  0  0  0  0  0  0
    5.0298    0.5739   -0.9350 H   0  0  0  0  0  0  0  0  0  0  0  0
    4.9790    0.9429    0.7840 H   0  0  0  0  0  0  0  0  0  0  0  0
  1  8  1  0  0  0  0
  1 11  1  0  0  0  0
  2  8  2  0  0  0  0
  3  4  1  0  0  0  0
  3  7  1  0  0  0  0
  3  8  1  0  0  0  0
  4  5  2  0  0  0  0
  4  6  1  0  0  0  0
  5  9  1  0  0  0  0
  5 14  1  0  0  0  0
  6 10  2  0  0  0  0
  6 15  1  0  0  0  0
  7 16  1  0  0  0  0
  7 17  1  0  0  0  0
  7 18  1  0  0  0  0
  9 12  2  0  0  0  0
  9 19  1  0  0  0  0
 10 12  1  0  0  0  0
 10 20  1  0  0  0  0
 11 13  1  0  0  0  0
 11 21  1  0  0  0  0
 11 22  1  0  0  0  0
 12 23  1  0  0  0  0
 13 24  1  0  0  0  0
 13 25  1  0  0  0  0
 13 26  1  0  0  0  0
M  END
> <PUBCHEM_COMPOUND_CID>
75802

> <PUBCHEM_CONFORMER_RMSD>
0.6

> <PUBCHEM_CONFORMER_DIVERSEORDER>
1
19
16
14
22
20
23
18
21
24
10
5
11
15
13
4
17
2
6
3
12
9
7
8

> <PUBCHEM_MMFF94_PARTIAL_CHARGES>
17
1 -0.43
10 -0.15
11 0.28
12 -0.15
14 0.15
15 0.15
19 0.15
2 -0.57
20 0.15
23 0.15
3 -0.48
4 0.12
5 -0.15
6 -0.15
7 0.3
8 0.78
9 -0.15

> <PUBCHEM_EFFECTIVE_ROTOR_COUNT>
4

> <PUBCHEM_PHARMACOPHORE_FEATURES>
2
1 2 acceptor
6 4 5 6 9 10 12 rings

> <PUBCHEM_HEAVY_ATOM_COUNT>
13

> <PUBCHEM_ATOM_DEF_STEREO_COUNT>
0

> <PUBCHEM_ATOM_UDEF_STEREO_COUNT>
0

> <PUBCHEM_BOND_DEF_STEREO_COUNT>
0

> <PUBCHEM_BOND_UDEF_STEREO_COUNT>
0

> <PUBCHEM_ISOTOPIC_ATOM_COUNT>
0

> <PUBCHEM_COMPONENT_COUNT>
1

> <PUBCHEM_CACTVS_TAUTO_COUNT>
1

> <PUBCHEM_CONFORMER_ID>
0001281A00000001

> <PUBCHEM_MMFF94_ENERGY>
43.248

> <PUBCHEM_FEATURE_SELFOVERLAP>
10.148

> <PUBCHEM_SHAPE_FINGERPRINT>
11132069 177 18411413999545854544
11401426 45 18334289868511382284
11806522 49 18338513165651236222
12032990 46 18410297999443813550
12251169 10 18412832382609948569
13024252 1 16008750195751000189
13214271 11 18341609308748379518
14144814 61 18411136913851692611
14325111 11 18412544297530856738
14993402 34 18410851049539614383
15219456 202 17560247920368552646
15375462 189 18187080633324472762
15536298 74 18271525420193544824
16945 1 18410581682291988845
17804303 29 18201440293663969736
18522853 276 18412826897462035833
200 152 18272640273602335767
20645464 45 16702025287887025751
20871998 184 17989208170368133415
21267235 1 18410865377308212847
22485316 2 18335416846671274570
23402539 116 18342167873656431086
23463225 33 18408886204954516710
23552423 10 18264488563023758205
23559900 14 18059294254368972854
2748010 2 17835249952320970541
7364860 26 18198904910050373984
75552 356 18343301461670615387

> <PUBCHEM_SHAPE_MULTIPOLES>
250.81
7.64
1.59
0.67
6.79
0.34
-0.01
-1.02
0.7
-0.49
-0.14
-0.1
0.03
-0.42

> <PUBCHEM_SHAPE_SELFOVERLAP>
510.461

> <PUBCHEM_SHAPE_VOLUME>
145.8

> <PUBCHEM_COORDINATE_TYPE>
2
5
10

$$$$
