7415
  -OEChem-11012400373D

 26 26  0     0  0  0  0  0  0999 V2000
   -1.7244    0.0001    0.3013 N   0  0  0  0  0  0  0  0  0  0  0  0
   -0.3618    0.0001   -0.2273 C   0  0  0  0  0  0  0  0  0  0  0  0
    0.3744    1.2642    0.2301 C   0  0  0  0  0  0  0  0  0  0  0  0
    0.3744   -1.2641    0.2299 C   0  0  0  0  0  0  0  0  0  0  0  0
    1.8281    1.2626   -0.2400 C   0  0  0  0  0  0  0  0  0  0  0  0
    1.8277   -1.2626   -0.2409 C   0  0  0  0  0  0  0  0  0  0  0  0
    2.5615   -0.0002    0.2028 C   0  0  0  0  0  0  0  0  0  0  0  0
   -2.4398   -1.2014   -0.1274 C   0  0  0  0  0  0  0  0  0  0  0  0
   -2.4401    1.2013   -0.1286 C   0  0  0  0  0  0  0  0  0  0  0  0
   -0.3857    0.0002   -1.3273 H   0  0  0  0  0  0  0  0  0  0  0  0
    0.3500    1.3471    1.3247 H   0  0  0  0  0  0  0  0  0  0  0  0
   -0.0791    2.1741   -0.1770 H   0  0  0  0  0  0  0  0  0  0  0  0
   -0.0793   -2.1739   -0.1773 H   0  0  0  0  0  0  0  0  0  0  0  0
    0.3503   -1.3471    1.3244 H   0  0  0  0  0  0  0  0  0  0  0  0
    2.3445    2.1451    0.1546 H   0  0  0  0  0  0  0  0  0  0  0  0
    1.8586    1.3372   -1.3341 H   0  0  0  0  0  0  0  0  0  0  0  0
    1.8580   -1.3363   -1.3351 H   0  0  0  0  0  0  0  0  0  0  0  0
    2.3440   -2.1455    0.1529 H   0  0  0  0  0  0  0  0  0  0  0  0
    3.5773   -0.0001   -0.2083 H   0  0  0  0  0  0  0  0  0  0  0  0
    2.6588   -0.0006    1.2955 H   0  0  0  0  0  0  0  0  0  0  0  0
   -2.3831   -1.3618   -1.2102 H   0  0  0  0  0  0  0  0  0  0  0  0
   -3.5017   -1.1310    0.1395 H   0  0  0  0  0  0  0  0  0  0  0  0
   -2.0870   -2.0971    0.3930 H   0  0  0  0  0  0  0  0  0  0  0  0
   -2.0873    2.0975    0.3909 H   0  0  0  0  0  0  0  0  0  0  0  0
   -3.5019    1.1309    0.1384 H   0  0  0  0  0  0  0  0  0  0  0  0
   -2.3833    1.3605   -1.2117 H   0  0  0  0  0  0  0  0  0  0  0  0
  1  2  1  0  0  0  0
  1  8  1  0  0  0  0
  1  9  1  0  0  0  0
  2  3  1  0  0  0  0
  2  4  1  0  0  0  0
  2 10  1  0  0  0  0
  3  5  1  0  0  0  0
  3 11  1  0  0  0  0
  3 12  1  0  0  0  0
  4  6  1  0  0  0  0
  4 13  1  0  0  0  0
  4 14  1  0  0  0  0
  5  7  1  0  0  0  0
  5 15  1  0  0  0  0
  5 16  1  0  0  0  0
  6  7  1  0  0  0  0
  6 17  1  0  0  0  0
  6 18  1  0  0  0  0
  7 19  1  0  0  0  0
  7 20  1  0  0  0  0
  8 21  1  0  0  0  0
  8 22  1  0  0  0  0
  8 23  1  0  0  0  0
  9 24  1  0  0  0  0
  9 25  1  0  0  0  0
  9 26  1  0  0  0  0
M  END
> <PUBCHEM_COMPOUND_CID>
7415

> <PUBCHEM_CONFORMER_RMSD>
0.4

> <PUBCHEM_CONFORMER_DIVERSEORDER>
1
2
6
5
8
7
3
4

> <PUBCHEM_MMFF94_PARTIAL_CHARGES>
4
1 -0.81
2 0.27
8 0.27
9 0.27

> <PUBCHEM_EFFECTIVE_ROTOR_COUNT>
2.2

> <PUBCHEM_PHARMACOPHORE_FEATURES>
2
1 1 cation
6 2 3 4 5 6 7 rings

> <PUBCHEM_HEAVY_ATOM_COUNT>
9

> <PUBCHEM_ATOM_DEF_STEREO_COUNT>
0

> <PUBCHEM_ATOM_UDEF_STEREO_COUNT>
0

> <PUBCHEM_BOND_DEF_STEREO_COUNT>
0

> <PUBCHEM_BOND_UDEF_STEREO_COUNT>
0

> <PUBCHEM_ISOTOPIC_ATOM_COUNT>
0

> <PUBCHEM_COMPONENT_COUNT>
1

> <PUBCHEM_CACTVS_TAUTO_COUNT>
1

> <PUBCHEM_CONFORMER_ID>
00001CF700000001

> <PUBCHEM_MMFF94_ENERGY>
11.762

> <PUBCHEM_FEATURE_SELFOVERLAP>
10.148

> <PUBCHEM_SHAPE_FINGERPRINT>
10857977 72 18340194267437964650
12897270 3 18338232790402392223
14128692 85 18341618117884656454
14325111 11 18410574019659077444
14390081 3 18413386536032679633
16945 1 18410577283723257756
18185500 45 18339080367653929042
19973954 147 18410014338181049677
21040471 1 18338517576883283984
23235685 24 18410289246469256336
23402655 69 18268696235294584029
23552423 10 18334298660230322438
2748010 2 18411138030353194598
29004967 10 18411140216676197074
5084963 1 18271247226065004489

> <PUBCHEM_SHAPE_MULTIPOLES>
180.23
3.78
1.67
0.65
0.85
0
0.01
0
0.1
0.04
0.04
-0.03
0
0

> <PUBCHEM_SHAPE_SELFOVERLAP>
343.64

> <PUBCHEM_SHAPE_VOLUME>
111.6

> <PUBCHEM_COORDINATE_TYPE>
2
5
10

$$$$
