138493
  -OEChem-11012400463D

 15 15  0     0  0  0  0  0  0999 V2000
   -1.3430   -0.0116    0.0037 N   0  0  0  0  0  0  0  0  0  0  0  0
    0.7427    1.1860   -0.0025 N   0  0  0  0  0  0  0  0  0  0  0  0
    0.7470   -1.0784    0.0037 N   0  0  0  0  0  0  0  0  0  0  0  0
    1.9680    0.6421   -0.0031 N   0  0  0  0  0  0  0  0  0  0  0  0
    2.0184   -0.6972    0.0008 N   0  0  0  0  0  0  0  0  0  0  0  0
    0.0493    0.0713    0.0016 C   0  0  0  0  0  0  0  0  0  0  0  0
   -2.1654    1.1915    0.0016 C   0  0  0  0  0  0  0  0  0  0  0  0
   -2.0169   -1.3037   -0.0059 C   0  0  0  0  0  0  0  0  0  0  0  0
   -3.2215    0.9669    0.1843 H   0  0  0  0  0  0  0  0  0  0  0  0
   -2.0923    1.6977   -0.9668 H   0  0  0  0  0  0  0  0  0  0  0  0
   -1.8441    1.8849    0.7866 H   0  0  0  0  0  0  0  0  0  0  0  0
   -1.6825   -1.9074   -0.8567 H   0  0  0  0  0  0  0  0  0  0  0  0
   -3.1038   -1.2001   -0.0900 H   0  0  0  0  0  0  0  0  0  0  0  0
   -1.8058   -1.8502    0.9195 H   0  0  0  0  0  0  0  0  0  0  0  0
    2.8081    1.2107   -0.0058 H   0  0  0  0  0  0  0  0  0  0  0  0
  1  6  1  0  0  0  0
  1  7  1  0  0  0  0
  1  8  1  0  0  0  0
  2  4  1  0  0  0  0
  2  6  2  0  0  0  0
  3  5  2  0  0  0  0
  3  6  1  0  0  0  0
  4  5  1  0  0  0  0
  4 15  1  0  0  0  0
  7  9  1  0  0  0  0
  7 10  1  0  0  0  0
  7 11  1  0  0  0  0
  8 12  1  0  0  0  0
  8 13  1  0  0  0  0
  8 14  1  0  0  0  0
M  END
> <PUBCHEM_COMPOUND_CID>
138493

> <PUBCHEM_CONFORMER_RMSD>
0.4

> <PUBCHEM_CONFORMER_DIVERSEORDER>
1
2
3

> <PUBCHEM_MMFF94_PARTIAL_CHARGES>
9
1 -0.82
15 0.27
2 -0.71
3 -0.23
4 0.57
5 -0.42
6 0.6
7 0.37
8 0.37

> <PUBCHEM_EFFECTIVE_ROTOR_COUNT>
1

> <PUBCHEM_PHARMACOPHORE_FEATURES>
2
4 1 2 3 6 cation
5 2 3 4 5 6 rings

> <PUBCHEM_HEAVY_ATOM_COUNT>
8

> <PUBCHEM_ATOM_DEF_STEREO_COUNT>
0

> <PUBCHEM_ATOM_UDEF_STEREO_COUNT>
0

> <PUBCHEM_BOND_DEF_STEREO_COUNT>
0

> <PUBCHEM_BOND_UDEF_STEREO_COUNT>
0

> <PUBCHEM_ISOTOPIC_ATOM_COUNT>
0

> <PUBCHEM_COMPONENT_COUNT>
1

> <PUBCHEM_CACTVS_TAUTO_COUNT>
2

> <PUBCHEM_CONFORMER_ID>
00021CFD00000001

> <PUBCHEM_MMFF94_ENERGY>
14.1395

> <PUBCHEM_FEATURE_SELFOVERLAP>
10.148

> <PUBCHEM_SHAPE_FINGERPRINT>
20096714 4 18410856546823563417
21040471 1 18338517417742731649
23552423 10 18260552220769665574
24536 1 18338218440837469901
29004967 10 18411703183767315554

> <PUBCHEM_SHAPE_MULTIPOLES>
139.73
3.04
1.41
0.56
0.18
0.04
0
-0.01
0
0.48
0
0.06
0
0

> <PUBCHEM_SHAPE_SELFOVERLAP>
277.173

> <PUBCHEM_SHAPE_VOLUME>
84.4

> <PUBCHEM_COORDINATE_TYPE>
2
5
10

$$$$
