141569
  -OEChem-11012400463D

 33 37  0     1  0  0  0  0  0999 V2000
   -2.9150   -1.5899    0.0041 O   0  0  0  0  0  0  0  0  0  0  0  0
    0.9093    1.5704    0.0008 C   0  0  0  0  0  0  0  0  0  0  0  0
    0.0997    0.9221   -1.3974 C   0  0  1  0  0  0  0  0  0  0  0  0
    0.0969    0.9168    1.2554 C   0  0  2  0  0  0  0  0  0  0  0  0
    0.3178   -0.6904   -1.2567 C   0  0  2  0  0  0  0  0  0  0  0  0
    0.3069   -0.6992    1.3875 C   0  0  1  0  0  0  0  0  0  0  0  0
   -0.4843   -1.3388   -0.0017 C   0  0  0  0  0  0  0  0  0  0  0  0
    2.5667   -0.5065    0.0084 C   0  0  0  0  0  0  0  0  0  0  0  0
   -2.1531    0.7381   -0.0025 C   0  0  0  0  0  0  0  0  0  0  0  0
    2.4041    1.0717    0.0008 C   0  0  0  0  0  0  0  0  0  0  0  0
    1.8343   -1.1318   -1.3229 C   0  0  0  0  0  0  0  0  0  0  0  0
    1.8396   -1.0523    1.3078 C   0  0  0  0  0  0  0  0  0  0  0  0
   -1.4387    1.2645   -1.3119 C   0  0  0  0  0  0  0  0  0  0  0  0
   -1.4260    1.3435    1.3289 C   0  0  0  0  0  0  0  0  0  0  0  0
   -1.9581   -0.8182   -0.0007 C   0  0  0  0  0  0  0  0  0  0  0  0
    0.8246    2.6612   -0.0094 H   0  0  0  0  0  0  0  0  0  0  0  0
    0.5727    1.3148   -2.3024 H   0  0  0  0  0  0  0  0  0  0  0  0
    0.5683    1.3405    2.1537 H   0  0  0  0  0  0  0  0  0  0  0  0
   -0.1584   -1.1154   -2.1521 H   0  0  0  0  0  0  0  0  0  0  0  0
   -0.1739   -1.0863    2.2912 H   0  0  0  0  0  0  0  0  0  0  0  0
   -0.4304   -2.4304    0.0062 H   0  0  0  0  0  0  0  0  0  0  0  0
    3.6247   -0.7871    0.0089 H   0  0  0  0  0  0  0  0  0  0  0  0
   -3.2178    0.9879   -0.0002 H   0  0  0  0  0  0  0  0  0  0  0  0
    2.9129    1.4837    0.8801 H   0  0  0  0  0  0  0  0  0  0  0  0
    2.9062    1.4704   -0.8883 H   0  0  0  0  0  0  0  0  0  0  0  0
    2.3141   -0.7342   -2.2225 H   0  0  0  0  0  0  0  0  0  0  0  0
    1.9210   -2.2227   -1.3070 H   0  0  0  0  0  0  0  0  0  0  0  0
    1.9500   -2.1424    1.3382 H   0  0  0  0  0  0  0  0  0  0  0  0
    2.3425   -0.6448    2.1926 H   0  0  0  0  0  0  0  0  0  0  0  0
   -1.9384    0.8327   -2.1873 H   0  0  0  0  0  0  0  0  0  0  0  0
   -1.5577    2.3528   -1.3618 H   0  0  0  0  0  0  0  0  0  0  0  0
   -1.5210    2.4337    1.3333 H   0  0  0  0  0  0  0  0  0  0  0  0
   -1.8941    0.9232    2.2246 H   0  0  0  0  0  0  0  0  0  0  0  0
  1 15  2  0  0  0  0
  2  3  1  0  0  0  0
  2  4  1  0  0  0  0
  2 10  1  0  0  0  0
  2 16  1  0  0  0  0
  3  5  1  0  0  0  0
  3 13  1  0  0  0  0
  3 17  1  0  0  0  0
  4  6  1  0  0  0  0
  4 14  1  0  0  0  0
  4 18  1  0  0  0  0
  5  7  1  0  0  0  0
  5 11  1  0  0  0  0
  5 19  1  0  0  0  0
  6  7  1  0  0  0  0
  6 12  1  0  0  0  0
  6 20  1  0  0  0  0
  7 15  1  0  0  0  0
  7 21  1  0  0  0  0
  8 10  1  0  0  0  0
  8 11  1  0  0  0  0
  8 12  1  0  0  0  0
  8 22  1  0  0  0  0
  9 13  1  0  0  0  0
  9 14  1  0  0  0  0
  9 15  1  0  0  0  0
  9 23  1  0  0  0  0
 10 24  1  0  0  0  0
 10 25  1  0  0  0  0
 11 26  1  0  0  0  0
 11 27  1  0  0  0  0
 12 28  1  0  0  0  0
 12 29  1  0  0  0  0
 13 30  1  0  0  0  0
 13 31  1  0  0  0  0
 14 32  1  0  0  0  0
 14 33  1  0  0  0  0
M  END
> <PUBCHEM_COMPOUND_CID>
141569

> <PUBCHEM_CONFORMER_RMSD>
0.4

> <PUBCHEM_CONFORMER_DIVERSEORDER>
1

> <PUBCHEM_MMFF94_PARTIAL_CHARGES>
4
1 -0.57
15 0.45
7 0.06
9 0.06

> <PUBCHEM_EFFECTIVE_ROTOR_COUNT>
1

> <PUBCHEM_PHARMACOPHORE_FEATURES>
8
1 1 acceptor
6 2 3 4 5 6 7 rings
6 2 3 4 9 13 14 rings
6 2 3 5 8 10 11 rings
6 2 4 6 8 10 12 rings
6 3 5 7 9 13 15 rings
6 4 6 7 9 14 15 rings
6 5 6 7 8 11 12 rings

> <PUBCHEM_HEAVY_ATOM_COUNT>
15

> <PUBCHEM_ATOM_DEF_STEREO_COUNT>
0

> <PUBCHEM_ATOM_UDEF_STEREO_COUNT>
4

> <PUBCHEM_BOND_DEF_STEREO_COUNT>
0

> <PUBCHEM_BOND_UDEF_STEREO_COUNT>
0

> <PUBCHEM_ISOTOPIC_ATOM_COUNT>
0

> <PUBCHEM_COMPONENT_COUNT>
1

> <PUBCHEM_CACTVS_TAUTO_COUNT>
1

> <PUBCHEM_CONFORMER_ID>
0002290100000001

> <PUBCHEM_MMFF94_ENERGY>
79.6001

> <PUBCHEM_FEATURE_SELFOVERLAP>
61.954

> <PUBCHEM_SHAPE_FINGERPRINT>
10863032 1 18412544318678749524
10948715 1 17906735061119462188
12423570 1 8963848242994212912
12491281 212 18128279829581870720
13024252 1 16009322993616064304
141345 1 14854142237195223400
144361 1 18337114582602602696
14817 1 15257756587700032388
15557651 10 17682712556257041396
15775835 57 18041283157961308684
16945 1 18194401095721604644
21501502 16 18410859879660195397
22344851 341 18408035225819732850
23419403 2 17836601500887463249
241688 4 18186524319037695973
2748010 2 17917156000383003844
369184 2 18114178592823573132
5084963 1 18334295404703212284
528886 8 17987243239666956904

> <PUBCHEM_SHAPE_MULTIPOLES>
302.82
3.27
1.77
1.56
0.1
0.02
0
-0.56
0
0.32
0
-0.15
0.1
0

> <PUBCHEM_SHAPE_SELFOVERLAP>
643.989

> <PUBCHEM_SHAPE_VOLUME>
160.4

> <PUBCHEM_COORDINATE_TYPE>
2
5
10

$$$$
