142802
  -OEChem-11012401033D

 40 41  0     1  0  0  0  0  0999 V2000
   -0.3792    0.5043   -0.3553 C   0  0  1  0  0  0  0  0  0  0  0  0
    1.0096    0.1054    0.1454 C   0  0  0  0  0  0  0  0  0  0  0  0
   -1.3583   -0.6925   -0.4367 C   0  0  2  0  0  0  0  0  0  0  0  0
   -0.9444    1.6575    0.4886 C   0  0  0  0  0  0  0  0  0  0  0  0
   -2.7373   -0.2142   -0.9250 C   0  0  0  0  0  0  0  0  0  0  0  0
    1.6185   -0.9799   -0.7528 C   0  0  0  0  0  0  0  0  0  0  0  0
    1.9305    1.3306    0.2226 C   0  0  0  0  0  0  0  0  0  0  0  0
   -2.3198    2.0989   -0.0051 C   0  0  0  0  0  0  0  0  0  0  0  0
   -3.2991    0.9334   -0.0889 C   0  0  0  0  0  0  0  0  0  0  0  0
   -1.4871   -1.4800    0.8729 C   0  0  0  0  0  0  0  0  0  0  0  0
    3.0283   -1.3574   -0.3041 C   0  0  0  0  0  0  0  0  0  0  0  0
    3.3400    0.9493    0.6695 C   0  0  0  0  0  0  0  0  0  0  0  0
    3.9383   -0.1359   -0.2201 C   0  0  0  0  0  0  0  0  0  0  0  0
   -2.3399   -2.7194    0.6888 C   0  0  0  0  0  0  0  0  0  0  0  0
   -0.2672    0.8907   -1.3800 H   0  0  0  0  0  0  0  0  0  0  0  0
    0.9375   -0.2881    1.1671 H   0  0  0  0  0  0  0  0  0  0  0  0
   -0.9960   -1.3819   -1.2098 H   0  0  0  0  0  0  0  0  0  0  0  0
   -0.3124    2.5483    0.4325 H   0  0  0  0  0  0  0  0  0  0  0  0
   -1.0058    1.3681    1.5445 H   0  0  0  0  0  0  0  0  0  0  0  0
   -3.4660   -1.0278   -0.9803 H   0  0  0  0  0  0  0  0  0  0  0  0
   -2.6272    0.1420   -1.9587 H   0  0  0  0  0  0  0  0  0  0  0  0
    1.6515   -0.6325   -1.7932 H   0  0  0  0  0  0  0  0  0  0  0  0
    1.0196   -1.8956   -0.7379 H   0  0  0  0  0  0  0  0  0  0  0  0
    1.5715    2.0604    0.9542 H   0  0  0  0  0  0  0  0  0  0  0  0
    1.9794    1.8331   -0.7514 H   0  0  0  0  0  0  0  0  0  0  0  0
   -2.2193    2.5589   -0.9962 H   0  0  0  0  0  0  0  0  0  0  0  0
   -2.7217    2.8698    0.6623 H   0  0  0  0  0  0  0  0  0  0  0  0
   -3.5431    0.5811    0.9197 H   0  0  0  0  0  0  0  0  0  0  0  0
   -4.2387    1.2814   -0.5338 H   0  0  0  0  0  0  0  0  0  0  0  0
   -1.8963   -0.8669    1.6822 H   0  0  0  0  0  0  0  0  0  0  0  0
   -0.5052   -1.8265    1.2087 H   0  0  0  0  0  0  0  0  0  0  0  0
    3.4548   -2.0864   -1.0025 H   0  0  0  0  0  0  0  0  0  0  0  0
    2.9808   -1.8453    0.6774 H   0  0  0  0  0  0  0  0  0  0  0  0
    3.3115    0.5948    1.7073 H   0  0  0  0  0  0  0  0  0  0  0  0
    3.9847    1.8353    0.6528 H   0  0  0  0  0  0  0  0  0  0  0  0
    4.9192   -0.4323    0.1682 H   0  0  0  0  0  0  0  0  0  0  0  0
    4.1014    0.2672   -1.2272 H   0  0  0  0  0  0  0  0  0  0  0  0
   -3.4021   -2.4788    0.5911 H   0  0  0  0  0  0  0  0  0  0  0  0
   -2.0268   -3.3016   -0.1837 H   0  0  0  0  0  0  0  0  0  0  0  0
   -2.2456   -3.3659    1.5684 H   0  0  0  0  0  0  0  0  0  0  0  0
  1  2  1  0  0  0  0
  1  3  1  0  0  0  0
  1  4  1  0  0  0  0
  1 15  1  0  0  0  0
  2  6  1  0  0  0  0
  2  7  1  0  0  0  0
  2 16  1  0  0  0  0
  3  5  1  0  0  0  0
  3 10  1  0  0  0  0
  3 17  1  0  0  0  0
  4  8  1  0  0  0  0
  4 18  1  0  0  0  0
  4 19  1  0  0  0  0
  5  9  1  0  0  0  0
  5 20  1  0  0  0  0
  5 21  1  0  0  0  0
  6 11  1  0  0  0  0
  6 22  1  0  0  0  0
  6 23  1  0  0  0  0
  7 12  1  0  0  0  0
  7 24  1  0  0  0  0
  7 25  1  0  0  0  0
  8  9  1  0  0  0  0
  8 26  1  0  0  0  0
  8 27  1  0  0  0  0
  9 28  1  0  0  0  0
  9 29  1  0  0  0  0
 10 14  1  0  0  0  0
 10 30  1  0  0  0  0
 10 31  1  0  0  0  0
 11 13  1  0  0  0  0
 11 32  1  0  0  0  0
 11 33  1  0  0  0  0
 12 13  1  0  0  0  0
 12 34  1  0  0  0  0
 12 35  1  0  0  0  0
 13 36  1  0  0  0  0
 13 37  1  0  0  0  0
 14 38  1  0  0  0  0
 14 39  1  0  0  0  0
 14 40  1  0  0  0  0
M  END
> <PUBCHEM_COMPOUND_CID>
142802

> <PUBCHEM_CONFORMER_RMSD>
0.6

> <PUBCHEM_CONFORMER_DIVERSEORDER>
1
15
6
22
19
25
24
3
27
29
23
20
26
11
10
18
17
16
28
7
5
4
12
2
21
8
13
9
14

> <PUBCHEM_MMFF94_PARTIAL_CHARGES>
0

> <PUBCHEM_EFFECTIVE_ROTOR_COUNT>
4.4

> <PUBCHEM_PHARMACOPHORE_FEATURES>
3
1 14 hydrophobe
6 1 3 4 5 8 9 rings
6 2 6 7 11 12 13 rings

> <PUBCHEM_HEAVY_ATOM_COUNT>
14

> <PUBCHEM_ATOM_DEF_STEREO_COUNT>
0

> <PUBCHEM_ATOM_UDEF_STEREO_COUNT>
2

> <PUBCHEM_BOND_DEF_STEREO_COUNT>
0

> <PUBCHEM_BOND_UDEF_STEREO_COUNT>
0

> <PUBCHEM_ISOTOPIC_ATOM_COUNT>
0

> <PUBCHEM_COMPONENT_COUNT>
1

> <PUBCHEM_CACTVS_TAUTO_COUNT>
1

> <PUBCHEM_CONFORMER_ID>
00022DD200000001

> <PUBCHEM_MMFF94_ENERGY>
19.4206

> <PUBCHEM_FEATURE_SELFOVERLAP>
15.223

> <PUBCHEM_SHAPE_FINGERPRINT>
10608611 8 18342451534956377808
12138202 97 18261104175627791319
12491281 212 17774447066389132729
12500047 106 18334292024695682828
12716758 59 18408321077473619491
12932764 1 17560520719822411884
13024252 1 13045945698827580949
13296908 3 18411421756172615902
13380535 21 18339935852314758716
13380535 76 18341328894670886310
14115302 16 18187091654073410711
14144814 61 18339921519966732960
14325111 11 18271240526058830700
15219456 202 18341613754292751274
15279308 132 18265053539642587033
15442244 35 17983295928767724488
15775835 57 18115871784843194689
16945 1 18408042909484725989
17844478 74 18268999850273531290
18186145 218 18264765463396328493
19049666 15 18341056215892900658
200 152 17203601575597445284
20201158 50 18343300344952829230
20279233 1 18412544323300744946
20510252 161 18337675342085903499
20528008 55 18411695465552932964
20645477 70 17704072855129389094
20871998 184 18271811271520221879
20871998 22 17975705205443222003
21501502 16 18343017761922048396
21524375 3 17910959045860382201
22802520 49 18341897410859653825
23402539 116 18411970369825572133
23557571 272 18338529649857277998
23559900 14 18411416177532259858
2748010 2 18342176721262485590
305870 269 17899974937472499409
3248919 1 18334570274294489444
3312278 4 18410014364029870834
5104073 3 18342735209061398170
6049 1 18200330891143236070
6333449 129 18409449193546728419
69090 78 18200868496515651805
74978 22 18333452036509062932
75552 356 18335138712867844845
81228 2 18115597074851302331
8809292 202 18410858737404648890
9709674 26 18342739602665566646

> <PUBCHEM_SHAPE_MULTIPOLES>
288.11
6.15
2.32
0.89
3.58
0.66
0
-0.04
0.17
-1.68
-0.54
-0.15
0.18
0.73

> <PUBCHEM_SHAPE_SELFOVERLAP>
571.539

> <PUBCHEM_SHAPE_VOLUME>
168.7

> <PUBCHEM_COORDINATE_TYPE>
2
5
10

$$$$
