143939
  -OEChem-11012400313D

 86 90  0     0  0  0  0  0  0999 V2000
    8.0284   -3.2367   -0.8981 O   0  0  0  0  0  0  0  0  0  0  0  0
   -4.0274   -5.5061    1.3916 O   0  0  0  0  0  0  0  0  0  0  0  0
   -7.6173   -0.1437   -1.2615 O   0  0  0  0  0  0  0  0  0  0  0  0
    7.2821   -3.3508    1.2819 O   0  0  0  0  0  0  0  0  0  0  0  0
   -4.3640   -4.9392   -0.8193 O   0  0  0  0  0  0  0  0  0  0  0  0
   -7.3025   -0.2791    1.0201 O   0  0  0  0  0  0  0  0  0  0  0  0
    2.8445    1.0305   -0.3746 N   0  0  0  0  0  0  0  0  0  0  0  0
    0.3117   -0.4674   -0.0762 N   0  0  0  0  0  0  0  0  0  0  0  0
    1.0858    3.4917   -0.0069 N   0  0  0  0  0  0  0  0  0  0  0  0
   -1.3133    1.9163   -0.0071 N   0  0  0  0  0  0  0  0  0  0  0  0
    4.5508   -0.1214    0.4436 C   0  0  0  0  0  0  0  0  0  0  0  0
    3.2909   -0.2444   -0.1094 C   0  0  0  0  0  0  0  0  0  0  0  0
    4.8480    1.2584    0.5424 C   0  0  0  0  0  0  0  0  0  0  0  0
    3.7673    1.9628    0.0466 C   0  0  0  0  0  0  0  0  0  0  0  0
   -0.9008   -2.3992   -0.6163 C   0  0  0  0  0  0  0  0  0  0  0  0
    5.4348   -1.2320    0.8603 C   0  0  0  0  0  0  0  0  0  0  0  0
    0.4058   -2.6474   -0.7819 C   0  0  0  0  0  0  0  0  0  0  0  0
    1.1868   -1.4646   -0.4477 C   0  0  0  0  0  0  0  0  0  0  0  0
   -0.8769   -0.9912   -0.1681 C   0  0  0  0  0  0  0  0  0  0  0  0
   -3.5270    1.7218    0.5417 C   0  0  0  0  0  0  0  0  0  0  0  0
    2.5285   -1.3866   -0.4656 C   0  0  0  0  0  0  0  0  0  0  0  0
   -2.3056    0.9971    0.2277 C   0  0  0  0  0  0  0  0  0  0  0  0
   -2.1026   -3.2380   -0.8257 C   0  0  0  0  0  0  0  0  0  0  0  0
   -3.3010    3.0434    0.5044 C   0  0  0  0  0  0  0  0  0  0  0  0
    3.5579    3.3561   -0.1233 C   0  0  0  0  0  0  0  0  0  0  0  0
   -1.8675    3.0829    0.1528 C   0  0  0  0  0  0  0  0  0  0  0  0
   -2.1667   -0.3349    0.1624 C   0  0  0  0  0  0  0  0  0  0  0  0
    2.3642    3.9672   -0.1435 C   0  0  0  0  0  0  0  0  0  0  0  0
   -4.8127    1.0314    0.8511 C   0  0  0  0  0  0  0  0  0  0  0  0
    0.1376    4.4850   -0.0904 C   0  0  0  0  0  0  0  0  0  0  0  0
    6.3655   -1.7130   -0.2651 C   0  0  0  0  0  0  0  0  0  0  0  0
    6.0979    1.8389    1.0808 C   0  0  0  0  0  0  0  0  0  0  0  0
    0.8999    5.7217   -0.2852 C   0  0  0  0  0  0  0  0  0  0  0  0
   -1.1983    4.3950   -0.0142 C   0  0  0  0  0  0  0  0  0  0  0  0
    1.0300   -3.9240   -1.2378 C   0  0  0  0  0  0  0  0  0  0  0  0
    2.2112    5.4088   -0.3161 C   0  0  0  0  0  0  0  0  0  0  0  0
   -2.5137   -3.9902    0.4428 C   0  0  0  0  0  0  0  0  0  0  0  0
   -5.6264    0.7517   -0.4101 C   0  0  0  0  0  0  0  0  0  0  0  0
   -4.1797    4.2084    0.7495 C   0  0  0  0  0  0  0  0  0  0  0  0
    0.3029    7.0754   -0.4232 C   0  0  0  0  0  0  0  0  0  0  0  0
    7.2582   -2.8552    0.1638 C   0  0  0  0  0  0  0  0  0  0  0  0
   -3.7383   -4.8508    0.2282 C   0  0  0  0  0  0  0  0  0  0  0  0
   -6.9307    0.0534   -0.0969 C   0  0  0  0  0  0  0  0  0  0  0  0
    8.9342   -4.3158   -0.6464 C   0  0  0  0  0  0  0  0  0  0  0  0
   -5.1712   -6.3655    1.3472 C   0  0  0  0  0  0  0  0  0  0  0  0
   -8.8816   -0.8009   -1.1278 C   0  0  0  0  0  0  0  0  0  0  0  0
    4.8316   -2.0773    1.2170 H   0  0  0  0  0  0  0  0  0  0  0  0
    6.0389   -0.9303    1.7252 H   0  0  0  0  0  0  0  0  0  0  0  0
    1.9729    1.2453   -0.8389 H   0  0  0  0  0  0  0  0  0  0  0  0
    3.1031   -2.2713   -0.7291 H   0  0  0  0  0  0  0  0  0  0  0  0
   -1.9072   -3.9661   -1.6235 H   0  0  0  0  0  0  0  0  0  0  0  0
   -2.9367   -2.6358   -1.2047 H   0  0  0  0  0  0  0  0  0  0  0  0
    4.4503    3.9717   -0.2182 H   0  0  0  0  0  0  0  0  0  0  0  0
   -3.0128   -0.9845    0.3517 H   0  0  0  0  0  0  0  0  0  0  0  0
   -4.6419    0.1094    1.4198 H   0  0  0  0  0  0  0  0  0  0  0  0
   -5.4112    1.6568    1.5267 H   0  0  0  0  0  0  0  0  0  0  0  0
    5.7675   -2.0515   -1.1196 H   0  0  0  0  0  0  0  0  0  0  0  0
    7.0058   -0.8863   -0.5948 H   0  0  0  0  0  0  0  0  0  0  0  0
    6.3052    1.4482    2.0825 H   0  0  0  0  0  0  0  0  0  0  0  0
    6.0531    2.9286    1.1644 H   0  0  0  0  0  0  0  0  0  0  0  0
    6.9443    1.5889    0.4329 H   0  0  0  0  0  0  0  0  0  0  0  0
   -1.8224    5.2786   -0.0853 H   0  0  0  0  0  0  0  0  0  0  0  0
    0.8510    2.5302    0.1807 H   0  0  0  0  0  0  0  0  0  0  0  0
    1.5913   -3.7704   -2.1655 H   0  0  0  0  0  0  0  0  0  0  0  0
    0.2839   -4.7006   -1.4312 H   0  0  0  0  0  0  0  0  0  0  0  0
    1.7123   -4.3149   -0.4756 H   0  0  0  0  0  0  0  0  0  0  0  0
    3.0278    6.1024   -0.4463 H   0  0  0  0  0  0  0  0  0  0  0  0
   -1.6949   -4.6434    0.7674 H   0  0  0  0  0  0  0  0  0  0  0  0
   -2.7374   -3.2806    1.2475 H   0  0  0  0  0  0  0  0  0  0  0  0
   -5.8603    1.6932   -0.9212 H   0  0  0  0  0  0  0  0  0  0  0  0
   -5.0578    0.1100   -1.0931 H   0  0  0  0  0  0  0  0  0  0  0  0
   -4.2474    4.8344   -0.1458 H   0  0  0  0  0  0  0  0  0  0  0  0
   -5.1971    3.9049    1.0128 H   0  0  0  0  0  0  0  0  0  0  0  0
   -3.7925    4.8167    1.5727 H   0  0  0  0  0  0  0  0  0  0  0  0
   -0.3633    7.1187   -1.2909 H   0  0  0  0  0  0  0  0  0  0  0  0
   -0.2706    7.3392    0.4712 H   0  0  0  0  0  0  0  0  0  0  0  0
    1.0753    7.8398   -0.5595 H   0  0  0  0  0  0  0  0  0  0  0  0
    9.6481   -4.0366    0.1344 H   0  0  0  0  0  0  0  0  0  0  0  0
    9.4847   -4.5198   -1.5686 H   0  0  0  0  0  0  0  0  0  0  0  0
    8.3810   -5.2157   -0.3612 H   0  0  0  0  0  0  0  0  0  0  0  0
   -6.0710   -5.7865    1.1181 H   0  0  0  0  0  0  0  0  0  0  0  0
   -5.0214   -7.1572    0.6069 H   0  0  0  0  0  0  0  0  0  0  0  0
   -5.2904   -6.8241    2.3323 H   0  0  0  0  0  0  0  0  0  0  0  0
   -8.7453   -1.8021   -0.7079 H   0  0  0  0  0  0  0  0  0  0  0  0
   -9.3228   -0.8951   -2.1236 H   0  0  0  0  0  0  0  0  0  0  0  0
   -9.5530   -0.2065   -0.5009 H   0  0  0  0  0  0  0  0  0  0  0  0
  1 41  1  0  0  0  0
  1 44  1  0  0  0  0
  2 42  1  0  0  0  0
  2 45  1  0  0  0  0
  3 43  1  0  0  0  0
  3 46  1  0  0  0  0
  4 41  2  0  0  0  0
  5 42  2  0  0  0  0
  6 43  2  0  0  0  0
  7 12  1  0  0  0  0
  7 14  1  0  0  0  0
  7 49  1  0  0  0  0
  8 18  1  0  0  0  0
  8 19  2  0  0  0  0
  9 28  1  0  0  0  0
  9 30  1  0  0  0  0
  9 63  1  0  0  0  0
 10 22  1  0  0  0  0
 10 26  2  0  0  0  0
 11 12  2  0  0  0  0
 11 13  1  0  0  0  0
 11 16  1  0  0  0  0
 12 21  1  0  0  0  0
 13 14  2  0  0  0  0
 13 32  1  0  0  0  0
 14 25  1  0  0  0  0
 15 17  2  0  0  0  0
 15 19  1  0  0  0  0
 15 23  1  0  0  0  0
 16 31  1  0  0  0  0
 16 47  1  0  0  0  0
 16 48  1  0  0  0  0
 17 18  1  0  0  0  0
 17 35  1  0  0  0  0
 18 21  2  0  0  0  0
 19 27  1  0  0  0  0
 20 22  1  0  0  0  0
 20 24  2  0  0  0  0
 20 29  1  0  0  0  0
 21 50  1  0  0  0  0
 22 27  2  0  0  0  0
 23 37  1  0  0  0  0
 23 51  1  0  0  0  0
 23 52  1  0  0  0  0
 24 26  1  0  0  0  0
 24 39  1  0  0  0  0
 25 28  2  0  0  0  0
 25 53  1  0  0  0  0
 26 34  1  0  0  0  0
 27 54  1  0  0  0  0
 28 36  1  0  0  0  0
 29 38  1  0  0  0  0
 29 55  1  0  0  0  0
 29 56  1  0  0  0  0
 30 33  1  0  0  0  0
 30 34  2  0  0  0  0
 31 41  1  0  0  0  0
 31 57  1  0  0  0  0
 31 58  1  0  0  0  0
 32 59  1  0  0  0  0
 32 60  1  0  0  0  0
 32 61  1  0  0  0  0
 33 36  2  0  0  0  0
 33 40  1  0  0  0  0
 34 62  1  0  0  0  0
 35 64  1  0  0  0  0
 35 65  1  0  0  0  0
 35 66  1  0  0  0  0
 36 67  1  0  0  0  0
 37 42  1  0  0  0  0
 37 68  1  0  0  0  0
 37 69  1  0  0  0  0
 38 43  1  0  0  0  0
 38 70  1  0  0  0  0
 38 71  1  0  0  0  0
 39 72  1  0  0  0  0
 39 73  1  0  0  0  0
 39 74  1  0  0  0  0
 40 75  1  0  0  0  0
 40 76  1  0  0  0  0
 40 77  1  0  0  0  0
 44 78  1  0  0  0  0
 44 79  1  0  0  0  0
 44 80  1  0  0  0  0
 45 81  1  0  0  0  0
 45 82  1  0  0  0  0
 45 83  1  0  0  0  0
 46 84  1  0  0  0  0
 46 85  1  0  0  0  0
 46 86  1  0  0  0  0
M  END
> <PUBCHEM_COMPOUND_CID>
143939

> <PUBCHEM_CONFORMER_RMSD>
1.2

> <PUBCHEM_CONFORMER_DIVERSEORDER>
1
35
25
46
40
38
48
57
24
59
34
36
30
45
60
9
54
55
49
52
50
27
26
28
21
10
29
31
44
56
14
11
39
47
16
15
58
20
23
53
41
33
51
13
12
62
22
4
32
42
37
18
43
6
61
17
8
7
19
5
3
2

> <PUBCHEM_MMFF94_PARTIAL_CHARGES>
53
1 -0.43
10 -0.62
11 -0.18
12 -0.2
13 -0.18
14 -0.2
15 -0.12
16 0.18
17 -0.14
18 0.17
19 0.42
2 -0.43
20 -0.14
21 -0.11
22 0.17
23 0.14
24 -0.12
25 -0.11
26 0.42
27 -0.14
28 0.1
29 0.14
3 -0.43
30 0.1
31 0.06
32 0.18
33 -0.14
34 -0.14
35 0.14
36 -0.15
37 0.06
38 0.06
39 0.14
4 -0.57
40 0.14
41 0.66
42 0.66
43 0.66
44 0.28
45 0.28
46 0.28
49 0.27
5 -0.57
50 0.15
53 0.15
54 0.15
6 -0.57
62 0.15
63 0.4
67 0.15
7 0.03
8 -0.62
9 -0.6

> <PUBCHEM_EFFECTIVE_ROTOR_COUNT>
12

> <PUBCHEM_PHARMACOPHORE_FEATURES>
13
1 10 acceptor
1 4 acceptor
1 5 acceptor
1 6 acceptor
1 7 cation
1 7 donor
1 8 acceptor
1 9 cation
1 9 donor
5 10 20 22 24 26 rings
5 7 11 12 13 14 rings
5 8 15 17 18 19 rings
5 9 28 30 33 36 rings

> <PUBCHEM_HEAVY_ATOM_COUNT>
46

> <PUBCHEM_ATOM_DEF_STEREO_COUNT>
0

> <PUBCHEM_ATOM_UDEF_STEREO_COUNT>
0

> <PUBCHEM_BOND_DEF_STEREO_COUNT>
0

> <PUBCHEM_BOND_UDEF_STEREO_COUNT>
0

> <PUBCHEM_ISOTOPIC_ATOM_COUNT>
0

> <PUBCHEM_COMPONENT_COUNT>
1

> <PUBCHEM_CACTVS_TAUTO_COUNT>
6

> <PUBCHEM_CONFORMER_ID>
0002324300000001

> <PUBCHEM_MMFF94_ENERGY>
105.9019

> <PUBCHEM_FEATURE_SELFOVERLAP>
65.976

> <PUBCHEM_SHAPE_FINGERPRINT>
10675989 125 16754377735254353877
11756154 67 18410016498881733646
12440605 4 17907588278765398243
12645989 146 18340771455650999326
13294257 79 18411705374385941342
1361 2 18412263965111074609
14117953 113 18123750859709991596
14725015 67 18266736892309404232
15276724 80 17977952616264807515
15320467 1 18411702092819852597
19301676 85 18408601496358276651
19311894 1 18409164381813134178
19611394 137 18260844708417193819
21133410 58 18335973234490362813
22223350 30 18272925051256417048
22311459 1 18411702084651495479
25019877 29 17489864921236527957
6036956 94 16605196006293461109
9961470 85 17983567791471510081

> <PUBCHEM_SHAPE_MULTIPOLES>
891.52
19.75
11.04
1.01
6.4
2.88
0.07
-23.59
0.11
-1.84
0.4
-0.46
-0.8
1.14

> <PUBCHEM_SHAPE_SELFOVERLAP>
1924.849

> <PUBCHEM_SHAPE_VOLUME>
494.7

> <PUBCHEM_COORDINATE_TYPE>
2
5
10

$$$$
