19526
  -OEChem-11012400403D

 16 15  0     0  0  0  0  0  0999 V2000
   -1.6205   -0.2849   -0.7684 S   0  0  0  0  0  0  0  0  0  0  0  0
   -0.1882    2.1998   -0.0194 S   0  0  0  0  0  0  0  0  0  0  0  0
    0.9966   -0.2937   -0.0259 N   0  0  0  0  0  0  0  0  0  0  0  0
    2.2843    0.2439    0.4201 C   0  0  0  0  0  0  0  0  0  0  0  0
    1.0022   -1.7468   -0.2203 C   0  0  0  0  0  0  0  0  0  0  0  0
   -0.1307    0.5249   -0.2364 C   0  0  0  0  0  0  0  0  0  0  0  0
   -2.3436   -0.6431    0.8503 C   0  0  0  0  0  0  0  0  0  0  0  0
    2.2561    1.3014    0.6812 H   0  0  0  0  0  0  0  0  0  0  0  0
    3.0134    0.1030   -0.3839 H   0  0  0  0  0  0  0  0  0  0  0  0
    2.6075   -0.3171    1.3029 H   0  0  0  0  0  0  0  0  0  0  0  0
    2.0017   -2.0730   -0.5256 H   0  0  0  0  0  0  0  0  0  0  0  0
    0.3013   -2.0697   -0.9911 H   0  0  0  0  0  0  0  0  0  0  0  0
    0.7443   -2.2196    0.7319 H   0  0  0  0  0  0  0  0  0  0  0  0
   -3.2730   -1.2022    0.7133 H   0  0  0  0  0  0  0  0  0  0  0  0
   -2.5716    0.2827    1.3850 H   0  0  0  0  0  0  0  0  0  0  0  0
   -1.6595   -1.2476    1.4517 H   0  0  0  0  0  0  0  0  0  0  0  0
  1  6  1  0  0  0  0
  1  7  1  0  0  0  0
  2  6  2  0  0  0  0
  3  4  1  0  0  0  0
  3  5  1  0  0  0  0
  3  6  1  0  0  0  0
  4  8  1  0  0  0  0
  4  9  1  0  0  0  0
  4 10  1  0  0  0  0
  5 11  1  0  0  0  0
  5 12  1  0  0  0  0
  5 13  1  0  0  0  0
  7 14  1  0  0  0  0
  7 15  1  0  0  0  0
  7 16  1  0  0  0  0
M  END
> <PUBCHEM_COMPOUND_CID>
19526

> <PUBCHEM_CONFORMER_RMSD>
0.4

> <PUBCHEM_CONFORMER_DIVERSEORDER>
2
3
11
10
6
8
5
7
4
12
9
1

> <PUBCHEM_MMFF94_PARTIAL_CHARGES>
7
1 -0.37
2 -0.38
3 -0.66
4 0.3
5 0.3
6 0.58
7 0.23

> <PUBCHEM_EFFECTIVE_ROTOR_COUNT>
2

> <PUBCHEM_PHARMACOPHORE_FEATURES>
2
1 2 acceptor
1 7 hydrophobe

> <PUBCHEM_HEAVY_ATOM_COUNT>
7

> <PUBCHEM_ATOM_DEF_STEREO_COUNT>
0

> <PUBCHEM_ATOM_UDEF_STEREO_COUNT>
0

> <PUBCHEM_BOND_DEF_STEREO_COUNT>
0

> <PUBCHEM_BOND_UDEF_STEREO_COUNT>
0

> <PUBCHEM_ISOTOPIC_ATOM_COUNT>
0

> <PUBCHEM_COMPONENT_COUNT>
1

> <PUBCHEM_CACTVS_TAUTO_COUNT>
1

> <PUBCHEM_CONFORMER_ID>
00004C4600000002

> <PUBCHEM_MMFF94_ENERGY>
21.0551

> <PUBCHEM_FEATURE_SELFOVERLAP>
10.148

> <PUBCHEM_SHAPE_FINGERPRINT>
16714656 1 18341044215991340756
18185500 45 18272362122476748343
21040471 1 17402051591892430109
24536 1 18116427029714769542
29004967 10 18408324397388393731

> <PUBCHEM_SHAPE_MULTIPOLES>
146.77
2.82
1.99
0.87
0.18
0.82
-0.02
-0.78
-0.63
-0.27
0.08
0.37
-0.08
0.21

> <PUBCHEM_SHAPE_SELFOVERLAP>
238.976

> <PUBCHEM_SHAPE_VOLUME>
104.2

> <PUBCHEM_COORDINATE_TYPE>
2
5
10

$$$$
