136125
  -OEChem-11012400443D

 26 28  0     1  0  0  0  0  0999 V2000
   -1.6823    0.7552   -0.4109 C   0  0  1  0  0  0  0  0  0  0  0  0
   -1.6819   -0.7552   -0.4111 C   0  0  2  0  0  0  0  0  0  0  0  0
    1.6821    0.7553    0.4109 C   0  0  1  0  0  0  0  0  0  0  0  0
    1.6825   -0.7551    0.4110 C   0  0  2  0  0  0  0  0  0  0  0  0
   -2.7540   -0.0005    0.3313 C   0  0  0  0  0  0  0  0  0  0  0  0
    2.7538    0.0004   -0.3319 C   0  0  0  0  0  0  0  0  0  0  0  0
   -0.6847    1.5802    0.3431 C   0  0  0  0  0  0  0  0  0  0  0  0
   -0.6843   -1.5801    0.3431 C   0  0  0  0  0  0  0  0  0  0  0  0
    0.6841    1.5801   -0.3428 C   0  0  0  0  0  0  0  0  0  0  0  0
    0.6848   -1.5804   -0.3428 C   0  0  0  0  0  0  0  0  0  0  0  0
   -1.9720    1.2387   -1.3387 H   0  0  0  0  0  0  0  0  0  0  0  0
   -1.9714   -1.2386   -1.3390 H   0  0  0  0  0  0  0  0  0  0  0  0
    1.9719    1.2388    1.3387 H   0  0  0  0  0  0  0  0  0  0  0  0
    1.9725   -1.2385    1.3387 H   0  0  0  0  0  0  0  0  0  0  0  0
   -3.7522   -0.0007   -0.0902 H   0  0  0  0  0  0  0  0  0  0  0  0
   -2.7321   -0.0006    1.4142 H   0  0  0  0  0  0  0  0  0  0  0  0
    3.7522    0.0007    0.0892 H   0  0  0  0  0  0  0  0  0  0  0  0
    2.7314    0.0004   -1.4148 H   0  0  0  0  0  0  0  0  0  0  0  0
   -0.6076    1.2607    1.3892 H   0  0  0  0  0  0  0  0  0  0  0  0
   -1.0673    2.6083    0.3621 H   0  0  0  0  0  0  0  0  0  0  0  0
   -1.0670   -2.6082    0.3622 H   0  0  0  0  0  0  0  0  0  0  0  0
   -0.6071   -1.2604    1.3891 H   0  0  0  0  0  0  0  0  0  0  0  0
    0.6069    1.2606   -1.3888 H   0  0  0  0  0  0  0  0  0  0  0  0
    1.0667    2.6082   -0.3620 H   0  0  0  0  0  0  0  0  0  0  0  0
    1.0673   -2.6085   -0.3613 H   0  0  0  0  0  0  0  0  0  0  0  0
    0.6078   -1.2613   -1.3890 H   0  0  0  0  0  0  0  0  0  0  0  0
  1  2  1  0  0  0  0
  1  5  1  0  0  0  0
  1  7  1  0  0  0  0
  1 11  1  0  0  0  0
  2  5  1  0  0  0  0
  2  8  1  0  0  0  0
  2 12  1  0  0  0  0
  3  4  1  0  0  0  0
  3  6  1  0  0  0  0
  3  9  1  0  0  0  0
  3 13  1  0  0  0  0
  4  6  1  0  0  0  0
  4 10  1  0  0  0  0
  4 14  1  0  0  0  0
  5 15  1  0  0  0  0
  5 16  1  0  0  0  0
  6 17  1  0  0  0  0
  6 18  1  0  0  0  0
  7  9  1  0  0  0  0
  7 19  1  0  0  0  0
  7 20  1  0  0  0  0
  8 10  1  0  0  0  0
  8 21  1  0  0  0  0
  8 22  1  0  0  0  0
  9 23  1  0  0  0  0
  9 24  1  0  0  0  0
 10 25  1  0  0  0  0
 10 26  1  0  0  0  0
M  END
> <PUBCHEM_COMPOUND_CID>
136125

> <PUBCHEM_CONFORMER_RMSD>
0.4

> <PUBCHEM_CONFORMER_DIVERSEORDER>
1
4
6
5
2
3

> <PUBCHEM_MMFF94_PARTIAL_CHARGES>
18
1 -0.19
10 0.09
11 0.1
12 0.1
13 0.1
14 0.1
15 0.1
16 0.1
17 0.1
18 0.1
2 -0.19
3 -0.19
4 -0.19
5 -0.2
6 -0.2
7 0.09
8 0.09
9 0.09

> <PUBCHEM_EFFECTIVE_ROTOR_COUNT>
1.2

> <PUBCHEM_PHARMACOPHORE_FEATURES>
0

> <PUBCHEM_HEAVY_ATOM_COUNT>
10

> <PUBCHEM_ATOM_DEF_STEREO_COUNT>
0

> <PUBCHEM_ATOM_UDEF_STEREO_COUNT>
4

> <PUBCHEM_BOND_DEF_STEREO_COUNT>
0

> <PUBCHEM_BOND_UDEF_STEREO_COUNT>
0

> <PUBCHEM_ISOTOPIC_ATOM_COUNT>
0

> <PUBCHEM_COMPONENT_COUNT>
1

> <PUBCHEM_CACTVS_TAUTO_COUNT>
1

> <PUBCHEM_CONFORMER_ID>
000213BD00000001

> <PUBCHEM_MMFF94_ENERGY>
25.6244

> <PUBCHEM_FEATURE_SELFOVERLAP>
0

> <PUBCHEM_SHAPE_FINGERPRINT>
12524768 44 18341613681130815615
12897270 3 18411416189631015892
15310529 11 16732695047672687964
15775835 57 18410578387493000992
16945 1 18410849962570022918
18185500 45 18410849971175807765
193761 8 17545882629063049220
20201158 50 18409444778304569335
21040471 1 18410288133787773154
22802520 49 18127997246667297078
23235685 24 18410571786128312516
23552423 10 18117274963522412493
241688 4 17905893578230910984
2748010 2 18122342651222051956
5084963 1 18272650172879557979
528886 8 18412259540882646995
63268167 104 18340486668758618259
66348 1 18410571777585733802

> <PUBCHEM_SHAPE_MULTIPOLES>
205.8
3.45
1.84
0.75
0
0
0
0
0
0
0
0
0
0

> <PUBCHEM_SHAPE_SELFOVERLAP>
420.185

> <PUBCHEM_SHAPE_VOLUME>
117.6

> <PUBCHEM_COORDINATE_TYPE>
2
5
10

$$$$
