13420
  -OEChem-11012401033D

 32 32  0     0  0  0  0  0  0999 V2000
   -2.7143    0.1429    1.0930 O   0  0  0  0  0  0  0  0  0  0  0  0
    2.4796    0.2301    0.7953 C   0  0  0  0  0  0  0  0  0  0  0  0
    2.5455   -1.1525    0.1287 C   0  0  0  0  0  0  0  0  0  0  0  0
    2.3105    1.4405   -0.1345 C   0  0  0  0  0  0  0  0  0  0  0  0
    1.2646   -1.7053   -0.5023 C   0  0  0  0  0  0  0  0  0  0  0  0
    0.9248    1.6749   -0.7410 C   0  0  0  0  0  0  0  0  0  0  0  0
    0.0919   -1.8367    0.4728 C   0  0  0  0  0  0  0  0  0  0  0  0
   -0.1785    1.9664    0.2807 C   0  0  0  0  0  0  0  0  0  0  0  0
   -1.2580   -2.0416   -0.2270 C   0  0  0  0  0  0  0  0  0  0  0  0
   -1.5768    1.7301   -0.2923 C   0  0  0  0  0  0  0  0  0  0  0  0
   -1.8007   -0.7897   -0.9231 C   0  0  0  0  0  0  0  0  0  0  0  0
   -2.0884    0.3410    0.0497 C   0  0  0  0  0  0  0  0  0  0  0  0
    3.4443    0.3675    1.3039 H   0  0  0  0  0  0  0  0  0  0  0  0
    1.7395    0.2419    1.5991 H   0  0  0  0  0  0  0  0  0  0  0  0
    2.8821   -1.8708    0.8878 H   0  0  0  0  0  0  0  0  0  0  0  0
    3.3301   -1.1366   -0.6381 H   0  0  0  0  0  0  0  0  0  0  0  0
    3.0400    1.3627   -0.9503 H   0  0  0  0  0  0  0  0  0  0  0  0
    2.5847    2.3401    0.4319 H   0  0  0  0  0  0  0  0  0  0  0  0
    1.4877   -2.7052   -0.8984 H   0  0  0  0  0  0  0  0  0  0  0  0
    1.0006   -1.1157   -1.3797 H   0  0  0  0  0  0  0  0  0  0  0  0
    0.6537    0.8427   -1.3857 H   0  0  0  0  0  0  0  0  0  0  0  0
    0.9935    2.5394   -1.4152 H   0  0  0  0  0  0  0  0  0  0  0  0
    0.0207   -0.9741    1.1378 H   0  0  0  0  0  0  0  0  0  0  0  0
    0.2829   -2.7015    1.1210 H   0  0  0  0  0  0  0  0  0  0  0  0
   -0.0903    3.0190    0.5776 H   0  0  0  0  0  0  0  0  0  0  0  0
   -0.0499    1.3789    1.1935 H   0  0  0  0  0  0  0  0  0  0  0  0
   -1.9854   -2.3755    0.5234 H   0  0  0  0  0  0  0  0  0  0  0  0
   -1.1711   -2.8521   -0.9604 H   0  0  0  0  0  0  0  0  0  0  0  0
   -1.6248    1.8921   -1.3741 H   0  0  0  0  0  0  0  0  0  0  0  0
   -2.2794    2.4414    0.1595 H   0  0  0  0  0  0  0  0  0  0  0  0
   -2.7475   -1.0275   -1.4219 H   0  0  0  0  0  0  0  0  0  0  0  0
   -1.1173   -0.4502   -1.7041 H   0  0  0  0  0  0  0  0  0  0  0  0
  1 12  2  0  0  0  0
  2  3  1  0  0  0  0
  2  4  1  0  0  0  0
  2 13  1  0  0  0  0
  2 14  1  0  0  0  0
  3  5  1  0  0  0  0
  3 15  1  0  0  0  0
  3 16  1  0  0  0  0
  4  6  1  0  0  0  0
  4 17  1  0  0  0  0
  4 18  1  0  0  0  0
  5  7  1  0  0  0  0
  5 19  1  0  0  0  0
  5 20  1  0  0  0  0
  6  8  1  0  0  0  0
  6 21  1  0  0  0  0
  6 22  1  0  0  0  0
  7  9  1  0  0  0  0
  7 23  1  0  0  0  0
  7 24  1  0  0  0  0
  8 10  1  0  0  0  0
  8 25  1  0  0  0  0
  8 26  1  0  0  0  0
  9 11  1  0  0  0  0
  9 27  1  0  0  0  0
  9 28  1  0  0  0  0
 10 12  1  0  0  0  0
 10 29  1  0  0  0  0
 10 30  1  0  0  0  0
 11 12  1  0  0  0  0
 11 31  1  0  0  0  0
 11 32  1  0  0  0  0
M  END
> <PUBCHEM_COMPOUND_CID>
13420

> <PUBCHEM_CONFORMER_RMSD>
0.6

> <PUBCHEM_CONFORMER_DIVERSEORDER>
1
21
15
18
6
12
20
14
16
17
22
8
3
10
2
5
13
9
19
7
4
11

> <PUBCHEM_MMFF94_PARTIAL_CHARGES>
4
1 -0.57
10 0.06
11 0.06
12 0.45

> <PUBCHEM_EFFECTIVE_ROTOR_COUNT>
2

> <PUBCHEM_PHARMACOPHORE_FEATURES>
1
1 1 acceptor

> <PUBCHEM_HEAVY_ATOM_COUNT>
12

> <PUBCHEM_ATOM_DEF_STEREO_COUNT>
0

> <PUBCHEM_ATOM_UDEF_STEREO_COUNT>
0

> <PUBCHEM_BOND_DEF_STEREO_COUNT>
0

> <PUBCHEM_BOND_UDEF_STEREO_COUNT>
0

> <PUBCHEM_ISOTOPIC_ATOM_COUNT>
0

> <PUBCHEM_COMPONENT_COUNT>
1

> <PUBCHEM_CACTVS_TAUTO_COUNT>
2

> <PUBCHEM_CONFORMER_ID>
0000346C00000001

> <PUBCHEM_MMFF94_ENERGY>
15.2644

> <PUBCHEM_FEATURE_SELFOVERLAP>
5.074

> <PUBCHEM_SHAPE_FINGERPRINT>
12382932 28 18340763840299599552
12696612 119 18335988631172113102
14251711 518 18265885857070844275
14251717 144 18411413995577876453
14251745 187 18200610154528229302
15775835 57 18272937149709400912
16945 1 18411415090245949718
19930374 2 17683492101822812560
19973954 147 18338514252489328894
22802520 49 18128277703821063686
241688 4 17977104565711591760
2748010 2 17906449931177914590
2897 32 18408884048838677684
528862 383 18261402182049642777
66348 1 17690277106061703628

> <PUBCHEM_SHAPE_MULTIPOLES>
241.09
3.8
2.69
0.91
0.47
0.08
-0.03
-0.09
-0.51
0.12
0.24
-0.16
0
-0.18

> <PUBCHEM_SHAPE_SELFOVERLAP>
454.857

> <PUBCHEM_SHAPE_VOLUME>
148.2

> <PUBCHEM_COORDINATE_TYPE>
2
5
10

$$$$
