80549
  -OEChem-11012401213D

 16 16  0     0  0  0  0  0  0999 V2000
    1.2474   -1.5005    0.3060 S   0  0  0  0  0  0  0  0  0  0  0  0
    1.2474    1.5005    0.3059 S   0  0  0  0  0  0  0  0  0  0  0  0
   -1.0736    0.0000    0.2830 N   0  0  0  0  0  0  0  0  0  0  0  0
   -0.4597   -1.2178   -0.2657 C   0  0  0  0  0  0  0  0  0  0  0  0
   -0.4596    1.2179   -0.2656 C   0  0  0  0  0  0  0  0  0  0  0  0
    2.0091    0.0000   -0.3577 C   0  0  0  0  0  0  0  0  0  0  0  0
   -2.5110    0.0000   -0.0060 C   0  0  0  0  0  0  0  0  0  0  0  0
   -1.0218   -2.0952    0.0740 H   0  0  0  0  0  0  0  0  0  0  0  0
   -0.4802   -1.2298   -1.3623 H   0  0  0  0  0  0  0  0  0  0  0  0
   -0.4803    1.2299   -1.3622 H   0  0  0  0  0  0  0  0  0  0  0  0
   -1.0217    2.0952    0.0743 H   0  0  0  0  0  0  0  0  0  0  0  0
    3.0674    0.0000   -0.0818 H   0  0  0  0  0  0  0  0  0  0  0  0
    1.9536    0.0000   -1.4505 H   0  0  0  0  0  0  0  0  0  0  0  0
   -2.9942   -0.8774    0.4383 H   0  0  0  0  0  0  0  0  0  0  0  0
   -2.7158    0.0001   -1.0828 H   0  0  0  0  0  0  0  0  0  0  0  0
   -2.9942    0.8775    0.4383 H   0  0  0  0  0  0  0  0  0  0  0  0
  1  4  1  0  0  0  0
  1  6  1  0  0  0  0
  2  5  1  0  0  0  0
  2  6  1  0  0  0  0
  3  4  1  0  0  0  0
  3  5  1  0  0  0  0
  3  7  1  0  0  0  0
  4  8  1  0  0  0  0
  4  9  1  0  0  0  0
  5 10  1  0  0  0  0
  5 11  1  0  0  0  0
  6 12  1  0  0  0  0
  6 13  1  0  0  0  0
  7 14  1  0  0  0  0
  7 15  1  0  0  0  0
  7 16  1  0  0  0  0
M  END
> <PUBCHEM_COMPOUND_CID>
80549

> <PUBCHEM_CONFORMER_RMSD>
0.4

> <PUBCHEM_CONFORMER_DIVERSEORDER>
1
2
3

> <PUBCHEM_MMFF94_PARTIAL_CHARGES>
7
1 -0.46
2 -0.46
3 -0.81
4 0.5
5 0.5
6 0.46
7 0.27

> <PUBCHEM_EFFECTIVE_ROTOR_COUNT>
1.2

> <PUBCHEM_PHARMACOPHORE_FEATURES>
2
1 3 cation
6 1 2 3 4 5 6 rings

> <PUBCHEM_HEAVY_ATOM_COUNT>
7

> <PUBCHEM_ATOM_DEF_STEREO_COUNT>
0

> <PUBCHEM_ATOM_UDEF_STEREO_COUNT>
0

> <PUBCHEM_BOND_DEF_STEREO_COUNT>
0

> <PUBCHEM_BOND_UDEF_STEREO_COUNT>
0

> <PUBCHEM_ISOTOPIC_ATOM_COUNT>
0

> <PUBCHEM_COMPONENT_COUNT>
1

> <PUBCHEM_CACTVS_TAUTO_COUNT>
1

> <PUBCHEM_CONFORMER_ID>
00013AA500000001

> <PUBCHEM_MMFF94_ENERGY>
13.1591

> <PUBCHEM_FEATURE_SELFOVERLAP>
10.148

> <PUBCHEM_SHAPE_FINGERPRINT>
16714656 1 18410864256474378750
18185500 45 18411416176893949894
20096714 4 18340207487389499442
21040471 1 18122063375421739980
23552423 10 18335422408448149183
23552449 11 18410847737961671003
29004967 10 18187091654120935233

> <PUBCHEM_SHAPE_MULTIPOLES>
146.77
2.77
1.8
0.71
1.13
0
0.01
0
-0.03
-0.67
0.11
-0.09
0
0

> <PUBCHEM_SHAPE_SELFOVERLAP>
249.385

> <PUBCHEM_SHAPE_VOLUME>
98.3

> <PUBCHEM_COORDINATE_TYPE>
2
5
10

$$$$
