520496
  -OEChem-11012401253D

 15 14  0     0  0  0  0  0  0999 V2000
   -2.3911   -1.6564    0.5452 Cl  0  0  0  0  0  0  0  0  0  0  0  0
   -3.1285    0.7755   -0.8826 Cl  0  0  0  0  0  0  0  0  0  0  0  0
    0.4849   -0.2644   -0.1354 O   0  0  0  0  0  0  0  0  0  0  0  0
   -0.8224    1.3156    0.9152 O   0  0  0  0  0  0  0  0  0  0  0  0
    1.6503    0.2936    0.4803 C   0  0  0  0  0  0  0  0  0  0  0  0
   -0.6971    0.3507    0.1725 C   0  0  0  0  0  0  0  0  0  0  0  0
   -1.8233   -0.3666   -0.5232 C   0  0  0  0  0  0  0  0  0  0  0  0
    2.8446   -0.4878    0.0431 C   0  0  0  0  0  0  0  0  0  0  0  0
    3.8826    0.0399   -0.6151 C   0  0  0  0  0  0  0  0  0  0  0  0
    1.7392    1.3496    0.1991 H   0  0  0  0  0  0  0  0  0  0  0  0
    1.5547    0.2208    1.5697 H   0  0  0  0  0  0  0  0  0  0  0  0
   -1.4859   -0.7955   -1.4710 H   0  0  0  0  0  0  0  0  0  0  0  0
    2.8636   -1.5477    0.2828 H   0  0  0  0  0  0  0  0  0  0  0  0
    4.7230   -0.5818   -0.9038 H   0  0  0  0  0  0  0  0  0  0  0  0
    3.9138    1.0917   -0.8766 H   0  0  0  0  0  0  0  0  0  0  0  0
  1  7  1  0  0  0  0
  2  7  1  0  0  0  0
  3  5  1  0  0  0  0
  3  6  1  0  0  0  0
  4  6  2  0  0  0  0
  5  8  1  0  0  0  0
  5 10  1  0  0  0  0
  5 11  1  0  0  0  0
  6  7  1  0  0  0  0
  7 12  1  0  0  0  0
  8  9  2  0  0  0  0
  8 13  1  0  0  0  0
  9 14  1  0  0  0  0
  9 15  1  0  0  0  0
M  END
> <PUBCHEM_COMPOUND_CID>
520496

> <PUBCHEM_CONFORMER_RMSD>
0.6

> <PUBCHEM_CONFORMER_DIVERSEORDER>
1
40
26
31
15
35
18
28
41
29
14
11
37
32
3
36
5
24
38
39
2
19
16
17
33
9
25
21
22
10
6
27
7
23
12
13
34
8
4
20
30

> <PUBCHEM_MMFF94_PARTIAL_CHARGES>
12
1 -0.29
13 0.15
14 0.15
15 0.15
2 -0.29
3 -0.43
4 -0.57
5 0.42
6 0.66
7 0.64
8 -0.29
9 -0.3

> <PUBCHEM_EFFECTIVE_ROTOR_COUNT>
4

> <PUBCHEM_PHARMACOPHORE_FEATURES>
2
1 4 acceptor
1 9 hydrophobe

> <PUBCHEM_HEAVY_ATOM_COUNT>
9

> <PUBCHEM_ATOM_DEF_STEREO_COUNT>
0

> <PUBCHEM_ATOM_UDEF_STEREO_COUNT>
0

> <PUBCHEM_BOND_DEF_STEREO_COUNT>
0

> <PUBCHEM_BOND_UDEF_STEREO_COUNT>
0

> <PUBCHEM_ISOTOPIC_ATOM_COUNT>
0

> <PUBCHEM_COMPONENT_COUNT>
1

> <PUBCHEM_CACTVS_TAUTO_COUNT>
1

> <PUBCHEM_CONFORMER_ID>
0007F13000000001

> <PUBCHEM_MMFF94_ENERGY>
8.7286

> <PUBCHEM_FEATURE_SELFOVERLAP>
10.148

> <PUBCHEM_SHAPE_FINGERPRINT>
11062470 55 17676204654432920948
12897270 3 18413386536217075022
12932741 1 18341884233958057416
12932764 1 17385996278190087344
14325111 11 18113898269156723062
14390081 3 14634867548412316678
20211469 26 14620787206670252181
20279233 1 17917421038889352014
20281407 28 17489868245715326302
20653085 51 17385726880730037013
20711985 344 17986949661267035673
21061003 4 18059304274047639755
3248919 1 18342459201646691146
528716 315 18408893948812122022

> <PUBCHEM_SHAPE_MULTIPOLES>
177.22
6.09
1.25
0.91
4.26
0.37
-0.04
0.14
1.65
-1.24
-0.15
-0.15
-0.17
0.28

> <PUBCHEM_SHAPE_SELFOVERLAP>
313.979

> <PUBCHEM_SHAPE_VOLUME>
115.7

> <PUBCHEM_COORDINATE_TYPE>
2
5
10

$$$$
