912020
  -OEChem-11012400423D

 29 30  0     0  0  0  0  0  0999 V2000
   -6.3505    0.3314    0.4670 Cl  0  0  0  0  0  0  0  0  0  0  0  0
    2.9989    2.8301   -0.2416 O   0  5  0  0  0  0  0  0  0  0  0  0
    0.9780    2.1077    0.2200 O   0  0  0  0  0  0  0  0  0  0  0  0
    2.2051    1.9098    0.0628 N   0  3  0  0  0  0  0  0  0  0  0  0
    0.4080   -1.0876   -2.5804 N   0  0  0  0  0  0  0  0  0  0  0  0
    1.8517   -0.4688    0.5798 C   0  0  0  0  0  0  0  0  0  0  0  0
   -1.9084   -0.2542   -0.0532 C   0  0  0  0  0  0  0  0  0  0  0  0
    2.7158    0.5920    0.2360 C   0  0  0  0  0  0  0  0  0  0  0  0
    0.4467   -0.2921    0.7710 C   0  0  0  0  0  0  0  0  0  0  0  0
   -0.4756   -0.4424   -0.2199 C   0  0  0  0  0  0  0  0  0  0  0  0
    2.4132   -1.7515    0.7391 C   0  0  0  0  0  0  0  0  0  0  0  0
    4.0827    0.3775    0.0592 C   0  0  0  0  0  0  0  0  0  0  0  0
   -2.7175   -1.3337    0.3011 C   0  0  0  0  0  0  0  0  0  0  0  0
   -2.4730    1.0064   -0.2466 C   0  0  0  0  0  0  0  0  0  0  0  0
    3.7801   -1.9660    0.5625 C   0  0  0  0  0  0  0  0  0  0  0  0
    4.6148   -0.9015    0.2226 C   0  0  0  0  0  0  0  0  0  0  0  0
   -4.0912   -1.1527    0.4619 C   0  0  0  0  0  0  0  0  0  0  0  0
   -3.8467    1.1876   -0.0858 C   0  0  0  0  0  0  0  0  0  0  0  0
   -4.6558    0.1080    0.2683 C   0  0  0  0  0  0  0  0  0  0  0  0
    0.0238   -0.8001   -1.5238 C   0  0  0  0  0  0  0  0  0  0  0  0
    0.1253   -0.0298    1.7764 H   0  0  0  0  0  0  0  0  0  0  0  0
    1.7822   -2.5976    1.0054 H   0  0  0  0  0  0  0  0  0  0  0  0
    4.7677    1.1789   -0.2058 H   0  0  0  0  0  0  0  0  0  0  0  0
   -2.2928   -2.3228    0.4561 H   0  0  0  0  0  0  0  0  0  0  0  0
   -1.8580    1.8587   -0.5247 H   0  0  0  0  0  0  0  0  0  0  0  0
    4.1946   -2.9618    0.6898 H   0  0  0  0  0  0  0  0  0  0  0  0
    5.6791   -1.0691    0.0851 H   0  0  0  0  0  0  0  0  0  0  0  0
   -4.7094   -2.0029    0.7383 H   0  0  0  0  0  0  0  0  0  0  0  0
   -4.2730    2.1756   -0.2401 H   0  0  0  0  0  0  0  0  0  0  0  0
  1 19  1  0  0  0  0
  2  4  1  0  0  0  0
  3  4  2  0  0  0  0
  4  8  1  0  0  0  0
  5 20  3  0  0  0  0
  6  8  1  0  0  0  0
  6  9  1  0  0  0  0
  6 11  2  0  0  0  0
  7 10  1  0  0  0  0
  7 13  2  0  0  0  0
  7 14  1  0  0  0  0
  8 12  2  0  0  0  0
  9 10  2  0  0  0  0
  9 21  1  0  0  0  0
 10 20  1  0  0  0  0
 11 15  1  0  0  0  0
 11 22  1  0  0  0  0
 12 16  1  0  0  0  0
 12 23  1  0  0  0  0
 13 17  1  0  0  0  0
 13 24  1  0  0  0  0
 14 18  2  0  0  0  0
 14 25  1  0  0  0  0
 15 16  2  0  0  0  0
 15 26  1  0  0  0  0
 16 27  1  0  0  0  0
 17 19  2  0  0  0  0
 17 28  1  0  0  0  0
 18 19  1  0  0  0  0
 18 29  1  0  0  0  0
M  CHG  2   2  -1   4   1
M  END
> <PUBCHEM_COMPOUND_CID>
912020

> <PUBCHEM_CONFORMER_RMSD>
0.6

> <PUBCHEM_CONFORMER_DIVERSEORDER>
1
4
2
3

> <PUBCHEM_MMFF94_PARTIAL_CHARGES>
29
1 -0.18
10 0.04
11 -0.15
12 -0.15
13 -0.15
14 -0.15
15 -0.15
16 -0.15
17 -0.15
18 -0.15
19 0.18
2 -0.52
20 0.49
21 0.15
22 0.15
23 0.15
24 0.15
25 0.15
26 0.15
27 0.15
28 0.15
29 0.15
3 -0.52
4 0.91
5 -0.56
6 0.03
7 0.03
8 0.13
9 -0.18

> <PUBCHEM_EFFECTIVE_ROTOR_COUNT>
3

> <PUBCHEM_PHARMACOPHORE_FEATURES>
6
1 2 acceptor
1 2 anion
1 3 acceptor
1 5 acceptor
6 6 8 11 12 15 16 rings
6 7 13 14 17 18 19 rings

> <PUBCHEM_HEAVY_ATOM_COUNT>
20

> <PUBCHEM_ATOM_DEF_STEREO_COUNT>
0

> <PUBCHEM_ATOM_UDEF_STEREO_COUNT>
0

> <PUBCHEM_BOND_DEF_STEREO_COUNT>
1

> <PUBCHEM_BOND_UDEF_STEREO_COUNT>
0

> <PUBCHEM_ISOTOPIC_ATOM_COUNT>
0

> <PUBCHEM_COMPONENT_COUNT>
1

> <PUBCHEM_CACTVS_TAUTO_COUNT>
1

> <PUBCHEM_CONFORMER_ID>
000DEA9400000001

> <PUBCHEM_MMFF94_ENERGY>
70.3691

> <PUBCHEM_FEATURE_SELFOVERLAP>
30.528

> <PUBCHEM_SHAPE_FINGERPRINT>
10366900 7 17386009442518044697
11045977 3 18186242848814752507
12107183 9 17615685138033034683
12236239 1 18060698403352304810
12251169 10 18411135831625480911
12403259 415 17821721720414635013
12507557 5 18411979148380334241
12507560 40 18186515488911885725
12592029 89 18060142011481992415
12633257 1 18408316683727707963
13533116 47 18114179705784969515
13583140 156 18261381231441974319
14289901 80 18337105786668037683
14341114 176 18408609145320062169
15196674 1 18337110167808934009
17349148 13 17775564217674199587
18186145 218 17676196983537005731
18785283 64 17968938729540076468
21033648 144 18270103725883823653
21033648 29 17531512231812292677
21065198 57 18334575750456926211
21267235 1 18337958883437878914
221490 88 18261680375566052562
23402539 116 18271516534243338951
23557571 272 17313100822596765965
23559900 14 18335135405885621011
3286 77 18040428898015193258
34934 24 18129936901474977192
351380 180 18410571782424033115
3545911 37 18408322185548801689
4214541 1 18335419037320815049
465052 167 18342461430376359551
5104073 3 18336265738567764475
77779 3 18335420175176081067
8272917 22 18412267216000189514
9709674 26 18188493591797918891
9999458 23 18260548930877535814

> <PUBCHEM_SHAPE_MULTIPOLES>
391.76
10.81
2.04
1.13
9.96
1.04
0.86
-0.28
-2.5
-1.94
-0.11
-0.17
-0.43
-0.16

> <PUBCHEM_SHAPE_SELFOVERLAP>
841.293

> <PUBCHEM_SHAPE_VOLUME>
216.3

> <PUBCHEM_COORDINATE_TYPE>
2
5
10

$$$$
