9576965
  -OEChem-11012401143D

 27 26  0     0  0  0  0  0  0999 V2000
   -3.2561    1.3102    0.3517 O   0  0  0  0  0  0  0  0  0  0  0  0
   -2.0407    1.2807   -0.3331 N   0  0  0  0  0  0  0  0  0  0  0  0
    1.0508    0.2231    0.1689 C   0  0  0  0  0  0  0  0  0  0  0  0
    2.4186   -0.1599   -0.3966 C   0  0  0  0  0  0  0  0  0  0  0  0
   -0.0766   -0.2049   -0.7674 C   0  0  0  0  0  0  0  0  0  0  0  0
    3.5455    0.2381    0.5563 C   0  0  0  0  0  0  0  0  0  0  0  0
   -1.4264    0.1489   -0.1650 C   0  0  0  0  0  0  0  0  0  0  0  0
   -2.1012   -0.8959    0.7036 C   0  0  0  0  0  0  0  0  0  0  0  0
    4.9051   -0.1711    0.0128 C   0  0  0  0  0  0  0  0  0  0  0  0
   -3.0191   -1.7693   -0.1312 C   0  0  0  0  0  0  0  0  0  0  0  0
    1.0046    1.3072    0.3312 H   0  0  0  0  0  0  0  0  0  0  0  0
    0.9128   -0.2451    1.1514 H   0  0  0  0  0  0  0  0  0  0  0  0
    2.5661    0.3290   -1.3672 H   0  0  0  0  0  0  0  0  0  0  0  0
    2.4525   -1.2423   -0.5713 H   0  0  0  0  0  0  0  0  0  0  0  0
   -0.0400   -1.2824   -0.9598 H   0  0  0  0  0  0  0  0  0  0  0  0
    0.0138    0.3108   -1.7301 H   0  0  0  0  0  0  0  0  0  0  0  0
    3.3929   -0.2359    1.5330 H   0  0  0  0  0  0  0  0  0  0  0  0
    3.5321    1.3225    0.7162 H   0  0  0  0  0  0  0  0  0  0  0  0
   -1.3166   -1.5282    1.1371 H   0  0  0  0  0  0  0  0  0  0  0  0
   -2.6283   -0.4636    1.5591 H   0  0  0  0  0  0  0  0  0  0  0  0
    5.6962    0.1243    0.7091 H   0  0  0  0  0  0  0  0  0  0  0  0
    5.1033    0.3096   -0.9506 H   0  0  0  0  0  0  0  0  0  0  0  0
    4.9622   -1.2555   -0.1259 H   0  0  0  0  0  0  0  0  0  0  0  0
   -3.4560   -2.5605    0.4859 H   0  0  0  0  0  0  0  0  0  0  0  0
   -2.4741   -2.2419   -0.9551 H   0  0  0  0  0  0  0  0  0  0  0  0
   -3.8369   -1.1868   -0.5673 H   0  0  0  0  0  0  0  0  0  0  0  0
   -3.5842    2.1979    0.1298 H   0  0  0  0  0  0  0  0  0  0  0  0
  1  2  1  0  0  0  0
  1 27  1  0  0  0  0
  2  7  2  0  0  0  0
  3  4  1  0  0  0  0
  3  5  1  0  0  0  0
  3 11  1  0  0  0  0
  3 12  1  0  0  0  0
  4  6  1  0  0  0  0
  4 13  1  0  0  0  0
  4 14  1  0  0  0  0
  5  7  1  0  0  0  0
  5 15  1  0  0  0  0
  5 16  1  0  0  0  0
  6  9  1  0  0  0  0
  6 17  1  0  0  0  0
  6 18  1  0  0  0  0
  7  8  1  0  0  0  0
  8 10  1  0  0  0  0
  8 19  1  0  0  0  0
  8 20  1  0  0  0  0
  9 21  1  0  0  0  0
  9 22  1  0  0  0  0
  9 23  1  0  0  0  0
 10 24  1  0  0  0  0
 10 25  1  0  0  0  0
 10 26  1  0  0  0  0
M  END
> <PUBCHEM_COMPOUND_CID>
9576965

> <PUBCHEM_CONFORMER_RMSD>
0.6

> <PUBCHEM_CONFORMER_DIVERSEORDER>
2
83
87
86
70
82
73
91
76
4
89
98
77
101
5
92
90
44
7
84
40
59
97
11
27
34
17
71
102
95
78
1
72
15
80
62
93
29
67
8
74
56
68
58
28
21
75
51
14
79
88
60
10
13
96
94
63
41
100
57
55
99
54
52
48
24
9
81
35
85
19
12
50
26
22
49
32
42
45
6
20
39
36
53
66
30
33
3
61
18
69
64
46
16
65
43
47
38
23
37
25
31

> <PUBCHEM_MMFF94_PARTIAL_CHARGES>
6
1 -0.34
2 -0.51
27 0.4
5 0.06
7 0.33
8 0.06

> <PUBCHEM_EFFECTIVE_ROTOR_COUNT>
5

> <PUBCHEM_PHARMACOPHORE_FEATURES>
5
1 1 anion
1 10 hydrophobe
1 2 acceptor
1 9 hydrophobe
4 3 4 5 6 hydrophobe

> <PUBCHEM_HEAVY_ATOM_COUNT>
10

> <PUBCHEM_ATOM_DEF_STEREO_COUNT>
0

> <PUBCHEM_ATOM_UDEF_STEREO_COUNT>
0

> <PUBCHEM_BOND_DEF_STEREO_COUNT>
1

> <PUBCHEM_BOND_UDEF_STEREO_COUNT>
0

> <PUBCHEM_ISOTOPIC_ATOM_COUNT>
0

> <PUBCHEM_COMPONENT_COUNT>
1

> <PUBCHEM_CACTVS_TAUTO_COUNT>
2

> <PUBCHEM_CONFORMER_ID>
0092220500000002

> <PUBCHEM_MMFF94_ENERGY>
8.8035

> <PUBCHEM_FEATURE_SELFOVERLAP>
25.372

> <PUBCHEM_SHAPE_FINGERPRINT>
12932764 1 17095232614785071028
14325111 11 18410009940498405494
190213 19 17418095421242028746
1986462 14 18410294709641166358
20211469 26 18041554844691909510
20279233 1 18060424594707516870
20645464 45 18202007611715123719
20645477 56 18339083692169885517
20645477 70 14129599061874623728
20711985 327 17385446535714561654
20828058 21 18413112779755583446
20828058 44 18408039602882050122
22485316 2 18334855005141318450
23380061 127 18409726279014128018
23402539 116 18341604933025953143
23500284 214 18130233640438540385
3086196 2 18338799030448689123
3248919 1 17603873320749503222

> <PUBCHEM_SHAPE_MULTIPOLES>
194.94
7.96
1.29
0.79
8.09
0.07
0
0.73
-0.87
-1.82
-0.02
0
0.04
0.06

> <PUBCHEM_SHAPE_SELFOVERLAP>
350.516

> <PUBCHEM_SHAPE_VOLUME>
126.9

> <PUBCHEM_COORDINATE_TYPE>
2
5
10

$$$$
