15414
  -OEChem-11012400313D

 30 31  0     0  0  0  0  0  0999 V2000
   -1.7018   -0.2772   -0.9123 C   0  0  0  0  0  0  0  0  0  0  0  0
   -2.6313    0.0526    0.2624 C   0  0  0  0  0  0  0  0  0  0  0  0
   -0.3559   -0.7442   -0.4501 C   0  0  0  0  0  0  0  0  0  0  0  0
    0.7053    0.1481   -0.2259 C   0  0  0  0  0  0  0  0  0  0  0  0
   -4.0136    0.4910   -0.2206 C   0  0  0  0  0  0  0  0  0  0  0  0
    1.9532   -0.3568    0.2108 C   0  0  0  0  0  0  0  0  0  0  0  0
   -0.1892   -2.1145   -0.2470 C   0  0  0  0  0  0  0  0  0  0  0  0
    0.5555    1.5301   -0.4253 C   0  0  0  0  0  0  0  0  0  0  0  0
    2.1031   -1.7389    0.4106 C   0  0  0  0  0  0  0  0  0  0  0  0
    1.0380   -2.6109    0.1828 C   0  0  0  0  0  0  0  0  0  0  0  0
   -4.9463    0.7783    0.9453 C   0  0  0  0  0  0  0  0  0  0  0  0
    3.0144    0.5352    0.4353 C   0  0  0  0  0  0  0  0  0  0  0  0
    1.6207    2.4018   -0.1977 C   0  0  0  0  0  0  0  0  0  0  0  0
    2.8479    1.9053    0.2317 C   0  0  0  0  0  0  0  0  0  0  0  0
   -1.6297    0.5634   -1.6105 H   0  0  0  0  0  0  0  0  0  0  0  0
   -2.1655   -1.0722   -1.5135 H   0  0  0  0  0  0  0  0  0  0  0  0
   -2.1911    0.8468    0.8780 H   0  0  0  0  0  0  0  0  0  0  0  0
   -2.7342   -0.8265    0.9114 H   0  0  0  0  0  0  0  0  0  0  0  0
   -3.9224    1.3903   -0.8406 H   0  0  0  0  0  0  0  0  0  0  0  0
   -4.4552   -0.2925   -0.8474 H   0  0  0  0  0  0  0  0  0  0  0  0
   -1.0084   -2.8087   -0.4163 H   0  0  0  0  0  0  0  0  0  0  0  0
   -0.3802    1.9786   -0.7444 H   0  0  0  0  0  0  0  0  0  0  0  0
    3.0533   -2.1491    0.7464 H   0  0  0  0  0  0  0  0  0  0  0  0
    1.1671   -3.6775    0.3420 H   0  0  0  0  0  0  0  0  0  0  0  0
   -4.5489    1.5792    1.5771 H   0  0  0  0  0  0  0  0  0  0  0  0
   -5.0849   -0.1127    1.5659 H   0  0  0  0  0  0  0  0  0  0  0  0
   -5.9281    1.0917    0.5769 H   0  0  0  0  0  0  0  0  0  0  0  0
    3.9824    0.1693    0.7716 H   0  0  0  0  0  0  0  0  0  0  0  0
    1.4913    3.4692   -0.3522 H   0  0  0  0  0  0  0  0  0  0  0  0
    3.6765    2.5846    0.4097 H   0  0  0  0  0  0  0  0  0  0  0  0
  1  2  1  0  0  0  0
  1  3  1  0  0  0  0
  1 15  1  0  0  0  0
  1 16  1  0  0  0  0
  2  5  1  0  0  0  0
  2 17  1  0  0  0  0
  2 18  1  0  0  0  0
  3  4  1  0  0  0  0
  3  7  2  0  0  0  0
  4  6  1  0  0  0  0
  4  8  2  0  0  0  0
  5 11  1  0  0  0  0
  5 19  1  0  0  0  0
  5 20  1  0  0  0  0
  6  9  1  0  0  0  0
  6 12  2  0  0  0  0
  7 10  1  0  0  0  0
  7 21  1  0  0  0  0
  8 13  1  0  0  0  0
  8 22  1  0  0  0  0
  9 10  2  0  0  0  0
  9 23  1  0  0  0  0
 10 24  1  0  0  0  0
 11 25  1  0  0  0  0
 11 26  1  0  0  0  0
 11 27  1  0  0  0  0
 12 14  1  0  0  0  0
 12 28  1  0  0  0  0
 13 14  2  0  0  0  0
 13 29  1  0  0  0  0
 14 30  1  0  0  0  0
M  END
> <PUBCHEM_COMPOUND_CID>
15414

> <PUBCHEM_CONFORMER_RMSD>
0.6

> <PUBCHEM_CONFORMER_DIVERSEORDER>
2
6
7
3
4
1
5

> <PUBCHEM_MMFF94_PARTIAL_CHARGES>
16
1 0.14
10 -0.15
12 -0.15
13 -0.15
14 -0.15
21 0.15
22 0.15
23 0.15
24 0.15
28 0.15
29 0.15
3 -0.14
30 0.15
7 -0.15
8 -0.15
9 -0.15

> <PUBCHEM_EFFECTIVE_ROTOR_COUNT>
3

> <PUBCHEM_PHARMACOPHORE_FEATURES>
3
1 11 hydrophobe
6 3 4 6 7 9 10 rings
6 4 6 8 12 13 14 rings

> <PUBCHEM_HEAVY_ATOM_COUNT>
14

> <PUBCHEM_ATOM_DEF_STEREO_COUNT>
0

> <PUBCHEM_ATOM_UDEF_STEREO_COUNT>
0

> <PUBCHEM_BOND_DEF_STEREO_COUNT>
0

> <PUBCHEM_BOND_UDEF_STEREO_COUNT>
0

> <PUBCHEM_ISOTOPIC_ATOM_COUNT>
0

> <PUBCHEM_COMPONENT_COUNT>
1

> <PUBCHEM_CACTVS_TAUTO_COUNT>
1

> <PUBCHEM_CONFORMER_ID>
00003C3600000002

> <PUBCHEM_MMFF94_ENERGY>
33.7303

> <PUBCHEM_FEATURE_SELFOVERLAP>
15.249

> <PUBCHEM_SHAPE_FINGERPRINT>
10382601 240 18333724719777461304
10465860 228 18341899571528909897
10493431 412 18266175226440239504
10967382 1 18410005529203021732
10980938 120 18409725153790627909
11471102 20 18409441462637172885
11471102 22 18261116240285760945
12346645 6 18411417293474521279
12390115 104 17978525448289162892
12644460 14 18334296439774415826
13140716 1 18264478654476184338
13380536 305 18410862057451318150
14790565 3 18408893944924168220
15442244 35 18052257297998785193
15501101 241 18187083910468954583
15502708 68 18409162220927385447
15775835 57 18130788992563029793
15906896 17 17840303646542874022
16945 1 18263907939132279342
18186145 218 18342174475147655165
19049666 15 17679009405853831037
193761 8 17762044451037446204
20157964 124 18339075987879453309
20510252 161 17475794728639086112
20559304 39 18340209579096672865
20645477 70 18336533916531623367
20871998 22 17981041916824888038
21041028 32 18122903127316521744
21524375 3 18199184164860775997
21639500 275 18338496608932047181
21665062 11 18410582751523035577
22854114 111 18411419505762597161
2334 1 17903626733526608892
23557571 272 13901892424529408649
23558518 356 17902229249910968834
25 1 18410291449618511892
2748010 2 18119803857984418670
276578 36 18413392059260246049
293599 30 18336833108175031492
3060560 45 18202004274478510710
474 4 18411136969929074945
49207404 50 18189351211173117067
6333272 397 18338799034827851051
7364860 26 18342178821412023903
77492 1 17846202355127801487
7832392 63 18343016739598473814
81228 2 17253701089263118130
8272917 22 18340493270656088991

> <PUBCHEM_SHAPE_MULTIPOLES>
288.11
6.37
2.61
0.82
9.69
0.56
0
-2.97
1.9
-2.17
0.03
0.35
-0.03
-0.37

> <PUBCHEM_SHAPE_SELFOVERLAP>
610.546

> <PUBCHEM_SHAPE_VOLUME>
154.1

> <PUBCHEM_COORDINATE_TYPE>
2
5
10

$$$$
