137431
  -OEChem-11012401203D

 23 22  0     1  0  0  0  0  0999 V2000
    2.1631    0.3728   -1.4080 O   0  0  0  0  0  0  0  0  0  0  0  0
   -2.4620    1.1387   -0.6775 O   0  0  0  0  0  0  0  0  0  0  0  0
    2.7892   -0.5921    0.5416 O   0  0  0  0  0  0  0  0  0  0  0  0
   -2.6446   -0.6992    0.6370 O   0  0  0  0  0  0  0  0  0  0  0  0
    0.5176    0.3067    0.3461 C   0  0  0  0  0  0  0  0  0  0  0  0
   -0.5638   -0.3315   -0.5797 C   0  0  1  0  0  0  0  0  0  0  0  0
    0.3194   -0.1395    1.8115 C   0  0  0  0  0  0  0  0  0  0  0  0
    0.3875    1.8471    0.3416 C   0  0  0  0  0  0  0  0  0  0  0  0
   -0.4526   -1.8536   -0.7440 C   0  0  0  0  0  0  0  0  0  0  0  0
    1.9325   -0.0392   -0.1366 C   0  0  0  0  0  0  0  0  0  0  0  0
   -1.9862   -0.0100   -0.1320 C   0  0  0  0  0  0  0  0  0  0  0  0
   -0.4544    0.0828   -1.5922 H   0  0  0  0  0  0  0  0  0  0  0  0
   -0.6539    0.1600    2.2128 H   0  0  0  0  0  0  0  0  0  0  0  0
    0.4149   -1.2250    1.9178 H   0  0  0  0  0  0  0  0  0  0  0  0
    1.0850    0.3054    2.4592 H   0  0  0  0  0  0  0  0  0  0  0  0
   -0.5287    2.1862    0.8363 H   0  0  0  0  0  0  0  0  0  0  0  0
    0.3852    2.2442   -0.6799 H   0  0  0  0  0  0  0  0  0  0  0  0
    1.2321    2.3120    0.8644 H   0  0  0  0  0  0  0  0  0  0  0  0
    0.5149   -2.1380   -1.1691 H   0  0  0  0  0  0  0  0  0  0  0  0
   -0.5753   -2.3802    0.2076 H   0  0  0  0  0  0  0  0  0  0  0  0
   -1.2314   -2.2248   -1.4203 H   0  0  0  0  0  0  0  0  0  0  0  0
    3.0752    0.1626   -1.7011 H   0  0  0  0  0  0  0  0  0  0  0  0
   -3.3757    1.3342   -0.3789 H   0  0  0  0  0  0  0  0  0  0  0  0
  1 10  1  0  0  0  0
  1 22  1  0  0  0  0
  2 11  1  0  0  0  0
  2 23  1  0  0  0  0
  3 10  2  0  0  0  0
  4 11  2  0  0  0  0
  5  6  1  0  0  0  0
  5  7  1  0  0  0  0
  5  8  1  0  0  0  0
  5 10  1  0  0  0  0
  6  9  1  0  0  0  0
  6 11  1  0  0  0  0
  6 12  1  0  0  0  0
  7 13  1  0  0  0  0
  7 14  1  0  0  0  0
  7 15  1  0  0  0  0
  8 16  1  0  0  0  0
  8 17  1  0  0  0  0
  8 18  1  0  0  0  0
  9 19  1  0  0  0  0
  9 20  1  0  0  0  0
  9 21  1  0  0  0  0
M  END
> <PUBCHEM_COMPOUND_CID>
137431

> <PUBCHEM_CONFORMER_RMSD>
0.6

> <PUBCHEM_CONFORMER_DIVERSEORDER>
1
5
8
9
4
6
3
7
10
2

> <PUBCHEM_MMFF94_PARTIAL_CHARGES>
10
1 -0.65
10 0.66
11 0.66
2 -0.65
22 0.5
23 0.5
3 -0.57
4 -0.57
5 0.06
6 0.06

> <PUBCHEM_EFFECTIVE_ROTOR_COUNT>
3

> <PUBCHEM_PHARMACOPHORE_FEATURES>
8
1 1 acceptor
1 2 acceptor
1 3 acceptor
1 4 acceptor
1 9 hydrophobe
3 1 3 10 anion
3 2 4 11 anion
3 5 7 8 hydrophobe

> <PUBCHEM_HEAVY_ATOM_COUNT>
11

> <PUBCHEM_ATOM_DEF_STEREO_COUNT>
0

> <PUBCHEM_ATOM_UDEF_STEREO_COUNT>
1

> <PUBCHEM_BOND_DEF_STEREO_COUNT>
0

> <PUBCHEM_BOND_UDEF_STEREO_COUNT>
0

> <PUBCHEM_ISOTOPIC_ATOM_COUNT>
0

> <PUBCHEM_COMPONENT_COUNT>
1

> <PUBCHEM_CACTVS_TAUTO_COUNT>
1

> <PUBCHEM_CONFORMER_ID>
000218D700000001

> <PUBCHEM_MMFF94_ENERGY>
24.0482

> <PUBCHEM_FEATURE_SELFOVERLAP>
40.717

> <PUBCHEM_SHAPE_FINGERPRINT>
12423570 1 13127767084668459402
137420 1 17250937578571735338
15310529 11 18041002885612279822
16945 1 17346881139194390596
20653091 64 17843674714938962746
21040471 1 18343293769210219031
21922407 69 16226312781689132141
23552423 10 17979347895617771287
29004967 10 18342740714956256842
5084963 1 17603581949999162181
528886 8 18342737360607981993
68250623 7 17894357665425419451

> <PUBCHEM_SHAPE_MULTIPOLES>
202.9
3.32
1.48
1.24
0.24
0.06
0.3
0.16
-0.26
0.21
-0.19
-0.25
-0.1
0.16

> <PUBCHEM_SHAPE_SELFOVERLAP>
394.312

> <PUBCHEM_SHAPE_VOLUME>
122.7

> <PUBCHEM_COORDINATE_TYPE>
2
5
10

$$$$
