144636
  -OEChem-11012401143D

 41 40  0     0  0  0  0  0  0999 V2000
   -1.4029    0.1180   -0.0734 C   0  0  0  0  0  0  0  0  0  0  0  0
    1.3860    0.1636   -0.2479 C   0  0  0  0  0  0  0  0  0  0  0  0
    0.0177    0.6094    0.3927 C   0  0  0  0  0  0  0  0  0  0  0  0
   -1.5549   -1.4238    0.0408 C   0  0  0  0  0  0  0  0  0  0  0  0
   -2.4745    0.7955    0.8536 C   0  0  0  0  0  0  0  0  0  0  0  0
    2.4922    0.9294    0.5673 C   0  0  0  0  0  0  0  0  0  0  0  0
    1.6352   -1.3728   -0.1819 C   0  0  0  0  0  0  0  0  0  0  0  0
   -1.6823    0.5616   -1.5279 C   0  0  0  0  0  0  0  0  0  0  0  0
    1.4869    0.6003   -1.7216 C   0  0  0  0  0  0  0  0  0  0  0  0
   -2.9231   -2.0025   -0.3129 C   0  0  0  0  0  0  0  0  0  0  0  0
   -2.5010    2.3219    0.8541 C   0  0  0  0  0  0  0  0  0  0  0  0
    3.9431    0.7055    0.1535 C   0  0  0  0  0  0  0  0  0  0  0  0
    1.5776   -2.0060    1.2036 C   0  0  0  0  0  0  0  0  0  0  0  0
    0.0129    1.7049    0.3132 H   0  0  0  0  0  0  0  0  0  0  0  0
    0.0790    0.4096    1.4720 H   0  0  0  0  0  0  0  0  0  0  0  0
   -1.3202   -1.7460    1.0593 H   0  0  0  0  0  0  0  0  0  0  0  0
   -0.8734   -1.9204   -0.6431 H   0  0  0  0  0  0  0  0  0  0  0  0
   -2.3314    0.4502    1.8856 H   0  0  0  0  0  0  0  0  0  0  0  0
   -3.4782    0.4696    0.5572 H   0  0  0  0  0  0  0  0  0  0  0  0
    2.2978    2.0086    0.5004 H   0  0  0  0  0  0  0  0  0  0  0  0
    2.4029    0.6773    1.6316 H   0  0  0  0  0  0  0  0  0  0  0  0
    2.6318   -1.5876   -0.5898 H   0  0  0  0  0  0  0  0  0  0  0  0
    0.9822   -1.9069   -0.8715 H   0  0  0  0  0  0  0  0  0  0  0  0
   -1.2954    1.5655   -1.7307 H   0  0  0  0  0  0  0  0  0  0  0  0
   -2.7582    0.5838   -1.7370 H   0  0  0  0  0  0  0  0  0  0  0  0
   -1.2461   -0.1299   -2.2534 H   0  0  0  0  0  0  0  0  0  0  0  0
    2.4863    0.4259   -2.1321 H   0  0  0  0  0  0  0  0  0  0  0  0
    0.8130    0.0288   -2.3620 H   0  0  0  0  0  0  0  0  0  0  0  0
    1.2607    1.6652   -1.8397 H   0  0  0  0  0  0  0  0  0  0  0  0
   -2.8776   -3.0969   -0.2880 H   0  0  0  0  0  0  0  0  0  0  0  0
   -3.2433   -1.7100   -1.3167 H   0  0  0  0  0  0  0  0  0  0  0  0
   -3.6906   -1.6989    0.4042 H   0  0  0  0  0  0  0  0  0  0  0  0
   -1.5975    2.7456    1.3002 H   0  0  0  0  0  0  0  0  0  0  0  0
   -3.3470    2.6723    1.4555 H   0  0  0  0  0  0  0  0  0  0  0  0
   -2.6239    2.7307   -0.1523 H   0  0  0  0  0  0  0  0  0  0  0  0
    4.2403   -0.3417    0.2505 H   0  0  0  0  0  0  0  0  0  0  0  0
    4.6017    1.2885    0.8068 H   0  0  0  0  0  0  0  0  0  0  0  0
    4.1358    1.0353   -0.8703 H   0  0  0  0  0  0  0  0  0  0  0  0
    1.6376   -3.0958    1.1149 H   0  0  0  0  0  0  0  0  0  0  0  0
    0.6699   -1.7654    1.7552 H   0  0  0  0  0  0  0  0  0  0  0  0
    2.4291   -1.6851    1.8121 H   0  0  0  0  0  0  0  0  0  0  0  0
  1  3  1  0  0  0  0
  1  4  1  0  0  0  0
  1  5  1  0  0  0  0
  1  8  1  0  0  0  0
  2  3  1  0  0  0  0
  2  6  1  0  0  0  0
  2  7  1  0  0  0  0
  2  9  1  0  0  0  0
  3 14  1  0  0  0  0
  3 15  1  0  0  0  0
  4 10  1  0  0  0  0
  4 16  1  0  0  0  0
  4 17  1  0  0  0  0
  5 11  1  0  0  0  0
  5 18  1  0  0  0  0
  5 19  1  0  0  0  0
  6 12  1  0  0  0  0
  6 20  1  0  0  0  0
  6 21  1  0  0  0  0
  7 13  1  0  0  0  0
  7 22  1  0  0  0  0
  7 23  1  0  0  0  0
  8 24  1  0  0  0  0
  8 25  1  0  0  0  0
  8 26  1  0  0  0  0
  9 27  1  0  0  0  0
  9 28  1  0  0  0  0
  9 29  1  0  0  0  0
 10 30  1  0  0  0  0
 10 31  1  0  0  0  0
 10 32  1  0  0  0  0
 11 33  1  0  0  0  0
 11 34  1  0  0  0  0
 11 35  1  0  0  0  0
 12 36  1  0  0  0  0
 12 37  1  0  0  0  0
 12 38  1  0  0  0  0
 13 39  1  0  0  0  0
 13 40  1  0  0  0  0
 13 41  1  0  0  0  0
M  END
> <PUBCHEM_COMPOUND_CID>
144636

> <PUBCHEM_CONFORMER_RMSD>
0.6

> <PUBCHEM_CONFORMER_DIVERSEORDER>
1
8
21
15
12
18
23
9
11
17
13
22
24
19
5
6
20
7
3
4
16
10
14
2

> <PUBCHEM_MMFF94_PARTIAL_CHARGES>
0

> <PUBCHEM_EFFECTIVE_ROTOR_COUNT>
6

> <PUBCHEM_PHARMACOPHORE_FEATURES>
7
1 10 hydrophobe
1 11 hydrophobe
1 12 hydrophobe
1 13 hydrophobe
1 8 hydrophobe
1 9 hydrophobe
7 1 2 3 4 5 6 7 hydrophobe

> <PUBCHEM_HEAVY_ATOM_COUNT>
13

> <PUBCHEM_ATOM_DEF_STEREO_COUNT>
0

> <PUBCHEM_ATOM_UDEF_STEREO_COUNT>
0

> <PUBCHEM_BOND_DEF_STEREO_COUNT>
0

> <PUBCHEM_BOND_UDEF_STEREO_COUNT>
0

> <PUBCHEM_ISOTOPIC_ATOM_COUNT>
0

> <PUBCHEM_COMPONENT_COUNT>
1

> <PUBCHEM_CACTVS_TAUTO_COUNT>
1

> <PUBCHEM_CONFORMER_ID>
000234FC00000001

> <PUBCHEM_MMFF94_ENERGY>
44.4333

> <PUBCHEM_FEATURE_SELFOVERLAP>
35.576

> <PUBCHEM_SHAPE_FINGERPRINT>
10219947 1 17458620147029306260
108231 29 17761773262038392027
12382932 28 18411138004652118616
12932764 1 17968659302766530038
13380535 21 18341342097526857194
13538477 17 18341051826594248561
14178342 30 18408601452907099544
14614273 12 18114733915047036807
14648413 74 17773892908196583230
14787075 74 17619050073031604280
14817 1 12916280476857395375
14993402 34 17531525520504007134
15279307 12 18408889503278507531
15490181 8 17970368085791625722
15775835 57 18411143502141666200
16945 1 18124615307492132015
20082192 1 17967243196108819621
20525323 117 18409450327360104827
21061003 4 18055633073526225513
21501502 16 18410849932589959922
23236772 104 18411418453163242075
23402539 116 18058158612711470623
23493267 7 17774451490142027184
23526113 38 16773243881169251423
23552423 10 18187086156647484519
23557571 272 18059865007760960805
2748010 2 17389656384979547708
305870 269 18336267829958490920
3248919 1 18200860791070087362
5084963 1 18041836349970475734
74978 22 18269273460990926139
8030462 33 18201423775267189589
81228 2 18270698566079648345

> <PUBCHEM_SHAPE_MULTIPOLES>
267.53
5.17
2.19
1.3
1.84
0.52
0.42
-0.8
-0.59
-1.26
-0.62
-0.01
-0.2
-0.78

> <PUBCHEM_SHAPE_SELFOVERLAP>
488.886

> <PUBCHEM_SHAPE_VOLUME>
174.1

> <PUBCHEM_COORDINATE_TYPE>
2
5
10

$$$$
