14979859
  -OEChem-11012401123D

 31 30  0     0  0  0  0  0  0999 V2000
   -3.2674    0.3303   -1.3443 F   0  0  0  0  0  0  0  0  0  0  0  0
   -0.6723    1.7902   -0.5117 O   0  0  0  0  0  0  0  0  0  0  0  0
    3.4530   -1.7403   -1.6168 O   0  5  0  0  0  0  0  0  0  0  0  0
    3.4413    1.2623    1.9594 O   0  5  0  0  0  0  0  0  0  0  0  0
    4.0161    1.6160   -1.7160 O   0  5  0  0  0  0  0  0  0  0  0  0
    2.8124   -2.2232    0.4247 O   0  0  0  0  0  0  0  0  0  0  0  0
    4.4793   -0.6638    1.8338 O   0  0  0  0  0  0  0  0  0  0  0  0
    5.5224    0.2788   -0.8464 O   0  0  0  0  0  0  0  0  0  0  0  0
   -4.3192   -1.8395    1.0825 O   0  5  0  0  0  0  0  0  0  0  0  0
   -5.6905    1.0288    0.8805 O   0  5  0  0  0  0  0  0  0  0  0  0
   -3.3934   -2.0704   -0.8976 O   0  0  0  0  0  0  0  0  0  0  0  0
   -5.7527    0.5946   -1.2730 O   0  0  0  0  0  0  0  0  0  0  0  0
   -1.5971    0.2940    1.0061 N   0  0  0  0  0  0  0  0  0  0  0  0
    3.1960   -1.4280   -0.4447 N   0  3  0  0  0  0  0  0  0  0  0  0
    3.7893    0.2421    1.3464 N   0  3  0  0  0  0  0  0  0  0  0  0
    4.3603    0.6977   -0.9596 N   0  3  0  0  0  0  0  0  0  0  0  0
   -3.8361   -1.3874    0.0359 N   0  3  0  0  0  0  0  0  0  0  0  0
   -5.1866    0.6131   -0.1715 N   0  3  0  0  0  0  0  0  0  0  0  0
    1.9043    0.7022   -0.3174 C   0  0  0  0  0  0  0  0  0  0  0  0
    3.2827    0.0531   -0.0816 C   0  0  0  0  0  0  0  0  0  0  0  0
    0.7477    0.1098    0.5019 C   0  0  0  0  0  0  0  0  0  0  0  0
   -0.5633    0.8408    0.2594 C   0  0  0  0  0  0  0  0  0  0  0  0
   -2.9519    0.7934    0.9585 C   0  0  0  0  0  0  0  0  0  0  0  0
   -3.7742    0.1054   -0.1084 C   0  0  0  0  0  0  0  0  0  0  0  0
    1.6353    0.6171   -1.3806 H   0  0  0  0  0  0  0  0  0  0  0  0
    1.9567    1.7812   -0.1141 H   0  0  0  0  0  0  0  0  0  0  0  0
    0.9670    0.1562    1.5740 H   0  0  0  0  0  0  0  0  0  0  0  0
    0.5819   -0.9386    0.2314 H   0  0  0  0  0  0  0  0  0  0  0  0
   -3.3693    0.6424    1.9606 H   0  0  0  0  0  0  0  0  0  0  0  0
   -2.9139    1.8728    0.7700 H   0  0  0  0  0  0  0  0  0  0  0  0
   -1.4054   -0.4982    1.6127 H   0  0  0  0  0  0  0  0  0  0  0  0
  1 24  1  0  0  0  0
  2 22  2  0  0  0  0
  3 14  1  0  0  0  0
  4 15  1  0  0  0  0
  5 16  1  0  0  0  0
  6 14  2  0  0  0  0
  7 15  2  0  0  0  0
  8 16  2  0  0  0  0
  9 17  1  0  0  0  0
 10 18  1  0  0  0  0
 11 17  2  0  0  0  0
 12 18  2  0  0  0  0
 13 22  1  0  0  0  0
 13 23  1  0  0  0  0
 13 31  1  0  0  0  0
 14 20  1  0  0  0  0
 15 20  1  0  0  0  0
 16 20  1  0  0  0  0
 17 24  1  0  0  0  0
 18 24  1  0  0  0  0
 19 20  1  0  0  0  0
 19 21  1  0  0  0  0
 19 25  1  0  0  0  0
 19 26  1  0  0  0  0
 21 22  1  0  0  0  0
 21 27  1  0  0  0  0
 21 28  1  0  0  0  0
 23 24  1  0  0  0  0
 23 29  1  0  0  0  0
 23 30  1  0  0  0  0
M  CHG  8   3  -1   4  -1   5  -1   9  -1  10  -1  14   1  15   1  16   1
M  CHG  2  17   1  18   1
M  END
> <PUBCHEM_COMPOUND_CID>
14979859

> <PUBCHEM_CONFORMER_RMSD>
1

> <PUBCHEM_CONFORMER_DIVERSEORDER>
1
4
10
7
8
2
9
6
3
5

> <PUBCHEM_MMFF94_PARTIAL_CHARGES>
24
1 -0.34
10 -0.52
11 -0.52
12 -0.52
13 -0.73
14 0.8
15 0.8
16 0.8
17 0.8
18 0.8
2 -0.57
20 0.72
21 0.06
22 0.57
23 0.3
24 0.82
3 -0.52
31 0.37
4 -0.52
5 -0.52
6 -0.52
7 -0.52
8 -0.52
9 -0.52

> <PUBCHEM_EFFECTIVE_ROTOR_COUNT>
11

> <PUBCHEM_PHARMACOPHORE_FEATURES>
17
1 10 acceptor
1 10 anion
1 11 acceptor
1 12 acceptor
1 13 donor
1 2 acceptor
1 3 acceptor
1 3 anion
1 4 acceptor
1 4 anion
1 5 acceptor
1 5 anion
1 6 acceptor
1 7 acceptor
1 8 acceptor
1 9 acceptor
1 9 anion

> <PUBCHEM_HEAVY_ATOM_COUNT>
24

> <PUBCHEM_ATOM_DEF_STEREO_COUNT>
0

> <PUBCHEM_ATOM_UDEF_STEREO_COUNT>
0

> <PUBCHEM_BOND_DEF_STEREO_COUNT>
0

> <PUBCHEM_BOND_UDEF_STEREO_COUNT>
0

> <PUBCHEM_ISOTOPIC_ATOM_COUNT>
0

> <PUBCHEM_COMPONENT_COUNT>
1

> <PUBCHEM_CACTVS_TAUTO_COUNT>
2

> <PUBCHEM_CONFORMER_ID>
00E4931300000001

> <PUBCHEM_MMFF94_ENERGY>
54.3704

> <PUBCHEM_FEATURE_SELFOVERLAP>
86.708

> <PUBCHEM_SHAPE_FINGERPRINT>
11552529 35 12894491347645246885
12596602 18 14908172084329531303
12616971 3 17603577526172298091
12670546 177 17967535713309363436
12788726 201 18114180783210304793
12916748 109 10737284636642396341
13533116 47 17774444863239760383
15183329 4 18260544503404531453
15537594 2 18272098222601574095
15788980 27 17385999563987703633
15880784 105 15267339643511681655
17349148 13 17095797750602429360
17844677 252 16950567658058236061
20281475 54 18410577270822752616
20645477 70 16081083749874871528
23402539 116 17748825236899712140
23557571 272 18059582330056919844
23559900 14 18059852904348228168
239999 70 16845291661829556052
300161 21 18187362151113952709
3004659 81 18187085040082302358
5281201 14 12540689293225750258
542803 24 17966971621184979881
90127 26 16774085076368555113

> <PUBCHEM_SHAPE_MULTIPOLES>
392.19
13.69
1.77
1.51
6.57
0.93
0.13
0.07
-1.28
-0.02
-0.16
-1.25
-0.16
-0.01

> <PUBCHEM_SHAPE_SELFOVERLAP>
788.259

> <PUBCHEM_SHAPE_VOLUME>
227.9

> <PUBCHEM_COORDINATE_TYPE>
2
5
10

$$$$
