12529695
  -OEChem-11012401113D

 19 18  0     0  0  0  0  0  0999 V2000
    0.4479   -0.0003   -0.0066 Si  0  0  0  0  0  0  0  0  0  0  0  0
   -1.0884    0.0156    0.7632 N   0  0  0  0  0  0  0  0  0  0  0  0
    1.7825    0.0327    1.3055 C   0  0  0  0  0  0  0  0  0  0  0  0
    0.6088    1.5071   -1.1025 C   0  0  0  0  0  0  0  0  0  0  0  0
    0.6215   -1.5526   -1.0351 C   0  0  0  0  0  0  0  0  0  0  0  0
   -2.3724   -0.0026    0.0755 C   0  0  0  0  0  0  0  0  0  0  0  0
    1.7049   -0.8389    1.9625 H   0  0  0  0  0  0  0  0  0  0  0  0
    2.7757    0.0246    0.8464 H   0  0  0  0  0  0  0  0  0  0  0  0
    1.7008    0.9330    1.9220 H   0  0  0  0  0  0  0  0  0  0  0  0
    1.5902    1.5300   -1.5859 H   0  0  0  0  0  0  0  0  0  0  0  0
   -0.1546    1.5043   -1.8863 H   0  0  0  0  0  0  0  0  0  0  0  0
    0.4961    2.4265   -0.5200 H   0  0  0  0  0  0  0  0  0  0  0  0
    1.6052   -1.5912   -1.5128 H   0  0  0  0  0  0  0  0  0  0  0  0
    0.5109   -2.4466   -0.4139 H   0  0  0  0  0  0  0  0  0  0  0  0
   -0.1381   -1.5882   -1.8219 H   0  0  0  0  0  0  0  0  0  0  0  0
   -1.1154    0.7486    1.4719 H   0  0  0  0  0  0  0  0  0  0  0  0
   -2.5261    0.9102   -0.5099 H   0  0  0  0  0  0  0  0  0  0  0  0
   -3.1810   -0.0717    0.8104 H   0  0  0  0  0  0  0  0  0  0  0  0
   -2.4602   -0.8690   -0.5887 H   0  0  0  0  0  0  0  0  0  0  0  0
  1  2  1  0  0  0  0
  1  3  1  0  0  0  0
  1  4  1  0  0  0  0
  1  5  1  0  0  0  0
  2  6  1  0  0  0  0
  2 16  1  0  0  0  0
  3  7  1  0  0  0  0
  3  8  1  0  0  0  0
  3  9  1  0  0  0  0
  4 10  1  0  0  0  0
  4 11  1  0  0  0  0
  4 12  1  0  0  0  0
  5 13  1  0  0  0  0
  5 14  1  0  0  0  0
  5 15  1  0  0  0  0
  6 17  1  0  0  0  0
  6 18  1  0  0  0  0
  6 19  1  0  0  0  0
M  END
> <PUBCHEM_COMPOUND_CID>
12529695

> <PUBCHEM_CONFORMER_RMSD>
0.4

> <PUBCHEM_CONFORMER_DIVERSEORDER>
1

> <PUBCHEM_MMFF94_PARTIAL_CHARGES>
7
1 0.59
16 0.36
2 -0.98
3 -0.08
4 -0.08
5 -0.08
6 0.27

> <PUBCHEM_EFFECTIVE_ROTOR_COUNT>
1

> <PUBCHEM_PHARMACOPHORE_FEATURES>
0

> <PUBCHEM_HEAVY_ATOM_COUNT>
6

> <PUBCHEM_ATOM_DEF_STEREO_COUNT>
0

> <PUBCHEM_ATOM_UDEF_STEREO_COUNT>
0

> <PUBCHEM_BOND_DEF_STEREO_COUNT>
0

> <PUBCHEM_BOND_UDEF_STEREO_COUNT>
0

> <PUBCHEM_ISOTOPIC_ATOM_COUNT>
0

> <PUBCHEM_COMPONENT_COUNT>
1

> <PUBCHEM_CACTVS_TAUTO_COUNT>
1

> <PUBCHEM_CONFORMER_ID>
00BF301F00000001

> <PUBCHEM_MMFF94_ENERGY>
0.3639

> <PUBCHEM_FEATURE_SELFOVERLAP>
0

> <PUBCHEM_SHAPE_FINGERPRINT>
137420 1 14254809353869458782
20096714 4 17680445620978741525
21040471 1 17916869156660392619
23552449 11 17821729463712953833
24536 1 18266200412201770785
29004967 10 18264790782186249235
5943 1 14759795008631953510

> <PUBCHEM_SHAPE_MULTIPOLES>
136.71
2.32
1.4
1.36
1.48
0.02
0
0
0.79
-0.38
-0.75
-0.53
-0.02
0.01

> <PUBCHEM_SHAPE_SELFOVERLAP>
219.985

> <PUBCHEM_SHAPE_VOLUME>
96.4

> <PUBCHEM_COORDINATE_TYPE>
2
5
10

$$$$
