10316
  -OEChem-11012401183D

 25 26  0     0  0  0  0  0  0999 V2000
   -0.0012    1.2674    1.0780 O   0  5  0  0  0  0  0  0  0  0  0  0
    0.3823    0.3325    0.2934 N   0  3  0  0  0  0  0  0  0  0  0  0
   -0.3907   -0.4419   -0.3732 N   0  0  0  0  0  0  0  0  0  0  0  0
    1.8106    0.1147    0.1119 C   0  0  0  0  0  0  0  0  0  0  0  0
   -1.7721   -0.2724   -0.2394 C   0  0  0  0  0  0  0  0  0  0  0  0
    2.2572   -1.1565   -0.1808 C   0  0  0  0  0  0  0  0  0  0  0  0
    2.6678    1.1873    0.2370 C   0  0  0  0  0  0  0  0  0  0  0  0
   -2.4540    0.5961   -1.0917 C   0  0  0  0  0  0  0  0  0  0  0  0
   -2.4683   -0.9718    0.7463 C   0  0  0  0  0  0  0  0  0  0  0  0
    3.6252   -1.3650   -0.3564 C   0  0  0  0  0  0  0  0  0  0  0  0
    4.0358    0.9789    0.0612 C   0  0  0  0  0  0  0  0  0  0  0  0
    4.5144   -0.2973   -0.2354 C   0  0  0  0  0  0  0  0  0  0  0  0
   -3.8322    0.7652   -0.9582 C   0  0  0  0  0  0  0  0  0  0  0  0
   -3.8464   -0.8029    0.8798 C   0  0  0  0  0  0  0  0  0  0  0  0
   -4.5284    0.0657    0.0275 C   0  0  0  0  0  0  0  0  0  0  0  0
    1.5866   -2.0060   -0.2681 H   0  0  0  0  0  0  0  0  0  0  0  0
    2.3120    2.1887    0.4595 H   0  0  0  0  0  0  0  0  0  0  0  0
   -1.9202    1.1453   -1.8629 H   0  0  0  0  0  0  0  0  0  0  0  0
   -1.9456   -1.6510    1.4148 H   0  0  0  0  0  0  0  0  0  0  0  0
    3.9985   -2.3591   -0.5847 H   0  0  0  0  0  0  0  0  0  0  0  0
    4.7284    1.8104    0.1536 H   0  0  0  0  0  0  0  0  0  0  0  0
    5.5796   -0.4596   -0.3719 H   0  0  0  0  0  0  0  0  0  0  0  0
   -4.3631    1.4415   -1.6217 H   0  0  0  0  0  0  0  0  0  0  0  0
   -4.3886   -1.3475    1.6473 H   0  0  0  0  0  0  0  0  0  0  0  0
   -5.6014    0.1973    0.1315 H   0  0  0  0  0  0  0  0  0  0  0  0
  1  2  1  0  0  0  0
  2  3  2  0  0  0  0
  2  4  1  0  0  0  0
  3  5  1  0  0  0  0
  4  6  2  0  0  0  0
  4  7  1  0  0  0  0
  5  8  2  0  0  0  0
  5  9  1  0  0  0  0
  6 10  1  0  0  0  0
  6 16  1  0  0  0  0
  7 11  2  0  0  0  0
  7 17  1  0  0  0  0
  8 13  1  0  0  0  0
  8 18  1  0  0  0  0
  9 14  2  0  0  0  0
  9 19  1  0  0  0  0
 10 12  2  0  0  0  0
 10 20  1  0  0  0  0
 11 12  1  0  0  0  0
 11 21  1  0  0  0  0
 12 22  1  0  0  0  0
 13 15  2  0  0  0  0
 13 23  1  0  0  0  0
 14 15  1  0  0  0  0
 14 24  1  0  0  0  0
 15 25  1  0  0  0  0
M  CHG  2   1  -1   2   1
M  END
> <PUBCHEM_COMPOUND_CID>
10316

> <PUBCHEM_CONFORMER_RMSD>
0.6

> <PUBCHEM_CONFORMER_DIVERSEORDER>
1
2
3

> <PUBCHEM_MMFF94_PARTIAL_CHARGES>
25
1 -0.63
10 -0.15
11 -0.15
12 -0.15
13 -0.15
14 -0.15
15 -0.15
16 0.15
17 0.15
18 0.15
19 0.15
2 0.87
20 0.15
21 0.15
22 0.15
23 0.15
24 0.15
25 0.15
3 -0.39
4 -0.03
5 0.18
6 -0.15
7 -0.15
8 -0.15
9 -0.15

> <PUBCHEM_EFFECTIVE_ROTOR_COUNT>
2

> <PUBCHEM_PHARMACOPHORE_FEATURES>
3
1 1 anion
6 4 6 7 10 11 12 rings
6 5 8 9 13 14 15 rings

> <PUBCHEM_HEAVY_ATOM_COUNT>
15

> <PUBCHEM_ATOM_DEF_STEREO_COUNT>
0

> <PUBCHEM_ATOM_UDEF_STEREO_COUNT>
0

> <PUBCHEM_BOND_DEF_STEREO_COUNT>
0

> <PUBCHEM_BOND_UDEF_STEREO_COUNT>
0

> <PUBCHEM_ISOTOPIC_ATOM_COUNT>
0

> <PUBCHEM_COMPONENT_COUNT>
1

> <PUBCHEM_CACTVS_TAUTO_COUNT>
1

> <PUBCHEM_CONFORMER_ID>
0000284C00000001

> <PUBCHEM_MMFF94_ENERGY>
45.1467

> <PUBCHEM_FEATURE_SELFOVERLAP>
15.223

> <PUBCHEM_SHAPE_FINGERPRINT>
10680689 15 17676492748196827747
11287383 113 17967818279482093012
11471102 20 18343581850252630788
11615757 297 18060422434185914547
12236239 1 16630808811670313959
124424 183 18343864416119379641
13296908 3 18335420170722786522
13675066 3 18409166644669866832
13760787 5 17846499235698612884
14123238 8 17967533488510951182
15219456 202 18335138695788306423
15242439 84 18260828176602475335
15375358 24 18408321094542972178
15653759 3 18113617897849269079
17834072 33 18060134392510299903
17834074 16 18261112984579555963
18186145 218 18187645782211472016
19026448 4 18187082857938177135
1986462 14 17748826306594462711
200 152 17917709084775453576
20279233 1 18333733519838487283
20281475 54 17275100622165965718
20645477 56 17749387036440240821
20645477 70 18343019952419075974
21065201 7 17458059352590369986
22094290 60 17603867793231867541
22485316 2 18410573998078888883
2297311 6 17822302266368825175
23175994 123 18342462538789112769
23402539 116 15864065477494410526
23402655 69 18343021095017032844
23557571 272 17821729411925524372
23559900 14 18186799141579609026
26918003 58 18411136935469019002
3268164 11 16733254720998794015
4214541 1 18260547809964723245
474 4 16986852778730557816
4990 188 17894912906229010050
5104073 3 18335138678534578553
522135 26 18272932713340421974
5281201 14 18187368714140356236
74978 22 17059764649973473839
77779 3 18259705600984430471

> <PUBCHEM_SHAPE_MULTIPOLES>
292.86
9.79
1.28
0.93
0.02
0.05
0
0.27
0.6
0.51
-0.06
-0.53
-0.09
0.98

> <PUBCHEM_SHAPE_SELFOVERLAP>
629.562

> <PUBCHEM_SHAPE_VOLUME>
161.2

> <PUBCHEM_COORDINATE_TYPE>
2
5
10

$$$$
