135473703
  -OEChem-11012400443D

 20 21  0     0  0  0  0  0  0999 V2000
    3.0327   -0.3576   -1.0249 O   0  0  0  0  0  0  0  0  0  0  0  0
   -0.0250    2.3468    0.2039 O   0  0  0  0  0  0  0  0  0  0  0  0
    3.9886   -1.0506    0.9443 O   0  0  0  0  0  0  0  0  0  0  0  0
    1.9373    0.0075    0.8690 N   0  0  0  0  0  0  0  0  0  0  0  0
    1.8024    0.3023   -1.3233 N   0  0  0  0  0  0  0  0  0  0  0  0
   -1.3128    0.3530    0.0292 C   0  0  0  0  0  0  0  0  0  0  0  0
   -0.0803    1.1245    0.0358 C   0  0  0  0  0  0  0  0  0  0  0  0
    1.2466    0.4682   -0.1759 C   0  0  0  0  0  0  0  0  0  0  0  0
   -2.5375    0.9923    0.2212 C   0  0  0  0  0  0  0  0  0  0  0  0
   -1.2702   -1.0268   -0.1709 C   0  0  0  0  0  0  0  0  0  0  0  0
   -3.7197    0.2520    0.2132 C   0  0  0  0  0  0  0  0  0  0  0  0
   -2.4522   -1.7672   -0.1789 C   0  0  0  0  0  0  0  0  0  0  0  0
   -3.6770   -1.1277    0.0131 C   0  0  0  0  0  0  0  0  0  0  0  0
    3.0671   -0.5167    0.3442 C   0  0  0  0  0  0  0  0  0  0  0  0
   -2.5933    2.0663    0.3785 H   0  0  0  0  0  0  0  0  0  0  0  0
   -0.3366   -1.5598   -0.3245 H   0  0  0  0  0  0  0  0  0  0  0  0
    1.6770    0.0388    1.8473 H   0  0  0  0  0  0  0  0  0  0  0  0
   -4.6735    0.7496    0.3626 H   0  0  0  0  0  0  0  0  0  0  0  0
   -2.4196   -2.8416   -0.3348 H   0  0  0  0  0  0  0  0  0  0  0  0
   -4.5974   -1.7043    0.0068 H   0  0  0  0  0  0  0  0  0  0  0  0
  1  5  1  0  0  0  0
  1 14  1  0  0  0  0
  2  7  2  0  0  0  0
  3 14  2  0  0  0  0
  4  8  1  0  0  0  0
  4 14  1  0  0  0  0
  4 17  1  0  0  0  0
  5  8  2  0  0  0  0
  6  7  1  0  0  0  0
  6  9  2  0  0  0  0
  6 10  1  0  0  0  0
  7  8  1  0  0  0  0
  9 11  1  0  0  0  0
  9 15  1  0  0  0  0
 10 12  2  0  0  0  0
 10 16  1  0  0  0  0
 11 13  2  0  0  0  0
 11 18  1  0  0  0  0
 12 13  1  0  0  0  0
 12 19  1  0  0  0  0
 13 20  1  0  0  0  0
M  END
> <PUBCHEM_COMPOUND_CID>
135473703

> <PUBCHEM_CONFORMER_RMSD>
0.6

> <PUBCHEM_CONFORMER_DIVERSEORDER>
2
3
1

> <PUBCHEM_MMFF94_PARTIAL_CHARGES>
20
1 -0.09
10 -0.15
11 -0.15
12 -0.15
13 -0.15
14 0.78
15 0.15
16 0.15
17 0.37
18 0.15
19 0.15
2 -0.57
20 0.15
3 -0.57
4 -0.49
5 -0.51
6 0.09
7 0.48
8 0.51
9 -0.15

> <PUBCHEM_EFFECTIVE_ROTOR_COUNT>
2

> <PUBCHEM_PHARMACOPHORE_FEATURES>
5
1 2 acceptor
1 3 acceptor
1 4 donor
5 1 4 5 8 14 rings
6 6 9 10 11 12 13 rings

> <PUBCHEM_HEAVY_ATOM_COUNT>
14

> <PUBCHEM_ATOM_DEF_STEREO_COUNT>
0

> <PUBCHEM_ATOM_UDEF_STEREO_COUNT>
0

> <PUBCHEM_BOND_DEF_STEREO_COUNT>
0

> <PUBCHEM_BOND_UDEF_STEREO_COUNT>
0

> <PUBCHEM_ISOTOPIC_ATOM_COUNT>
0

> <PUBCHEM_COMPONENT_COUNT>
1

> <PUBCHEM_CACTVS_TAUTO_COUNT>
-1

> <PUBCHEM_CONFORMER_ID>
08132A2700000002

> <PUBCHEM_MMFF94_ENERGY>
34.4487

> <PUBCHEM_FEATURE_SELFOVERLAP>
25.372

> <PUBCHEM_SHAPE_FINGERPRINT>
10130415 120 18409169926177907201
10465860 71 18267605613515588868
10751810 167 18186529808222054759
11543360 7 16081377422358326511
11578080 2 17750769160868858532
11769659 78 18333728043844693247
12251169 10 17632005429578887226
12346177 29 18202555194803171839
124424 183 18335414665065219663
13296908 3 18411696620967648905
13690532 89 18410570708793147711
14144814 61 18410858780486106275
15375462 189 18187082840774119666
16945 1 18341901792311812525
17804303 29 18343868826940061897
18186145 218 13551192181989315444
18511873 20 18334014982336250545
18522853 295 18410864273738916655
19049666 15 17129878114048142148
19422 9 17967821560826525227
20279233 1 17632859719838063999
20281407 28 18273220776649291018
20361792 2 18040710394097293565
20645476 183 17823716319784553711
21501502 16 18198345263453947157
21501925 9 18270955855557561745
22485316 2 18335416872230036312
22959321 94 18336539435132101394
232386 152 18410011065336797030
23402539 116 18130777933539304893
23463225 33 18408323263453983807
23552423 10 17975136757989378693
23559900 14 18200597991233542342
2748010 2 18123466339896028813
369184 2 14907908175921723655
449060 62 8285937778069011327
465052 167 18188788265810523283
57812782 119 17418093221955048495
5902787 121 18340204193007087288
7364860 26 17984424306549508841
74978 22 18337391672813310415
77492 1 17895484652074948044
81228 2 17914915152725991233

> <PUBCHEM_SHAPE_MULTIPOLES>
260.54
6.64
1.63
0.87
1.37
0.33
-0.1
-2.59
0.73
-0.69
0.08
0.65
-0.06
-0.38

> <PUBCHEM_SHAPE_SELFOVERLAP>
567.229

> <PUBCHEM_SHAPE_VOLUME>
142.6

> <PUBCHEM_COORDINATE_TYPE>
2
5
10

$$$$
