138884
  -OEChem-11012400503D

 48 50  0     0  0  0  0  0  0999 V2000
   -8.3007    1.0588   -0.6810 O   0  0  0  0  0  0  0  0  0  0  0  0
    8.3006    1.0589    0.6812 O   0  0  0  0  0  0  0  0  0  0  0  0
   -2.3961   -1.4780    0.9129 O   0  0  0  0  0  0  0  0  0  0  0  0
    2.3962   -1.4782   -0.9129 O   0  0  0  0  0  0  0  0  0  0  0  0
   -3.6052    0.3186    0.0095 N   0  0  0  0  0  0  0  0  0  0  0  0
    3.6052    0.3185   -0.0097 N   0  0  0  0  0  0  0  0  0  0  0  0
   -1.1923    0.3781    0.1942 C   0  0  0  0  0  0  0  0  0  0  0  0
    1.1922    0.3780   -0.1946 C   0  0  0  0  0  0  0  0  0  0  0  0
    0.0000   -0.3193   -0.0001 C   0  0  0  0  0  0  0  0  0  0  0  0
   -2.4352   -0.3483    0.3990 C   0  0  0  0  0  0  0  0  0  0  0  0
    2.4352   -0.3485   -0.3992 C   0  0  0  0  0  0  0  0  0  0  0  0
   -1.1923    1.7730    0.1943 C   0  0  0  0  0  0  0  0  0  0  0  0
    1.1923    1.7729   -0.1943 C   0  0  0  0  0  0  0  0  0  0  0  0
   -4.9472   -0.1239    0.1089 C   0  0  0  0  0  0  0  0  0  0  0  0
    4.9472   -0.1239   -0.1089 C   0  0  0  0  0  0  0  0  0  0  0  0
    0.0000    2.4703    0.0000 C   0  0  0  0  0  0  0  0  0  0  0  0
   -5.9657    0.6988   -0.3407 C   0  0  0  0  0  0  0  0  0  0  0  0
    5.9656    0.6989    0.3407 C   0  0  0  0  0  0  0  0  0  0  0  0
   -5.2095   -1.3697    0.6526 C   0  0  0  0  0  0  0  0  0  0  0  0
    5.2096   -1.3697   -0.6526 C   0  0  0  0  0  0  0  0  0  0  0  0
   -7.2870    0.2625   -0.2436 C   0  0  0  0  0  0  0  0  0  0  0  0
    7.2869    0.2626    0.2437 C   0  0  0  0  0  0  0  0  0  0  0  0
   -6.5309   -1.8058    0.7498 C   0  0  0  0  0  0  0  0  0  0  0  0
    6.5310   -1.8059   -0.7496 C   0  0  0  0  0  0  0  0  0  0  0  0
   -7.5696   -0.9898    0.3018 C   0  0  0  0  0  0  0  0  0  0  0  0
    7.5696   -0.9898   -0.3016 C   0  0  0  0  0  0  0  0  0  0  0  0
   -9.6274    0.5505   -0.5518 C   0  0  0  0  0  0  0  0  0  0  0  0
    9.6274    0.5505    0.5521 C   0  0  0  0  0  0  0  0  0  0  0  0
   -0.0001   -1.4071   -0.0002 H   0  0  0  0  0  0  0  0  0  0  0  0
   -2.0873    2.3599    0.3783 H   0  0  0  0  0  0  0  0  0  0  0  0
    2.0872    2.3597   -0.3782 H   0  0  0  0  0  0  0  0  0  0  0  0
   -3.5131    1.2252   -0.4404 H   0  0  0  0  0  0  0  0  0  0  0  0
    3.5129    1.2251    0.4401 H   0  0  0  0  0  0  0  0  0  0  0  0
    0.0001    3.5566    0.0002 H   0  0  0  0  0  0  0  0  0  0  0  0
   -5.7506    1.6755   -0.7662 H   0  0  0  0  0  0  0  0  0  0  0  0
    5.7505    1.6757    0.7662 H   0  0  0  0  0  0  0  0  0  0  0  0
   -4.4639   -2.0581    1.0207 H   0  0  0  0  0  0  0  0  0  0  0  0
    4.4640   -2.0581   -1.0206 H   0  0  0  0  0  0  0  0  0  0  0  0
   -6.7513   -2.7811    1.1745 H   0  0  0  0  0  0  0  0  0  0  0  0
    6.7514   -2.7813   -1.1741 H   0  0  0  0  0  0  0  0  0  0  0  0
   -8.5719   -1.3906    0.4072 H   0  0  0  0  0  0  0  0  0  0  0  0
    8.5720   -1.3907   -0.4068 H   0  0  0  0  0  0  0  0  0  0  0  0
   -9.7732   -0.3520   -1.1552 H   0  0  0  0  0  0  0  0  0  0  0  0
  -10.3058    1.3129   -0.9486 H   0  0  0  0  0  0  0  0  0  0  0  0
   -9.8989    0.3963    0.4980 H   0  0  0  0  0  0  0  0  0  0  0  0
   10.3057    1.3131    0.9488 H   0  0  0  0  0  0  0  0  0  0  0  0
    9.7732   -0.3519    1.1555 H   0  0  0  0  0  0  0  0  0  0  0  0
    9.8989    0.3963   -0.4977 H   0  0  0  0  0  0  0  0  0  0  0  0
  1 21  1  0  0  0  0
  1 27  1  0  0  0  0
  2 22  1  0  0  0  0
  2 28  1  0  0  0  0
  3 10  2  0  0  0  0
  4 11  2  0  0  0  0
  5 10  1  0  0  0  0
  5 14  1  0  0  0  0
  5 32  1  0  0  0  0
  6 11  1  0  0  0  0
  6 15  1  0  0  0  0
  6 33  1  0  0  0  0
  7  9  2  0  0  0  0
  7 10  1  0  0  0  0
  7 12  1  0  0  0  0
  8  9  1  0  0  0  0
  8 11  1  0  0  0  0
  8 13  2  0  0  0  0
  9 29  1  0  0  0  0
 12 16  2  0  0  0  0
 12 30  1  0  0  0  0
 13 16  1  0  0  0  0
 13 31  1  0  0  0  0
 14 17  2  0  0  0  0
 14 19  1  0  0  0  0
 15 18  2  0  0  0  0
 15 20  1  0  0  0  0
 16 34  1  0  0  0  0
 17 21  1  0  0  0  0
 17 35  1  0  0  0  0
 18 22  1  0  0  0  0
 18 36  1  0  0  0  0
 19 23  2  0  0  0  0
 19 37  1  0  0  0  0
 20 24  2  0  0  0  0
 20 38  1  0  0  0  0
 21 25  2  0  0  0  0
 22 26  2  0  0  0  0
 23 25  1  0  0  0  0
 23 39  1  0  0  0  0
 24 26  1  0  0  0  0
 24 40  1  0  0  0  0
 25 41  1  0  0  0  0
 26 42  1  0  0  0  0
 27 43  1  0  0  0  0
 27 44  1  0  0  0  0
 27 45  1  0  0  0  0
 28 46  1  0  0  0  0
 28 47  1  0  0  0  0
 28 48  1  0  0  0  0
M  END
> <PUBCHEM_COMPOUND_CID>
138884

> <PUBCHEM_CONFORMER_RMSD>
1

> <PUBCHEM_CONFORMER_DIVERSEORDER>
2
60
16
1
27
41
56
64
31
61
23
39
11
7
5
22
58
59
30
47
33
42
26
40
48
20
49
63
51
28
17
45
3
29
34
52
54
24
46
19
55
6
57
44
14
36
37
32
13
25
21
53
9
35
12
62
15
38
8
43
4
50
18
10

> <PUBCHEM_MMFF94_PARTIAL_CHARGES>
42
1 -0.36
10 0.54
11 0.54
12 -0.15
13 -0.15
14 0.12
15 0.12
16 -0.15
17 -0.15
18 -0.15
19 -0.15
2 -0.36
20 -0.15
21 0.08
22 0.08
23 -0.15
24 -0.15
25 -0.15
26 -0.15
27 0.28
28 0.28
29 0.15
3 -0.57
30 0.15
31 0.15
32 0.37
33 0.37
34 0.15
35 0.15
36 0.15
37 0.15
38 0.15
39 0.15
4 -0.57
40 0.15
41 0.15
42 0.15
5 -0.55
6 -0.55
7 0.09
8 0.09
9 -0.15

> <PUBCHEM_EFFECTIVE_ROTOR_COUNT>
8

> <PUBCHEM_PHARMACOPHORE_FEATURES>
9
1 1 acceptor
1 2 acceptor
1 3 acceptor
1 4 acceptor
1 5 donor
1 6 donor
6 14 17 19 21 23 25 rings
6 15 18 20 22 24 26 rings
6 7 8 9 12 13 16 rings

> <PUBCHEM_HEAVY_ATOM_COUNT>
28

> <PUBCHEM_ATOM_DEF_STEREO_COUNT>
0

> <PUBCHEM_ATOM_UDEF_STEREO_COUNT>
0

> <PUBCHEM_BOND_DEF_STEREO_COUNT>
0

> <PUBCHEM_BOND_UDEF_STEREO_COUNT>
0

> <PUBCHEM_ISOTOPIC_ATOM_COUNT>
0

> <PUBCHEM_COMPONENT_COUNT>
1

> <PUBCHEM_CACTVS_TAUTO_COUNT>
3

> <PUBCHEM_CONFORMER_ID>
00021E8400000002

> <PUBCHEM_MMFF94_ENERGY>
113.6386

> <PUBCHEM_FEATURE_SELFOVERLAP>
45.673

> <PUBCHEM_SHAPE_FINGERPRINT>
10 15 18412258464122371880
10050765 1 18051413972495663946
10391435 84 18410853291206899851
106641 1 17632859750119008802
10670039 82 15864061071422240525
10674148 151 17749106699661758985
11315181 36 18060422413744988195
11719270 70 18342177756439976454
12202916 173 18410577283687256899
12516196 113 18342178869004706776
12643181 29 17822012042649663211
12838862 33 18338504300780877282
12857493 111 18409446990103139541
13685833 64 18412830187496603386
13885169 127 18408323259818432029
14150022 121 17274831207347199056
14251764 18 17132117939714526530
14251764 46 18410572885639823361
15183329 4 15719393936176210151
15301273 46 18272649047740558056
15328684 2 14979409339203440835
15392192 104 15626224632601026094
15419008 47 18409722958878788581
15419008 91 18261937626817138965
15510794 2 18410575084668873346
15728490 51 17846497071341311038
15849732 13 18343021099048327855
16087824 20 18335983048865329973
16120349 18 18060414741931558224
18006028 8 18272370866903776689
18335252 98 18343022182165946014
19841028 212 17822285731288854282
20238998 120 18410575093291093117
21095086 128 14836410216317812660
21130935 74 18200882764629669714
21267235 1 18410581686027871333
21792934 111 18411975880343225824
22224240 67 16845569807942914078
23559900 14 18339359781684914257
249057 3 16370731452090729047
3004659 81 17967817162500497709
3092352 35 14418135119592018801
3103668 31 17823129043685644437
335352 9 18335137601436588543
33684 2 17603584127726929225
3383291 50 18260555566681728027
4325135 7 17632858629533497292
5104073 3 18270401565350031506
5283156 175 16298100974372741752
5758199 1 13326857725131050973
58902169 19 14779556724381755914
59682541 35 18271804653566124776
6126387 218 18341895173962524849
6201320 215 15647595767206395357
67123 10 18273213105616076420
9663363 56 18410570686622089440

> <PUBCHEM_SHAPE_MULTIPOLES>
542.79
31.3
1.81
0.8
0
0.2
0
-2.68
0
0
0
0
-0.14
2.05

> <PUBCHEM_SHAPE_SELFOVERLAP>
1177.103

> <PUBCHEM_SHAPE_VOLUME>
295.7

> <PUBCHEM_COORDINATE_TYPE>
2
5
10

$$$$
