137942
  -OEChem-11012401253D

 23 22  0     0  0  0  0  0  0999 V2000
   -3.6615   -0.6045    0.0139 O   0  0  0  0  0  0  0  0  0  0  0  0
    3.6696   -0.6114   -0.0178 O   0  0  0  0  0  0  0  0  0  0  0  0
   -4.7648    1.3152   -0.0351 O   0  5  0  0  0  0  0  0  0  0  0  0
    4.7590    1.3167    0.0259 O   0  5  0  0  0  0  0  0  0  0  0  0
   -5.9349   -0.5828   -0.0082 O   0  0  0  0  0  0  0  0  0  0  0  0
    5.9426   -0.5719   -0.0359 O   0  0  0  0  0  0  0  0  0  0  0  0
   -4.9023    0.0915   -0.0121 N   0  3  0  0  0  0  0  0  0  0  0  0
    4.9053    0.0944   -0.0087 N   0  3  0  0  0  0  0  0  0  0  0  0
   -0.0055    0.2633    0.0162 C   0  0  0  0  0  0  0  0  0  0  0  0
   -1.2671   -0.5978    0.0369 C   0  0  0  0  0  0  0  0  0  0  0  0
    1.2580   -0.6020    0.0023 C   0  0  0  0  0  0  0  0  0  0  0  0
   -2.5288    0.2532    0.0077 C   0  0  0  0  0  0  0  0  0  0  0  0
    2.5304    0.2362    0.0148 C   0  0  0  0  0  0  0  0  0  0  0  0
    0.0067    0.9180    0.8960 H   0  0  0  0  0  0  0  0  0  0  0  0
   -0.0136    0.9102   -0.8694 H   0  0  0  0  0  0  0  0  0  0  0  0
   -1.2774   -1.2355    0.9297 H   0  0  0  0  0  0  0  0  0  0  0  0
   -1.2728   -1.2826   -0.8204 H   0  0  0  0  0  0  0  0  0  0  0  0
    1.2608   -1.2511   -0.8824 H   0  0  0  0  0  0  0  0  0  0  0  0
    1.2635   -1.2767    0.8676 H   0  0  0  0  0  0  0  0  0  0  0  0
   -2.5241    0.8657   -0.9028 H   0  0  0  0  0  0  0  0  0  0  0  0
   -2.5404    0.9025    0.8923 H   0  0  0  0  0  0  0  0  0  0  0  0
    2.5262    0.8926   -0.8648 H   0  0  0  0  0  0  0  0  0  0  0  0
    2.5404    0.8450    0.9279 H   0  0  0  0  0  0  0  0  0  0  0  0
  1  7  1  0  0  0  0
  1 12  1  0  0  0  0
  2  8  1  0  0  0  0
  2 13  1  0  0  0  0
  3  7  1  0  0  0  0
  4  8  1  0  0  0  0
  5  7  2  0  0  0  0
  6  8  2  0  0  0  0
  9 10  1  0  0  0  0
  9 11  1  0  0  0  0
  9 14  1  0  0  0  0
  9 15  1  0  0  0  0
 10 12  1  0  0  0  0
 10 16  1  0  0  0  0
 10 17  1  0  0  0  0
 11 13  1  0  0  0  0
 11 18  1  0  0  0  0
 11 19  1  0  0  0  0
 12 20  1  0  0  0  0
 12 21  1  0  0  0  0
 13 22  1  0  0  0  0
 13 23  1  0  0  0  0
M  CHG  4   3  -1   4  -1   7   1   8   1
M  END
> <PUBCHEM_COMPOUND_CID>
137942

> <PUBCHEM_CONFORMER_RMSD>
0.8

> <PUBCHEM_CONFORMER_DIVERSEORDER>
1
70
14
34
32
9
73
56
17
44
46
42
5
63
24
55
43
7
59
57
27
30
10
11
23
35
8
13
54
47
72
75
37
25
28
12
6
26
71
74
18
22
31
64
2
19
58
20
29
60
4
16
51
66
62
3
38
36
40
39
52
21
65
68
48
53
50
61
49
69
15
33
67
41
45

> <PUBCHEM_MMFF94_PARTIAL_CHARGES>
10
1 -0.27
12 0.28
13 0.28
2 -0.27
3 -0.52
4 -0.52
5 -0.52
6 -0.52
7 1.03
8 1.03

> <PUBCHEM_EFFECTIVE_ROTOR_COUNT>
8

> <PUBCHEM_PHARMACOPHORE_FEATURES>
4
1 3 acceptor
1 4 acceptor
1 5 acceptor
1 6 acceptor

> <PUBCHEM_HEAVY_ATOM_COUNT>
13

> <PUBCHEM_ATOM_DEF_STEREO_COUNT>
0

> <PUBCHEM_ATOM_UDEF_STEREO_COUNT>
0

> <PUBCHEM_BOND_DEF_STEREO_COUNT>
0

> <PUBCHEM_BOND_UDEF_STEREO_COUNT>
0

> <PUBCHEM_ISOTOPIC_ATOM_COUNT>
0

> <PUBCHEM_COMPONENT_COUNT>
1

> <PUBCHEM_CACTVS_TAUTO_COUNT>
1

> <PUBCHEM_CONFORMER_ID>
00021AD600000001

> <PUBCHEM_MMFF94_ENERGY>
22.7863

> <PUBCHEM_FEATURE_SELFOVERLAP>
20.439

> <PUBCHEM_SHAPE_FINGERPRINT>
11287383 113 18411139164251018882
114248 4 18201720656518346843
13533116 47 17168134599635889074
14123238 8 17240201032104620527
1420 363 18333737926807223019
14251718 22 18343020008316518723
15501527 16 18340208493198161657
17834072 33 18202561812704066517
17834076 25 18410573989488733394
187816 3 15769777961545211827
20645477 70 18059298647946898542
20719005 15 18410856559655620330
23402539 116 18272364278624047661
366044 4 18333450949919676339
42788 4 18410855464423129094
8209 1 18409448089550209838

> <PUBCHEM_SHAPE_MULTIPOLES>
222.36
14.85
0.96
0.55
0.08
0.21
0
0.75
-0.16
0
0
0
0
0.04

> <PUBCHEM_SHAPE_SELFOVERLAP>
412.679

> <PUBCHEM_SHAPE_VOLUME>
140.2

> <PUBCHEM_COORDINATE_TYPE>
2
5
10

$$$$
