817102
  -OEChem-11012400483D

 11 11  0     0  0  0  0  0  0999 V2000
    2.1207    1.7009    0.0013 Br  0  0  0  0  0  0  0  0  0  0  0  0
    2.0365   -1.7539   -0.0008 Br  0  0  0  0  0  0  0  0  0  0  0  0
   -0.6972   -1.3937    0.0008 N   0  0  0  0  0  0  0  0  0  0  0  0
    0.5119    0.6999   -0.0009 C   0  0  0  0  0  0  0  0  0  0  0  0
   -0.6885    1.4015   -0.0009 C   0  0  0  0  0  0  0  0  0  0  0  0
   -1.8933    0.7072   -0.0002 C   0  0  0  0  0  0  0  0  0  0  0  0
    0.4537   -0.6845    0.0002 C   0  0  0  0  0  0  0  0  0  0  0  0
   -1.8438   -0.6775    0.0006 C   0  0  0  0  0  0  0  0  0  0  0  0
   -0.7073    2.4882   -0.0012 H   0  0  0  0  0  0  0  0  0  0  0  0
   -2.8412    1.2330   -0.0001 H   0  0  0  0  0  0  0  0  0  0  0  0
   -2.7554   -1.2658    0.0012 H   0  0  0  0  0  0  0  0  0  0  0  0
  1  4  1  0  0  0  0
  2  7  1  0  0  0  0
  3  7  1  0  0  0  0
  3  8  2  0  0  0  0
  4  5  1  0  0  0  0
  4  7  2  0  0  0  0
  5  6  2  0  0  0  0
  5  9  1  0  0  0  0
  6  8  1  0  0  0  0
  6 10  1  0  0  0  0
  8 11  1  0  0  0  0
M  END
> <PUBCHEM_COMPOUND_CID>
817102

> <PUBCHEM_CONFORMER_RMSD>
0.4

> <PUBCHEM_CONFORMER_DIVERSEORDER>
1

> <PUBCHEM_MMFF94_PARTIAL_CHARGES>
11
1 -0.11
10 0.15
11 0.15
2 -0.11
3 -0.62
4 0.11
5 -0.15
6 -0.15
7 0.42
8 0.16
9 0.15

> <PUBCHEM_EFFECTIVE_ROTOR_COUNT>
0

> <PUBCHEM_PHARMACOPHORE_FEATURES>
4
1 1 hydrophobe
1 2 hydrophobe
1 3 acceptor
6 3 4 5 6 7 8 rings

> <PUBCHEM_HEAVY_ATOM_COUNT>
8

> <PUBCHEM_ATOM_DEF_STEREO_COUNT>
0

> <PUBCHEM_ATOM_UDEF_STEREO_COUNT>
0

> <PUBCHEM_BOND_DEF_STEREO_COUNT>
0

> <PUBCHEM_BOND_UDEF_STEREO_COUNT>
0

> <PUBCHEM_ISOTOPIC_ATOM_COUNT>
0

> <PUBCHEM_COMPONENT_COUNT>
1

> <PUBCHEM_CACTVS_TAUTO_COUNT>
1

> <PUBCHEM_CONFORMER_ID>
000C77CE00000001

> <PUBCHEM_MMFF94_ENERGY>
17.2525

> <PUBCHEM_FEATURE_SELFOVERLAP>
20.297

> <PUBCHEM_SHAPE_FINGERPRINT>
16714656 1 17905891727137247748
21040471 1 18338516455575254725
23552423 10 18335142007329410958
2748010 2 18409167701395339013
5084963 1 18129653076549567539

> <PUBCHEM_SHAPE_MULTIPOLES>
171.54
2.95
2.2
0.64
0.26
0.05
0
-0.06
0
1.29
0
0.07
0.01
0

> <PUBCHEM_SHAPE_SELFOVERLAP>
324.517

> <PUBCHEM_SHAPE_VOLUME>
110.1

> <PUBCHEM_COORDINATE_TYPE>
2
5
10

$$$$
