137625
  -OEChem-11012401273D

 20 20  0     0  0  0  0  0  0999 V2000
    0.9353   -0.0030   -0.5773 S   0  0  0  0  0  0  0  0  0  0  0  0
    1.2428   -1.2655   -1.2342 O   0  0  0  0  0  0  0  0  0  0  0  0
    1.2710    1.2534   -1.2329 O   0  0  0  0  0  0  0  0  0  0  0  0
   -0.7666   -0.0005   -0.1870 C   0  0  0  0  0  0  0  0  0  0  0  0
    1.7508    0.0034    1.0035 C   0  0  0  0  0  0  0  0  0  0  0  0
   -1.4458    1.2086   -0.0364 C   0  0  0  0  0  0  0  0  0  0  0  0
   -1.4470   -1.2075   -0.0255 C   0  0  0  0  0  0  0  0  0  0  0  0
   -2.8052    1.2108    0.2759 C   0  0  0  0  0  0  0  0  0  0  0  0
   -2.8066   -1.2052    0.2866 C   0  0  0  0  0  0  0  0  0  0  0  0
   -3.4856    0.0039    0.4373 C   0  0  0  0  0  0  0  0  0  0  0  0
    3.1868    0.0015    0.7467 C   0  0  0  0  0  0  0  0  0  0  0  0
    4.3701   -0.0001    0.5433 C   0  0  0  0  0  0  0  0  0  0  0  0
    1.4400    0.9005    1.5454 H   0  0  0  0  0  0  0  0  0  0  0  0
    1.4388   -0.8884    1.5530 H   0  0  0  0  0  0  0  0  0  0  0  0
   -0.9341    2.1600   -0.1512 H   0  0  0  0  0  0  0  0  0  0  0  0
   -0.9370   -2.1608   -0.1310 H   0  0  0  0  0  0  0  0  0  0  0  0
   -3.3338    2.1522    0.3949 H   0  0  0  0  0  0  0  0  0  0  0  0
   -3.3363   -2.1448    0.4143 H   0  0  0  0  0  0  0  0  0  0  0  0
   -4.5439    0.0057    0.6813 H   0  0  0  0  0  0  0  0  0  0  0  0
    5.4195   -0.0015    0.3625 H   0  0  0  0  0  0  0  0  0  0  0  0
  1  2  2  0  0  0  0
  1  3  2  0  0  0  0
  1  4  1  0  0  0  0
  1  5  1  0  0  0  0
  4  6  2  0  0  0  0
  4  7  1  0  0  0  0
  5 11  1  0  0  0  0
  5 13  1  0  0  0  0
  5 14  1  0  0  0  0
  6  8  1  0  0  0  0
  6 15  1  0  0  0  0
  7  9  2  0  0  0  0
  7 16  1  0  0  0  0
  8 10  2  0  0  0  0
  8 17  1  0  0  0  0
  9 10  1  0  0  0  0
  9 18  1  0  0  0  0
 10 19  1  0  0  0  0
 11 12  3  0  0  0  0
 12 20  1  0  0  0  0
M  END
> <PUBCHEM_COMPOUND_CID>
137625

> <PUBCHEM_CONFORMER_RMSD>
0.6

> <PUBCHEM_CONFORMER_DIVERSEORDER>
1
2
3

> <PUBCHEM_MMFF94_PARTIAL_CHARGES>
18
1 1.2
10 -0.15
11 -0.2
12 -0.18
15 0.15
16 0.15
17 0.15
18 0.15
19 0.15
2 -0.65
20 0.18
3 -0.65
4 -0.01
5 0.31
6 -0.15
7 -0.15
8 -0.15
9 -0.15

> <PUBCHEM_EFFECTIVE_ROTOR_COUNT>
2

> <PUBCHEM_PHARMACOPHORE_FEATURES>
4
1 12 hydrophobe
1 2 acceptor
1 3 acceptor
6 4 6 7 8 9 10 rings

> <PUBCHEM_HEAVY_ATOM_COUNT>
12

> <PUBCHEM_ATOM_DEF_STEREO_COUNT>
0

> <PUBCHEM_ATOM_UDEF_STEREO_COUNT>
0

> <PUBCHEM_BOND_DEF_STEREO_COUNT>
0

> <PUBCHEM_BOND_UDEF_STEREO_COUNT>
0

> <PUBCHEM_ISOTOPIC_ATOM_COUNT>
0

> <PUBCHEM_COMPONENT_COUNT>
1

> <PUBCHEM_CACTVS_TAUTO_COUNT>
1

> <PUBCHEM_CONFORMER_ID>
0002199900000001

> <PUBCHEM_MMFF94_ENERGY>
15.7647

> <PUBCHEM_FEATURE_SELFOVERLAP>
20.315

> <PUBCHEM_SHAPE_FINGERPRINT>
10857977 72 18343308097648223881
12251169 10 18408038524370524624
124424 183 17775278348766532424
13581323 91 18410290324041720194
15219456 202 17988928820993935118
15375462 189 17095517383927851568
15775835 57 18336826403292687179
16945 1 18338811065078583575
18186145 218 14620788340905459450
20201158 50 17917992767539440859
20279233 1 18060704978999819943
20281407 28 14996277011798552208
20645464 45 17704356576067974811
20671657 53 13768206052365991910
20711985 327 17603305951316789724
21293036 1 11097852986613016378
21501925 9 18334577975118084007
22445834 79 17821722814950683659
22485316 2 13623526861795316928
232386 152 18114187461830903630
23402539 116 18342444959756619079
23557571 272 17917993893163783059
23559900 14 18199197196108258350
2748010 2 17976270036649847655
3248919 1 18411146835463406373
369184 2 17203611458839348183
75552 356 18335416880762000731

> <PUBCHEM_SHAPE_MULTIPOLES>
239.07
6.49
1.31
1.02
3.62
0
0.14
-0.01
-2.03
-0.81
0.19
0.53
0
0

> <PUBCHEM_SHAPE_SELFOVERLAP>
478.481

> <PUBCHEM_SHAPE_VOLUME>
139.6

> <PUBCHEM_COORDINATE_TYPE>
2
5
10

$$$$
