138538
  -OEChem-11012401233D

 20 24  0     1  0  0  0  0  0999 V2000
    1.5338    0.7561    0.0000 C   0  0  0  0  0  0  0  0  0  0  0  0
    1.5339   -0.7560    0.0000 C   0  0  0  0  0  0  0  0  0  0  0  0
    0.4410   -0.7802    1.0770 C   0  0  1  0  0  0  0  0  0  0  0  0
    0.4409    0.7802    1.0769 C   0  0  2  0  0  0  0  0  0  0  0  0
    0.4411   -0.7803   -1.0769 C   0  0  2  0  0  0  0  0  0  0  0  0
    0.4410    0.7803   -1.0769 C   0  0  1  0  0  0  0  0  0  0  0  0
   -0.5431   -1.3392    0.0000 C   0  0  0  0  0  0  0  0  0  0  0  0
   -0.5431    1.3392    0.0000 C   0  0  0  0  0  0  0  0  0  0  0  0
   -1.8728    0.6707    0.0000 C   0  0  0  0  0  0  0  0  0  0  0  0
   -1.8728   -0.6707    0.0000 C   0  0  0  0  0  0  0  0  0  0  0  0
    2.4033    1.4019    0.0000 H   0  0  0  0  0  0  0  0  0  0  0  0
    2.4034   -1.4017    0.0002 H   0  0  0  0  0  0  0  0  0  0  0  0
    0.6306   -1.3224    2.0013 H   0  0  0  0  0  0  0  0  0  0  0  0
    0.6308   -1.3226   -2.0013 H   0  0  0  0  0  0  0  0  0  0  0  0
    0.6305    1.3226    2.0012 H   0  0  0  0  0  0  0  0  0  0  0  0
    0.6307    1.3225   -2.0013 H   0  0  0  0  0  0  0  0  0  0  0  0
   -0.6173   -2.4327    0.0001 H   0  0  0  0  0  0  0  0  0  0  0  0
   -0.6174    2.4326    0.0000 H   0  0  0  0  0  0  0  0  0  0  0  0
   -2.7882    1.2490   -0.0001 H   0  0  0  0  0  0  0  0  0  0  0  0
   -2.7882   -1.2490   -0.0001 H   0  0  0  0  0  0  0  0  0  0  0  0
  1  2  1  0  0  0  0
  1  4  1  0  0  0  0
  1  6  1  0  0  0  0
  1 11  1  0  0  0  0
  2  3  1  0  0  0  0
  2  5  1  0  0  0  0
  2 12  1  0  0  0  0
  3  4  1  0  0  0  0
  3  7  1  0  0  0  0
  3 13  1  0  0  0  0
  4  8  1  0  0  0  0
  4 15  1  0  0  0  0
  5  6  1  0  0  0  0
  5  7  1  0  0  0  0
  5 14  1  0  0  0  0
  6  8  1  0  0  0  0
  6 16  1  0  0  0  0
  7 10  1  0  0  0  0
  7 17  1  0  0  0  0
  8  9  1  0  0  0  0
  8 18  1  0  0  0  0
  9 10  2  0  0  0  0
  9 19  1  0  0  0  0
 10 20  1  0  0  0  0
M  END
> <PUBCHEM_COMPOUND_CID>
138538

> <PUBCHEM_CONFORMER_RMSD>
0.4

> <PUBCHEM_CONFORMER_DIVERSEORDER>
1

> <PUBCHEM_MMFF94_PARTIAL_CHARGES>
6
10 -0.27
19 0.15
20 0.15
7 0.12
8 0.12
9 -0.27

> <PUBCHEM_EFFECTIVE_ROTOR_COUNT>
0

> <PUBCHEM_PHARMACOPHORE_FEATURES>
1
10 1 2 3 4 5 6 7 8 9 10 rings

> <PUBCHEM_HEAVY_ATOM_COUNT>
10

> <PUBCHEM_ATOM_DEF_STEREO_COUNT>
0

> <PUBCHEM_ATOM_UDEF_STEREO_COUNT>
4

> <PUBCHEM_BOND_DEF_STEREO_COUNT>
0

> <PUBCHEM_BOND_UDEF_STEREO_COUNT>
0

> <PUBCHEM_ISOTOPIC_ATOM_COUNT>
0

> <PUBCHEM_COMPONENT_COUNT>
1

> <PUBCHEM_CACTVS_TAUTO_COUNT>
1

> <PUBCHEM_CONFORMER_ID>
00021D2A00000001

> <PUBCHEM_MMFF94_ENERGY>
53.2379

> <PUBCHEM_FEATURE_SELFOVERLAP>
5.074

> <PUBCHEM_SHAPE_FINGERPRINT>
12423570 1 11809779146215236490
13024252 1 15288201614050022578
137420 1 11165133421629417568
16945 1 18410573985304418950
21040471 1 18410574023959183077
29004967 10 16773800251222329606
369184 2 18334844005724610418
5084963 1 18334858354751455669

> <PUBCHEM_SHAPE_MULTIPOLES>
205.8
1.93
1.42
1.08
0.59
0
0
0
0
0.08
0
-0.2
0
0

> <PUBCHEM_SHAPE_SELFOVERLAP>
502.146

> <PUBCHEM_SHAPE_VOLUME>
103.8

> <PUBCHEM_COORDINATE_TYPE>
2
5
10

$$$$
