154253467
  -OEChem-11012401043D

 45 47  0     0  0  0  0  0  0999 V2000
   -0.5207   -0.2954   -0.1192 C   0  0  0  0  0  0  0  0  0  0  0  0
   -0.0845    1.1039    0.1126 C   0  0  0  0  0  0  0  0  0  0  0  0
   -1.9575   -0.6774   -0.1441 C   0  0  0  0  0  0  0  0  0  0  0  0
    0.3961   -1.2851   -0.2984 C   0  0  0  0  0  0  0  0  0  0  0  0
   -0.4699    2.1347   -0.7444 C   0  0  0  0  0  0  0  0  0  0  0  0
   -2.7806   -0.4751    0.9637 C   0  0  0  0  0  0  0  0  0  0  0  0
    1.8457   -1.1445   -0.3440 C   0  0  0  0  0  0  0  0  0  0  0  0
    0.7273    1.3786    1.2131 C   0  0  0  0  0  0  0  0  0  0  0  0
   -2.4785   -1.2489   -1.3049 C   0  0  0  0  0  0  0  0  0  0  0  0
    2.6665   -1.7963    0.5762 C   0  0  0  0  0  0  0  0  0  0  0  0
   -0.0434    3.4403   -0.5009 C   0  0  0  0  0  0  0  0  0  0  0  0
   -4.1247   -0.8444    0.9106 C   0  0  0  0  0  0  0  0  0  0  0  0
   -1.3395    1.8776   -1.9329 C   0  0  0  0  0  0  0  0  0  0  0  0
   -2.2570    0.1352    2.2241 C   0  0  0  0  0  0  0  0  0  0  0  0
    2.4093   -0.3384   -1.3330 C   0  0  0  0  0  0  0  0  0  0  0  0
    1.1538    2.6841    1.4566 C   0  0  0  0  0  0  0  0  0  0  0  0
   -3.8226   -1.6181   -1.3581 C   0  0  0  0  0  0  0  0  0  0  0  0
    0.7684    3.7150    0.5996 C   0  0  0  0  0  0  0  0  0  0  0  0
   -4.6457   -1.4158   -0.2502 C   0  0  0  0  0  0  0  0  0  0  0  0
    4.0511   -1.6419    0.5076 C   0  0  0  0  0  0  0  0  0  0  0  0
    2.0976   -2.6686    1.6489 C   0  0  0  0  0  0  0  0  0  0  0  0
    3.7939   -0.1839   -1.4016 C   0  0  0  0  0  0  0  0  0  0  0  0
    4.6148   -0.8357   -0.4812 C   0  0  0  0  0  0  0  0  0  0  0  0
    0.0553   -2.3121   -0.4287 H   0  0  0  0  0  0  0  0  0  0  0  0
    1.0274    0.5991    1.9088 H   0  0  0  0  0  0  0  0  0  0  0  0
   -1.8575   -1.4127   -2.1825 H   0  0  0  0  0  0  0  0  0  0  0  0
   -0.3359    4.2559   -1.1569 H   0  0  0  0  0  0  0  0  0  0  0  0
   -4.7808   -0.6921    1.7636 H   0  0  0  0  0  0  0  0  0  0  0  0
   -0.9787    1.0256   -2.5173 H   0  0  0  0  0  0  0  0  0  0  0  0
   -1.3326    2.7337   -2.6180 H   0  0  0  0  0  0  0  0  0  0  0  0
   -2.3784    1.7221   -1.6279 H   0  0  0  0  0  0  0  0  0  0  0  0
   -2.9597   -0.0101    3.0531 H   0  0  0  0  0  0  0  0  0  0  0  0
   -2.1219    1.2142    2.1064 H   0  0  0  0  0  0  0  0  0  0  0  0
   -1.3216   -0.3371    2.5399 H   0  0  0  0  0  0  0  0  0  0  0  0
    1.7923    0.1681   -2.0714 H   0  0  0  0  0  0  0  0  0  0  0  0
    1.7823    2.8988    2.3159 H   0  0  0  0  0  0  0  0  0  0  0  0
   -4.2287   -2.0619   -2.2623 H   0  0  0  0  0  0  0  0  0  0  0  0
    1.0994    4.7317    0.7903 H   0  0  0  0  0  0  0  0  0  0  0  0
   -5.6923   -1.7027   -0.2921 H   0  0  0  0  0  0  0  0  0  0  0  0
    4.7061   -2.1426    1.2157 H   0  0  0  0  0  0  0  0  0  0  0  0
    1.3822   -2.1112    2.2629 H   0  0  0  0  0  0  0  0  0  0  0  0
    2.8750   -3.0427    2.3242 H   0  0  0  0  0  0  0  0  0  0  0  0
    1.5996   -3.5397    1.2107 H   0  0  0  0  0  0  0  0  0  0  0  0
    4.2332    0.4413   -2.1735 H   0  0  0  0  0  0  0  0  0  0  0  0
    5.6929   -0.7159   -0.5353 H   0  0  0  0  0  0  0  0  0  0  0  0
  1  2  1  0  0  0  0
  1  3  1  0  0  0  0
  1  4  2  0  0  0  0
  2  5  1  0  0  0  0
  2  8  2  0  0  0  0
  3  6  1  0  0  0  0
  3  9  2  0  0  0  0
  4  7  1  0  0  0  0
  4 24  1  0  0  0  0
  5 11  2  0  0  0  0
  5 13  1  0  0  0  0
  6 12  2  0  0  0  0
  6 14  1  0  0  0  0
  7 10  1  0  0  0  0
  7 15  2  0  0  0  0
  8 16  1  0  0  0  0
  8 25  1  0  0  0  0
  9 17  1  0  0  0  0
  9 26  1  0  0  0  0
 10 20  2  0  0  0  0
 10 21  1  0  0  0  0
 11 18  1  0  0  0  0
 11 27  1  0  0  0  0
 12 19  1  0  0  0  0
 12 28  1  0  0  0  0
 13 29  1  0  0  0  0
 13 30  1  0  0  0  0
 13 31  1  0  0  0  0
 14 32  1  0  0  0  0
 14 33  1  0  0  0  0
 14 34  1  0  0  0  0
 15 22  1  0  0  0  0
 15 35  1  0  0  0  0
 16 18  2  0  0  0  0
 16 36  1  0  0  0  0
 17 19  2  0  0  0  0
 17 37  1  0  0  0  0
 18 38  1  0  0  0  0
 19 39  1  0  0  0  0
 20 23  1  0  0  0  0
 20 40  1  0  0  0  0
 21 41  1  0  0  0  0
 21 42  1  0  0  0  0
 21 43  1  0  0  0  0
 22 23  2  0  0  0  0
 22 44  1  0  0  0  0
 23 45  1  0  0  0  0
M  END
> <PUBCHEM_COMPOUND_CID>
154253467

> <PUBCHEM_CONFORMER_RMSD>
0.6

> <PUBCHEM_CONFORMER_DIVERSEORDER>
9
16
15
17
14
19
2
20
13
10
6
5
8
3
7
12
18
1
11
4

> <PUBCHEM_MMFF94_PARTIAL_CHARGES>
36
1 -0.06
10 -0.14
11 -0.15
12 -0.15
13 0.14
14 0.14
15 -0.15
16 -0.15
17 -0.15
18 -0.15
19 -0.15
2 0.03
20 -0.15
21 0.14
22 -0.15
23 -0.15
24 0.15
25 0.15
26 0.15
27 0.15
28 0.15
3 0.03
35 0.15
36 0.15
37 0.15
38 0.15
39 0.15
4 -0.18
40 0.15
44 0.15
45 0.15
5 -0.14
6 -0.14
7 0.03
8 -0.15
9 -0.15

> <PUBCHEM_EFFECTIVE_ROTOR_COUNT>
3

> <PUBCHEM_PHARMACOPHORE_FEATURES>
3
6 2 5 8 11 16 18 rings
6 3 6 9 12 17 19 rings
6 7 10 15 20 22 23 rings

> <PUBCHEM_HEAVY_ATOM_COUNT>
23

> <PUBCHEM_ATOM_DEF_STEREO_COUNT>
0

> <PUBCHEM_ATOM_UDEF_STEREO_COUNT>
0

> <PUBCHEM_BOND_DEF_STEREO_COUNT>
0

> <PUBCHEM_BOND_UDEF_STEREO_COUNT>
0

> <PUBCHEM_ISOTOPIC_ATOM_COUNT>
0

> <PUBCHEM_COMPONENT_COUNT>
1

> <PUBCHEM_CACTVS_TAUTO_COUNT>
-1

> <PUBCHEM_CONFORMER_ID>
0931B89B00000009

> <PUBCHEM_MMFF94_ENERGY>
84.9559

> <PUBCHEM_FEATURE_SELFOVERLAP>
15.224

> <PUBCHEM_SHAPE_FINGERPRINT>
10989021 7 18272088335449143361
11370993 70 16370444466423772762
11578080 2 18341036463243887185
11680986 33 18051693544644061739
12054548 360 18410288073510862917
12553582 1 18412260631746831007
12714826 92 18336547109995799854
12788726 201 18119808006432014857
13132413 78 18198646400495767177
13134695 92 18336548308576603037
13149001 5 18048618184977969070
133893 2 18124043574462446057
13583140 156 16593111862133244072
13911987 19 17678201445159469982
14181834 199 18128820931020703069
14251757 17 15864360172016441743
14347332 77 18198075677321713710
14787075 74 18409731803017173970
14955137 171 17841190810934959795
15375462 189 18410017619420246754
1601671 61 18129673997683438847
17357779 13 18335971039244538517
17492 54 18193289691825193836
17980427 23 17275109414512750697
1813 80 18272379675807653159
18222031 100 18131910468395302919
200 152 18040719138783018598
20097449 115 18412544310051852693
20510252 161 18266181639074033410
20691752 17 18262507225421346186
21296965 67 18412266120682841173
21304303 282 17251983201340313948
21339142 36 18341045207896892092
22112679 90 18200330847840005104
22182313 1 18194655207435812100
2255824 54 18268993274647017551
23419403 2 18266718299084633284
23559900 14 17023180573997659695
3380486 145 18269845207538464683
352729 6 17690831272780858471
4409770 3 18050842221948609557
474 4 17980756365960805409
57527306 92 16177724258719514341
5845 1 18126029090677647277
5895379 119 15982613713278966313
70251023 43 18338245842961661098
7164475 11 18191868925228726238
7364860 26 17985549089817192621
7495541 125 18188780585944871579
81228 2 18051146799485781489
90316 7 18270403763244535042
9981440 41 17192874551595481514

> <PUBCHEM_SHAPE_MULTIPOLES>
473.33
7.3
3.6
1.76
0.63
3.83
-0.21
-6.5
0.87
-1.14
-0.58
0.42
0.12
-0.35

> <PUBCHEM_SHAPE_SELFOVERLAP>
1034.679

> <PUBCHEM_SHAPE_VOLUME>
238.9

> <PUBCHEM_COORDINATE_TYPE>
2
5
10

$$$$
