7019105
  -OEChem-11012401123D

 25 24  0     1  0  0  0  0  0999 V2000
   -2.2246    2.0323   -0.1975 O   0  0  0  0  0  0  0  0  0  0  0  0
    3.3202   -1.7449    0.0051 O   0  0  0  0  0  0  0  0  0  0  0  0
    1.2738   -0.0422    1.5907 O   0  0  0  0  0  0  0  0  0  0  0  0
   -3.1716   -1.6686    0.3819 O   0  0  0  0  0  0  0  0  0  0  0  0
   -2.4688   -0.7175   -1.5553 O   0  0  0  0  0  0  0  0  0  0  0  0
   -0.1709    0.0713   -0.2200 N   0  0  0  0  0  0  0  0  0  0  0  0
    2.3677    1.7374   -0.7624 N   0  0  0  0  0  0  0  0  0  0  0  0
   -1.3895   -0.0948    0.5361 C   0  0  1  0  0  0  0  0  0  0  0  0
    2.2084    0.2913   -0.6219 C   0  0  2  0  0  0  0  0  0  0  0  0
    1.0793    0.0835    0.3833 C   0  0  0  0  0  0  0  0  0  0  0  0
   -1.9744    1.2444    0.9599 C   0  0  0  0  0  0  0  0  0  0  0  0
    3.5172   -0.3444   -0.1574 C   0  0  0  0  0  0  0  0  0  0  0  0
   -2.3666   -0.8477   -0.3424 C   0  0  0  0  0  0  0  0  0  0  0  0
   -1.1678   -0.7046    1.4196 H   0  0  0  0  0  0  0  0  0  0  0  0
    1.9174   -0.1525   -1.5818 H   0  0  0  0  0  0  0  0  0  0  0  0
   -0.2402    0.2195   -1.2231 H   0  0  0  0  0  0  0  0  0  0  0  0
   -1.2727    1.7956    1.5937 H   0  0  0  0  0  0  0  0  0  0  0  0
   -2.9146    1.1225    1.5077 H   0  0  0  0  0  0  0  0  0  0  0  0
    3.8489    0.0656    0.8032 H   0  0  0  0  0  0  0  0  0  0  0  0
    4.3104   -0.1911   -0.8971 H   0  0  0  0  0  0  0  0  0  0  0  0
    1.5221    2.1369   -1.1687 H   0  0  0  0  0  0  0  0  0  0  0  0
    3.1193    1.9358   -1.4218 H   0  0  0  0  0  0  0  0  0  0  0  0
   -2.9611    1.6245   -0.6835 H   0  0  0  0  0  0  0  0  0  0  0  0
    4.1690   -2.1199    0.2954 H   0  0  0  0  0  0  0  0  0  0  0  0
   -3.8189   -2.1393   -0.1855 H   0  0  0  0  0  0  0  0  0  0  0  0
  1 11  1  0  0  0  0
  1 23  1  0  0  0  0
  2 12  1  0  0  0  0
  2 24  1  0  0  0  0
  3 10  2  0  0  0  0
  4 13  1  0  0  0  0
  4 25  1  0  0  0  0
  5 13  2  0  0  0  0
  6  8  1  0  0  0  0
  6 10  1  0  0  0  0
  6 16  1  0  0  0  0
  7  9  1  0  0  0  0
  7 21  1  0  0  0  0
  7 22  1  0  0  0  0
  8 11  1  0  0  0  0
  8 13  1  0  0  0  0
  8 14  1  0  0  0  0
  9 10  1  0  0  0  0
  9 12  1  0  0  0  0
  9 15  1  0  0  0  0
 11 17  1  0  0  0  0
 11 18  1  0  0  0  0
 12 19  1  0  0  0  0
 12 20  1  0  0  0  0
M  END
> <PUBCHEM_COMPOUND_CID>
7019105

> <PUBCHEM_CONFORMER_RMSD>
0.6

> <PUBCHEM_CONFORMER_DIVERSEORDER>
1
54
111
149
48
148
61
37
142
121
138
87
75
23
116
102
66
95
60
143
150
11
154
158
115
128
83
130
89
79
144
77
93
137
141
55
46
22
157
146
14
53
131
62
19
161
39
151
133
117
125
4
159
94
12
132
41
160
69
136
108
31
9
156
44
155
47
67
29
52
34
139
126
18
106
99
162
45
5
33
81
63
26
58
50
152
38
64
73
120
123
147
35
127
30
70
72
145
119
17
27
113
74
24
28
10
140
32
56
122
86
124
153
104
129
68
114
118
40
84
97
100
135
25
49
3
20
96
88
76
43
85
105
98
42
78
112
2
110
80
101
51
134
21
103
71
91
65
107
59
16
92
8
109
15
57
36
7
82
90
6
13

> <PUBCHEM_MMFF94_PARTIAL_CHARGES>
19
1 -0.68
10 0.57
11 0.28
12 0.28
13 0.66
16 0.37
2 -0.68
21 0.36
22 0.36
23 0.4
24 0.4
25 0.5
3 -0.57
4 -0.65
5 -0.57
6 -0.73
7 -0.99
8 0.36
9 0.33

> <PUBCHEM_EFFECTIVE_ROTOR_COUNT>
6

> <PUBCHEM_PHARMACOPHORE_FEATURES>
11
1 1 acceptor
1 1 donor
1 2 acceptor
1 2 donor
1 3 acceptor
1 4 acceptor
1 5 acceptor
1 6 donor
1 7 cation
1 7 donor
3 4 5 13 anion

> <PUBCHEM_HEAVY_ATOM_COUNT>
13

> <PUBCHEM_ATOM_DEF_STEREO_COUNT>
2

> <PUBCHEM_ATOM_UDEF_STEREO_COUNT>
0

> <PUBCHEM_BOND_DEF_STEREO_COUNT>
0

> <PUBCHEM_BOND_UDEF_STEREO_COUNT>
0

> <PUBCHEM_ISOTOPIC_ATOM_COUNT>
0

> <PUBCHEM_COMPONENT_COUNT>
1

> <PUBCHEM_CACTVS_TAUTO_COUNT>
2

> <PUBCHEM_CONFORMER_ID>
006B1A6100000001

> <PUBCHEM_MMFF94_ENERGY>
15.5967

> <PUBCHEM_FEATURE_SELFOVERLAP>
55.886

> <PUBCHEM_SHAPE_FINGERPRINT>
10922523 26 18199476475971422126
124424 183 17202757078011442000
12932764 1 17632296808586665058
15310529 11 18271813457473673140
20279233 1 16128658517990572068
20653085 51 17095794460931813109
21061003 4 15841556275239518810
21524375 3 17841438025337598977
23552423 10 18409168792190620002
25610 137 18119257396120120785
3248919 1 18261109694818911802
58051976 100 18340494382483030166
74978 22 18260263014730333884
8030462 33 18341609338844811854
9939556 21 18338525148815882660

> <PUBCHEM_SHAPE_MULTIPOLES>
228.23
5.81
1.67
1.1
2.06
0.29
0.04
-1.63
-0.63
-0.56
-0.12
-0.23
0.03
-0.51

> <PUBCHEM_SHAPE_SELFOVERLAP>
439.603

> <PUBCHEM_SHAPE_VOLUME>
137.6

> <PUBCHEM_COORDINATE_TYPE>
2
5
10

$$$$
