139767
  -OEChem-11012400553D

 30 31  0     1  0  0  0  0  0999 V2000
    1.6320   -2.8479    0.3340 O   0  0  0  0  0  0  0  0  0  0  0  0
    2.2260    2.4363    0.6157 O   0  0  0  0  0  0  0  0  0  0  0  0
    0.9395    0.5640    0.9437 N   0  0  0  0  0  0  0  0  0  0  0  0
    2.8363   -0.9482   -0.1463 N   0  0  0  0  0  0  0  0  0  0  0  0
    0.4869   -0.7363    0.4768 C   0  0  1  0  0  0  0  0  0  0  0  0
   -0.3882   -0.6428   -0.7634 C   0  0  0  0  0  0  0  0  0  0  0  0
    2.8097    0.4305   -0.6093 C   0  0  1  0  0  0  0  0  0  0  0  0
    1.6985   -1.6225    0.2546 C   0  0  0  0  0  0  0  0  0  0  0  0
    2.0103    1.2462    0.3951 C   0  0  0  0  0  0  0  0  0  0  0  0
   -1.7909   -0.2082   -0.4282 C   0  0  0  0  0  0  0  0  0  0  0  0
    4.2206    0.9759   -0.7765 C   0  0  0  0  0  0  0  0  0  0  0  0
   -2.7510   -1.1663   -0.1351 C   0  0  0  0  0  0  0  0  0  0  0  0
   -2.1027    1.1439   -0.4177 C   0  0  0  0  0  0  0  0  0  0  0  0
   -4.0500   -0.7637    0.1750 C   0  0  0  0  0  0  0  0  0  0  0  0
   -3.4018    1.5465   -0.1074 C   0  0  0  0  0  0  0  0  0  0  0  0
   -4.3754    0.5926    0.1891 C   0  0  0  0  0  0  0  0  0  0  0  0
   -0.0675   -1.1755    1.3160 H   0  0  0  0  0  0  0  0  0  0  0  0
   -0.4351   -1.6175   -1.2680 H   0  0  0  0  0  0  0  0  0  0  0  0
    0.0330    0.0416   -1.5102 H   0  0  0  0  0  0  0  0  0  0  0  0
    2.2881    0.4527   -1.5718 H   0  0  0  0  0  0  0  0  0  0  0  0
    0.3472    1.0653    1.5988 H   0  0  0  0  0  0  0  0  0  0  0  0
    3.6566   -1.5093   -0.3560 H   0  0  0  0  0  0  0  0  0  0  0  0
    4.7944    0.3646   -1.4813 H   0  0  0  0  0  0  0  0  0  0  0  0
    4.2035    2.0037   -1.1542 H   0  0  0  0  0  0  0  0  0  0  0  0
    4.7603    0.9795    0.1775 H   0  0  0  0  0  0  0  0  0  0  0  0
   -2.5073   -2.2249   -0.1408 H   0  0  0  0  0  0  0  0  0  0  0  0
   -1.3528    1.8953   -0.6481 H   0  0  0  0  0  0  0  0  0  0  0  0
   -4.8080   -1.5063    0.4064 H   0  0  0  0  0  0  0  0  0  0  0  0
   -3.6551    2.6026   -0.0967 H   0  0  0  0  0  0  0  0  0  0  0  0
   -5.3867    0.9059    0.4308 H   0  0  0  0  0  0  0  0  0  0  0  0
  1  8  2  0  0  0  0
  2  9  2  0  0  0  0
  3  5  1  0  0  0  0
  3  9  1  0  0  0  0
  3 21  1  0  0  0  0
  4  7  1  0  0  0  0
  4  8  1  0  0  0  0
  4 22  1  0  0  0  0
  5  6  1  0  0  0  0
  5  8  1  0  0  0  0
  5 17  1  0  0  0  0
  6 10  1  0  0  0  0
  6 18  1  0  0  0  0
  6 19  1  0  0  0  0
  7  9  1  0  0  0  0
  7 11  1  0  0  0  0
  7 20  1  0  0  0  0
 10 12  2  0  0  0  0
 10 13  1  0  0  0  0
 11 23  1  0  0  0  0
 11 24  1  0  0  0  0
 11 25  1  0  0  0  0
 12 14  1  0  0  0  0
 12 26  1  0  0  0  0
 13 15  2  0  0  0  0
 13 27  1  0  0  0  0
 14 16  2  0  0  0  0
 14 28  1  0  0  0  0
 15 16  1  0  0  0  0
 15 29  1  0  0  0  0
 16 30  1  0  0  0  0
M  END
> <PUBCHEM_COMPOUND_CID>
139767

> <PUBCHEM_CONFORMER_RMSD>
0.6

> <PUBCHEM_CONFORMER_DIVERSEORDER>
4
23
22
21
7
10
13
11
8
14
25
18
6
16
17
26
27
2
1
15
28
9
3
5
12
20
19
24

> <PUBCHEM_MMFF94_PARTIAL_CHARGES>
22
1 -0.57
10 -0.14
12 -0.15
13 -0.15
14 -0.15
15 -0.15
16 -0.15
2 -0.57
21 0.37
22 0.37
26 0.15
27 0.15
28 0.15
29 0.15
3 -0.73
30 0.15
4 -0.73
5 0.36
6 0.14
7 0.36
8 0.57
9 0.57

> <PUBCHEM_EFFECTIVE_ROTOR_COUNT>
2.8

> <PUBCHEM_PHARMACOPHORE_FEATURES>
6
1 1 acceptor
1 2 acceptor
1 3 donor
1 4 donor
6 10 12 13 14 15 16 rings
6 3 4 5 7 8 9 rings

> <PUBCHEM_HEAVY_ATOM_COUNT>
16

> <PUBCHEM_ATOM_DEF_STEREO_COUNT>
0

> <PUBCHEM_ATOM_UDEF_STEREO_COUNT>
2

> <PUBCHEM_BOND_DEF_STEREO_COUNT>
0

> <PUBCHEM_BOND_UDEF_STEREO_COUNT>
0

> <PUBCHEM_ISOTOPIC_ATOM_COUNT>
0

> <PUBCHEM_COMPONENT_COUNT>
1

> <PUBCHEM_CACTVS_TAUTO_COUNT>
4

> <PUBCHEM_CONFORMER_ID>
000221F700000004

> <PUBCHEM_MMFF94_ENERGY>
51.4213

> <PUBCHEM_FEATURE_SELFOVERLAP>
30.454

> <PUBCHEM_SHAPE_FINGERPRINT>
10366900 7 18334858363678974699
10498660 4 18333725827911107501
10608611 8 18409442558086149645
10980938 120 18410571760448192554
11031198 65 18408046203845876934
11471102 20 18411697668929054622
11615757 297 18131638880733500611
11715629 250 18339913913511229349
12346645 44 18335138717205146638
12932764 1 17989194963201110639
13221675 6 18342455928543923629
13380535 21 18409169896245128295
14144814 61 18340764854149121675
15375462 6 18408602544013317919
15442244 35 18051411773293066995
15775835 57 18411985766708464549
16945 1 18340190964529018471
18186145 218 18060142080253774872
19050596 39 18408319973809644051
19784866 9 18335978680239206250
201361 129 18409168779284580034
20233049 118 17346313761140302000
20339313 130 18056759832258105366
20528008 55 18335134285521453831
20559304 39 18340762633376775106
20645477 70 18341892944426430319
20671657 1 18341325621858431378
21501502 16 18409725123900222351
21524375 3 18187642561371264706
221490 88 18336274461240861522
22854114 111 18412258445565779049
23402655 69 18413388713691888069
23559900 14 18266730286617794443
25 1 18409450301933068950
2916195 48 18129655452205085336
474 4 17749678483661119332
4990 188 18059867185383090404
5104073 3 18408323263807133251
633830 44 18271242836693136092
7364860 26 18339641135838122374
74978 22 15482377755379573431
77779 3 18408888408393987391
81228 2 17255671418590524914
9709674 26 18409733941600450043

> <PUBCHEM_SHAPE_MULTIPOLES>
307.57
7.77
2.15
0.83
2.95
0.44
-0.02
-2.01
-0.65
-1.13
0.32
-0.26
-0.09
-0.04

> <PUBCHEM_SHAPE_SELFOVERLAP>
648.569

> <PUBCHEM_SHAPE_VOLUME>
170.8

> <PUBCHEM_COORDINATE_TYPE>
2
5
10

$$$$
