98495
  -OEChem-11012401253D

 19 20  0     1  0  0  0  0  0999 V2000
   -1.6863    0.6898   -0.4178 O   0  0  0  0  0  0  0  0  0  0  0  0
   -2.5786   -1.3533    0.1257 O   0  0  0  0  0  0  0  0  0  0  0  0
   -0.2364    2.4550   -0.6163 O   0  0  0  0  0  0  0  0  0  0  0  0
   -0.2505   -0.8422    0.6019 C   0  0  2  0  0  0  0  0  0  0  0  0
    0.2573    0.5692    0.8541 C   0  0  1  0  0  0  0  0  0  0  0  0
    0.4907   -1.6384   -0.4814 C   0  0  0  0  0  0  0  0  0  0  0  0
    1.7704    0.7543    0.7899 C   0  0  0  0  0  0  0  0  0  0  0  0
   -1.6465   -0.5651    0.1197 C   0  0  0  0  0  0  0  0  0  0  0  0
   -0.5255    1.3626   -0.1567 C   0  0  0  0  0  0  0  0  0  0  0  0
    1.9172   -1.2496   -0.6928 C   0  0  0  0  0  0  0  0  0  0  0  0
    2.4883   -0.1823   -0.1264 C   0  0  0  0  0  0  0  0  0  0  0  0
   -0.2838   -1.3976    1.5457 H   0  0  0  0  0  0  0  0  0  0  0  0
   -0.0983    0.9250    1.8316 H   0  0  0  0  0  0  0  0  0  0  0  0
   -0.0217   -1.5636   -1.4496 H   0  0  0  0  0  0  0  0  0  0  0  0
    0.4560   -2.7012   -0.2105 H   0  0  0  0  0  0  0  0  0  0  0  0
    2.1855    0.6039    1.7947 H   0  0  0  0  0  0  0  0  0  0  0  0
    2.0163    1.7835    0.5036 H   0  0  0  0  0  0  0  0  0  0  0  0
    2.5121   -1.8768   -1.3508 H   0  0  0  0  0  0  0  0  0  0  0  0
    3.5368    0.0211   -0.3258 H   0  0  0  0  0  0  0  0  0  0  0  0
  1  8  1  0  0  0  0
  1  9  1  0  0  0  0
  2  8  2  0  0  0  0
  3  9  2  0  0  0  0
  4  5  1  0  0  0  0
  4  6  1  0  0  0  0
  4  8  1  0  0  0  0
  4 12  1  0  0  0  0
  5  7  1  0  0  0  0
  5  9  1  0  0  0  0
  5 13  1  0  0  0  0
  6 10  1  0  0  0  0
  6 14  1  0  0  0  0
  6 15  1  0  0  0  0
  7 11  1  0  0  0  0
  7 16  1  0  0  0  0
  7 17  1  0  0  0  0
 10 11  2  0  0  0  0
 10 18  1  0  0  0  0
 11 19  1  0  0  0  0
M  END
> <PUBCHEM_COMPOUND_CID>
98495

> <PUBCHEM_CONFORMER_RMSD>
0.4

> <PUBCHEM_CONFORMER_DIVERSEORDER>
1
2
4
3

> <PUBCHEM_MMFF94_PARTIAL_CHARGES>
13
1 -0.3
10 -0.29
11 -0.29
18 0.15
19 0.15
2 -0.57
3 -0.57
4 0.06
5 0.06
6 0.14
7 0.14
8 0.66
9 0.66

> <PUBCHEM_EFFECTIVE_ROTOR_COUNT>
0.6

> <PUBCHEM_PHARMACOPHORE_FEATURES>
4
1 2 acceptor
1 3 acceptor
5 1 4 5 8 9 rings
6 4 5 6 7 10 11 rings

> <PUBCHEM_HEAVY_ATOM_COUNT>
11

> <PUBCHEM_ATOM_DEF_STEREO_COUNT>
2

> <PUBCHEM_ATOM_UDEF_STEREO_COUNT>
0

> <PUBCHEM_BOND_DEF_STEREO_COUNT>
0

> <PUBCHEM_BOND_UDEF_STEREO_COUNT>
0

> <PUBCHEM_ISOTOPIC_ATOM_COUNT>
0

> <PUBCHEM_COMPONENT_COUNT>
1

> <PUBCHEM_CACTVS_TAUTO_COUNT>
3

> <PUBCHEM_CONFORMER_ID>
000180BF00000001

> <PUBCHEM_MMFF94_ENERGY>
8.3462

> <PUBCHEM_FEATURE_SELFOVERLAP>
20.483

> <PUBCHEM_SHAPE_FINGERPRINT>
12423570 1 10821256366711239530
12524768 44 18267861855664793754
12716758 59 17834393423935783810
12897270 3 18339362968007042926
13024252 1 17024621934804217690
16945 1 18193840327680096030
18185500 45 14881990912722391706
21040471 1 17759516669051474376
21061003 4 17560795507672180234
23552423 10 18261117318301771354
23559900 14 17550667713355402518
241688 4 18410018697456641936
2748010 2 18411695504196933151
29004967 10 17704070677153773058
5084963 1 18412268307201139330

> <PUBCHEM_SHAPE_MULTIPOLES>
208.77
2.86
1.97
0.87
0.16
0.55
0.07
-0.85
-0.13
-0.31
-0.41
0.15
0.09
0.47

> <PUBCHEM_SHAPE_SELFOVERLAP>
447.386

> <PUBCHEM_SHAPE_VOLUME>
115.2

> <PUBCHEM_COORDINATE_TYPE>
2
5
10

$$$$
