140328
  -OEChem-11012400323D

 27 29  0     0  0  0  0  0  0999 V2000
    1.0379   -0.4798    0.0004 N   0  0  0  0  0  0  0  0  0  0  0  0
    0.0217    0.3945    0.0009 N   0  0  0  0  0  0  0  0  0  0  0  0
    0.6999   -1.7767    0.0000 N   0  0  0  0  0  0  0  0  0  0  0  0
   -0.6274   -1.7749   -0.0002 N   0  0  0  0  0  0  0  0  0  0  0  0
    2.3646   -0.0665    0.0006 C   0  0  0  0  0  0  0  0  0  0  0  0
   -2.3757   -0.0580    0.0002 C   0  0  0  0  0  0  0  0  0  0  0  0
   -0.9982   -0.4648    0.0004 C   0  0  0  0  0  0  0  0  0  0  0  0
    3.3832   -1.0145    0.0005 C   0  0  0  0  0  0  0  0  0  0  0  0
    2.6650    1.2921   -0.0001 C   0  0  0  0  0  0  0  0  0  0  0  0
   -2.7023    1.2981    0.0007 C   0  0  0  0  0  0  0  0  0  0  0  0
   -3.3867   -1.0189   -0.0006 C   0  0  0  0  0  0  0  0  0  0  0  0
    4.7151   -0.5999   -0.0001 C   0  0  0  0  0  0  0  0  0  0  0  0
    3.9968    1.7069   -0.0009 C   0  0  0  0  0  0  0  0  0  0  0  0
   -4.0401    1.6933    0.0004 C   0  0  0  0  0  0  0  0  0  0  0  0
   -4.7245   -0.6238   -0.0010 C   0  0  0  0  0  0  0  0  0  0  0  0
    5.0218    0.7608   -0.0009 C   0  0  0  0  0  0  0  0  0  0  0  0
   -5.0511    0.7324   -0.0005 C   0  0  0  0  0  0  0  0  0  0  0  0
    3.1853   -2.0831    0.0009 H   0  0  0  0  0  0  0  0  0  0  0  0
    1.8952    2.0593   -0.0002 H   0  0  0  0  0  0  0  0  0  0  0  0
   -1.9407    2.0739    0.0014 H   0  0  0  0  0  0  0  0  0  0  0  0
   -3.1637   -2.0830   -0.0010 H   0  0  0  0  0  0  0  0  0  0  0  0
    5.5137   -1.3361   -0.0002 H   0  0  0  0  0  0  0  0  0  0  0  0
    4.2363    2.7662   -0.0015 H   0  0  0  0  0  0  0  0  0  0  0  0
   -4.2949    2.7490    0.0008 H   0  0  0  0  0  0  0  0  0  0  0  0
   -5.5120   -1.3716   -0.0017 H   0  0  0  0  0  0  0  0  0  0  0  0
    6.0587    1.0837   -0.0015 H   0  0  0  0  0  0  0  0  0  0  0  0
   -6.0927    1.0400   -0.0008 H   0  0  0  0  0  0  0  0  0  0  0  0
  1  2  1  0  0  0  0
  1  3  1  0  0  0  0
  1  5  1  0  0  0  0
  2  7  2  0  0  0  0
  3  4  2  0  0  0  0
  4  7  1  0  0  0  0
  5  8  2  0  0  0  0
  5  9  1  0  0  0  0
  6  7  1  0  0  0  0
  6 10  2  0  0  0  0
  6 11  1  0  0  0  0
  8 12  1  0  0  0  0
  8 18  1  0  0  0  0
  9 13  2  0  0  0  0
  9 19  1  0  0  0  0
 10 14  1  0  0  0  0
 10 20  1  0  0  0  0
 11 15  2  0  0  0  0
 11 21  1  0  0  0  0
 12 16  2  0  0  0  0
 12 22  1  0  0  0  0
 13 16  1  0  0  0  0
 13 23  1  0  0  0  0
 14 17  2  0  0  0  0
 14 24  1  0  0  0  0
 15 17  1  0  0  0  0
 15 25  1  0  0  0  0
 16 26  1  0  0  0  0
 17 27  1  0  0  0  0
M  END
> <PUBCHEM_COMPOUND_CID>
140328

> <PUBCHEM_CONFORMER_RMSD>
0.6

> <PUBCHEM_CONFORMER_DIVERSEORDER>
1

> <PUBCHEM_MMFF94_PARTIAL_CHARGES>
27
1 0.86
10 -0.15
11 -0.15
12 -0.15
13 -0.15
14 -0.15
15 -0.15
16 -0.15
17 -0.15
18 0.15
19 0.15
2 -0.71
20 0.15
21 0.15
22 0.15
23 0.15
24 0.15
25 0.15
26 0.15
27 0.15
3 -0.42
4 -0.23
5 -0.02
6 0.05
7 0.46
8 -0.15
9 -0.15

> <PUBCHEM_EFFECTIVE_ROTOR_COUNT>
2

> <PUBCHEM_PHARMACOPHORE_FEATURES>
4
3 2 4 7 cation
5 1 2 3 4 7 rings
6 5 8 9 12 13 16 rings
6 6 10 11 14 15 17 rings

> <PUBCHEM_HEAVY_ATOM_COUNT>
17

> <PUBCHEM_ATOM_DEF_STEREO_COUNT>
0

> <PUBCHEM_ATOM_UDEF_STEREO_COUNT>
0

> <PUBCHEM_BOND_DEF_STEREO_COUNT>
0

> <PUBCHEM_BOND_UDEF_STEREO_COUNT>
0

> <PUBCHEM_ISOTOPIC_ATOM_COUNT>
0

> <PUBCHEM_COMPONENT_COUNT>
1

> <PUBCHEM_CACTVS_TAUTO_COUNT>
1

> <PUBCHEM_CONFORMER_ID>
0002242800000001

> <PUBCHEM_MMFF94_ENERGY>
42.3198

> <PUBCHEM_FEATURE_SELFOVERLAP>
20.297

> <PUBCHEM_SHAPE_FINGERPRINT>
10014705 185 18261107444683641469
12107183 9 17688587165205900697
12403259 415 18410568491888883692
12596602 18 15647060390484681180
12916748 109 18411425011456918609
13081056 2 18410856559661135500
13167823 11 18410852165899249991
13214271 11 18335421279541773807
13533116 47 13973694880456634486
14251764 18 18260542338898938344
14252887 29 12829484818881607512
14341114 176 18335427858803943209
15196674 1 18410573989446704260
17834072 33 18342173388294062807
18186145 218 18334008376502430702
19489759 90 15647047162681196365
200 152 17988922271522028651
20300324 65 18201717371300901565
20645477 56 18410575114738432020
20645477 70 17917156000942647662
21267235 1 18410864260516391655
212847 35 18409167714728899972
21652331 79 18408602560945715381
22854114 59 18259704492977891573
23402539 116 18272644662452250797
23402655 69 18273214201138737548
23559900 14 18200031738165992230
245318 6 16810122858797635692
2916195 48 18201710799748095328
3004659 81 18335425626402358606
335352 9 18410575072722689374
351380 180 18410291419284910216
3545911 37 18411421712911485732
4047638 21 18411139143393289330
4214541 1 18410573981020170049
42788 4 18410856563934763367
474 4 17894916273298851220
474229 33 18411138073873092791
495365 180 17346025771394366624
4990 188 18060144227911457398
5104073 3 18409166605983500507
542803 24 17603307054801618220
633830 44 18410289198823917190
69090 78 18341891922028904838
7495541 125 17274254075495661163
77779 3 18410856563934756871
90127 26 18334587832062682376
9709674 26 18412270540315601670

> <PUBCHEM_SHAPE_MULTIPOLES>
329.93
11.74
1.74
0.6
0.18
0.11
0
3.03
0
0.01
0
-0.01
0.02
0

> <PUBCHEM_SHAPE_SELFOVERLAP>
728.92

> <PUBCHEM_SHAPE_VOLUME>
175.8

> <PUBCHEM_COORDINATE_TYPE>
2
5
10

$$$$
