144012
  -OEChem-10312420292D

 76 76  0     0  0  0  0  0  0999 V2000
    6.3301   -3.5000    0.0000 O   0  0  0  0  0  0  0  0  0  0  0  0
   10.6603   -1.0000    0.0000 O   0  0  0  0  0  0  0  0  0  0  0  0
    3.7320    1.0000    0.0000 O   0  0  0  0  0  0  0  0  0  0  0  0
    8.0622    3.5000    0.0000 O   0  0  0  0  0  0  0  0  0  0  0  0
    6.3301   -2.5000    0.0000 O   0  0  0  0  0  0  0  0  0  0  0  0
    9.7942   -0.5000    0.0000 O   0  0  0  0  0  0  0  0  0  0  0  0
    4.5981    0.5000    0.0000 O   0  0  0  0  0  0  0  0  0  0  0  0
    8.0622    2.5000    0.0000 O   0  0  0  0  0  0  0  0  0  0  0  0
    8.0622   -2.5000    0.0000 O   0  0  0  0  0  0  0  0  0  0  0  0
    8.9282   -2.0000    0.0000 O   0  0  0  0  0  0  0  0  0  0  0  0
    5.4641    2.0000    0.0000 O   0  0  0  0  0  0  0  0  0  0  0  0
    6.3301    2.5000    0.0000 O   0  0  0  0  0  0  0  0  0  0  0  0
    5.4641   -4.0000    0.0000 C   0  0  0  0  0  0  0  0  0  0  0  0
   11.5263   -0.5000    0.0000 C   0  0  0  0  0  0  0  0  0  0  0  0
    2.8660    0.5000    0.0000 C   0  0  0  0  0  0  0  0  0  0  0  0
    8.9282    4.0000    0.0000 C   0  0  0  0  0  0  0  0  0  0  0  0
    7.1962   -1.0000    0.0000 C   0  0  0  0  0  0  0  0  0  0  0  0
    8.0622   -0.5000    0.0000 C   0  0  0  0  0  0  0  0  0  0  0  0
    6.3301    0.5000    0.0000 C   0  0  0  0  0  0  0  0  0  0  0  0
    7.1962    1.0000    0.0000 C   0  0  0  0  0  0  0  0  0  0  0  0
    4.5981   -4.5000    0.0000 C   0  0  0  0  0  0  0  0  0  0  0  0
    5.9641   -4.8660    0.0000 C   0  0  0  0  0  0  0  0  0  0  0  0
    4.9641   -3.1340    0.0000 C   0  0  0  0  0  0  0  0  0  0  0  0
   12.3923   -0.0000    0.0000 C   0  0  0  0  0  0  0  0  0  0  0  0
   12.0263   -1.3660    0.0000 C   0  0  0  0  0  0  0  0  0  0  0  0
   11.0263    0.3660    0.0000 C   0  0  0  0  0  0  0  0  0  0  0  0
    2.0000    0.0000    0.0000 C   0  0  0  0  0  0  0  0  0  0  0  0
    2.3660    1.3660    0.0000 C   0  0  0  0  0  0  0  0  0  0  0  0
    3.3660   -0.3660    0.0000 C   0  0  0  0  0  0  0  0  0  0  0  0
    9.7942    4.5000    0.0000 C   0  0  0  0  0  0  0  0  0  0  0  0
    8.4282    4.8660    0.0000 C   0  0  0  0  0  0  0  0  0  0  0  0
    9.4282    3.1340    0.0000 C   0  0  0  0  0  0  0  0  0  0  0  0
    6.3301   -0.5000    0.0000 C   0  0  0  0  0  0  0  0  0  0  0  0
    8.0622    0.5000    0.0000 C   0  0  0  0  0  0  0  0  0  0  0  0
    7.1962   -2.0000    0.0000 C   0  0  0  0  0  0  0  0  0  0  0  0
    8.9282   -1.0000    0.0000 C   0  0  0  0  0  0  0  0  0  0  0  0
    5.4641    1.0000    0.0000 C   0  0  0  0  0  0  0  0  0  0  0  0
    7.1962    2.0000    0.0000 C   0  0  0  0  0  0  0  0  0  0  0  0
    4.2881   -3.9631    0.0000 H   0  0  0  0  0  0  0  0  0  0  0  0
    4.0611   -4.8100    0.0000 H   0  0  0  0  0  0  0  0  0  0  0  0
    4.9081   -5.0369    0.0000 H   0  0  0  0  0  0  0  0  0  0  0  0
    5.4272   -5.1760    0.0000 H   0  0  0  0  0  0  0  0  0  0  0  0
    6.2741   -5.4030    0.0000 H   0  0  0  0  0  0  0  0  0  0  0  0
    6.5010   -4.5560    0.0000 H   0  0  0  0  0  0  0  0  0  0  0  0
    5.5010   -2.8240    0.0000 H   0  0  0  0  0  0  0  0  0  0  0  0
    4.6541   -2.5970    0.0000 H   0  0  0  0  0  0  0  0  0  0  0  0
    4.4272   -3.4440    0.0000 H   0  0  0  0  0  0  0  0  0  0  0  0
   12.7023   -0.5369    0.0000 H   0  0  0  0  0  0  0  0  0  0  0  0
   12.9292    0.3100    0.0000 H   0  0  0  0  0  0  0  0  0  0  0  0
   12.0823    0.5369    0.0000 H   0  0  0  0  0  0  0  0  0  0  0  0
   11.4893   -1.6760    0.0000 H   0  0  0  0  0  0  0  0  0  0  0  0
   12.3363   -1.9030    0.0000 H   0  0  0  0  0  0  0  0  0  0  0  0
   12.5632   -1.0560    0.0000 H   0  0  0  0  0  0  0  0  0  0  0  0
   11.5632    0.6760    0.0000 H   0  0  0  0  0  0  0  0  0  0  0  0
   10.7163    0.9030    0.0000 H   0  0  0  0  0  0  0  0  0  0  0  0
   10.4893    0.0560    0.0000 H   0  0  0  0  0  0  0  0  0  0  0  0
    1.6900    0.5369    0.0000 H   0  0  0  0  0  0  0  0  0  0  0  0
    1.4631   -0.3100    0.0000 H   0  0  0  0  0  0  0  0  0  0  0  0
    2.3100   -0.5369    0.0000 H   0  0  0  0  0  0  0  0  0  0  0  0
    2.9030    1.6760    0.0000 H   0  0  0  0  0  0  0  0  0  0  0  0
    2.0560    1.9030    0.0000 H   0  0  0  0  0  0  0  0  0  0  0  0
    1.8291    1.0560    0.0000 H   0  0  0  0  0  0  0  0  0  0  0  0
    2.8291   -0.6760    0.0000 H   0  0  0  0  0  0  0  0  0  0  0  0
    3.6760   -0.9030    0.0000 H   0  0  0  0  0  0  0  0  0  0  0  0
    3.9030   -0.0560    0.0000 H   0  0  0  0  0  0  0  0  0  0  0  0
   10.1042    3.9631    0.0000 H   0  0  0  0  0  0  0  0  0  0  0  0
   10.3312    4.8100    0.0000 H   0  0  0  0  0  0  0  0  0  0  0  0
    9.4842    5.0369    0.0000 H   0  0  0  0  0  0  0  0  0  0  0  0
    8.9651    5.1760    0.0000 H   0  0  0  0  0  0  0  0  0  0  0  0
    8.1182    5.4030    0.0000 H   0  0  0  0  0  0  0  0  0  0  0  0
    7.8913    4.5560    0.0000 H   0  0  0  0  0  0  0  0  0  0  0  0
    8.8913    2.8240    0.0000 H   0  0  0  0  0  0  0  0  0  0  0  0
    9.7382    2.5970    0.0000 H   0  0  0  0  0  0  0  0  0  0  0  0
    9.9651    3.4440    0.0000 H   0  0  0  0  0  0  0  0  0  0  0  0
    5.7932   -0.8100    0.0000 H   0  0  0  0  0  0  0  0  0  0  0  0
    8.5991    0.8100    0.0000 H   0  0  0  0  0  0  0  0  0  0  0  0
  1  5  1  0  0  0  0
  1 13  1  0  0  0  0
  2  6  1  0  0  0  0
  2 14  1  0  0  0  0
  3  7  1  0  0  0  0
  3 15  1  0  0  0  0
  4  8  1  0  0  0  0
  4 16  1  0  0  0  0
  5 35  1  0  0  0  0
  6 36  1  0  0  0  0
  7 37  1  0  0  0  0
  8 38  1  0  0  0  0
  9 35  2  0  0  0  0
 10 36  2  0  0  0  0
 11 37  2  0  0  0  0
 12 38  2  0  0  0  0
 13 21  1  0  0  0  0
 13 22  1  0  0  0  0
 13 23  1  0  0  0  0
 14 24  1  0  0  0  0
 14 25  1  0  0  0  0
 14 26  1  0  0  0  0
 15 27  1  0  0  0  0
 15 28  1  0  0  0  0
 15 29  1  0  0  0  0
 16 30  1  0  0  0  0
 16 31  1  0  0  0  0
 16 32  1  0  0  0  0
 17 18  2  0  0  0  0
 17 33  1  0  0  0  0
 17 35  1  0  0  0  0
 18 34  1  0  0  0  0
 18 36  1  0  0  0  0
 19 20  1  0  0  0  0
 19 33  2  0  0  0  0
 19 37  1  0  0  0  0
 20 34  2  0  0  0  0
 20 38  1  0  0  0  0
 21 39  1  0  0  0  0
 21 40  1  0  0  0  0
 21 41  1  0  0  0  0
 22 42  1  0  0  0  0
 22 43  1  0  0  0  0
 22 44  1  0  0  0  0
 23 45  1  0  0  0  0
 23 46  1  0  0  0  0
 23 47  1  0  0  0  0
 24 48  1  0  0  0  0
 24 49  1  0  0  0  0
 24 50  1  0  0  0  0
 25 51  1  0  0  0  0
 25 52  1  0  0  0  0
 25 53  1  0  0  0  0
 26 54  1  0  0  0  0
 26 55  1  0  0  0  0
 26 56  1  0  0  0  0
 27 57  1  0  0  0  0
 27 58  1  0  0  0  0
 27 59  1  0  0  0  0
 28 60  1  0  0  0  0
 28 61  1  0  0  0  0
 28 62  1  0  0  0  0
 29 63  1  0  0  0  0
 29 64  1  0  0  0  0
 29 65  1  0  0  0  0
 30 66  1  0  0  0  0
 30 67  1  0  0  0  0
 30 68  1  0  0  0  0
 31 69  1  0  0  0  0
 31 70  1  0  0  0  0
 31 71  1  0  0  0  0
 32 72  1  0  0  0  0
 32 73  1  0  0  0  0
 32 74  1  0  0  0  0
 33 75  1  0  0  0  0
 34 76  1  0  0  0  0
M  END
> <PUBCHEM_COMPOUND_CID>
144012

> <PUBCHEM_COMPOUND_CANONICALIZED>
1

> <PUBCHEM_CACTVS_COMPLEXITY>
700

> <PUBCHEM_CACTVS_HBOND_ACCEPTOR>
12

> <PUBCHEM_CACTVS_HBOND_DONOR>
0

> <PUBCHEM_CACTVS_ROTATABLE_BOND>
16

> <PUBCHEM_CACTVS_SUBSKEYS>
AAADcfB4PAAAAAAAAAAAAAAAAAAAAAAAAAAwAAAAAAAAAAABAAAAGgAABAAADESAmAAyCIAAAACIAiDSCAACAAAkAAAAiAEACMgIJjKAFBCAMQAkwAEIiYfL7vCOwAACAAAQAACAAAQAACAAAAAAAAAAAA==

> <PUBCHEM_IUPAC_OPENEYE_NAME>
tetratert-butyl benzene-1,2,4,5-tetracarboperoxoate

> <PUBCHEM_IUPAC_CAS_NAME>
benzene-1,2,4,5-tetracarboperoxoic acid tetratert-butyl ester

> <PUBCHEM_IUPAC_NAME_MARKUP>
tetra<I>tert</I>-butyl benzene-1,2,4,5-tetracarboperoxoate

> <PUBCHEM_IUPAC_NAME>
tetratert-butyl benzene-1,2,4,5-tetracarboperoxoate

> <PUBCHEM_IUPAC_SYSTEMATIC_NAME>
tetratert-butyl benzene-1,2,4,5-tetracarboperoxoate

> <PUBCHEM_IUPAC_TRADITIONAL_NAME>
benzene-1,2,4,5-tetracarboperoxoic acid tetratert-butyl ester

> <PUBCHEM_IUPAC_INCHI>
InChI=1S/C26H38O12/c1-23(2,3)35-31-19(27)15-13-17(21(29)33-37-25(7,8)9)18(22(30)34-38-26(10,11)12)14-16(15)20(28)32-36-24(4,5)6/h13-14H,1-12H3

> <PUBCHEM_IUPAC_INCHIKEY>
KOAKWBXPXOTXGD-UHFFFAOYSA-N

> <PUBCHEM_XLOGP3_AA>
5.5

> <PUBCHEM_EXACT_MASS>
542.23632664

> <PUBCHEM_MOLECULAR_FORMULA>
C26H38O12

> <PUBCHEM_MOLECULAR_WEIGHT>
542.6

> <PUBCHEM_OPENEYE_CAN_SMILES>
CC(C)(C)OOC(=O)C1=CC(=C(C=C1C(=O)OOC(C)(C)C)C(=O)OOC(C)(C)C)C(=O)OOC(C)(C)C

> <PUBCHEM_OPENEYE_ISO_SMILES>
CC(C)(C)OOC(=O)C1=CC(=C(C=C1C(=O)OOC(C)(C)C)C(=O)OOC(C)(C)C)C(=O)OOC(C)(C)C

> <PUBCHEM_CACTVS_TPSA>
142

> <PUBCHEM_MONOISOTOPIC_WEIGHT>
542.23632664

> <PUBCHEM_TOTAL_CHARGE>
0

> <PUBCHEM_HEAVY_ATOM_COUNT>
38

> <PUBCHEM_ATOM_DEF_STEREO_COUNT>
0

> <PUBCHEM_ATOM_UDEF_STEREO_COUNT>
0

> <PUBCHEM_BOND_DEF_STEREO_COUNT>
0

> <PUBCHEM_BOND_UDEF_STEREO_COUNT>
0

> <PUBCHEM_ISOTOPIC_ATOM_COUNT>
0

> <PUBCHEM_COMPONENT_COUNT>
1

> <PUBCHEM_CACTVS_TAUTO_COUNT>
-1

> <PUBCHEM_COORDINATE_TYPE>
1
5
255

> <PUBCHEM_BONDANNOTATIONS>
17  18  8
17  33  8
18  34  8
19  20  8
19  33  8
20  34  8

$$$$
