72073
  -OEChem-11012401203D

 18 19  0     0  0  0  0  0  0999 V2000
   -0.8748    2.7466   -0.0003 O   0  0  0  0  0  0  0  0  0  0  0  0
   -1.2684   -2.7424   -0.0013 O   0  5  0  0  0  0  0  0  0  0  0  0
   -0.9578    1.4710   -0.0003 N   0  3  0  0  0  0  0  0  0  0  0  0
   -1.1038   -1.3291    0.0004 N   0  0  0  0  0  0  0  0  0  0  0  0
    0.2812    0.6837   -0.0001 C   0  0  0  0  0  0  0  0  0  0  0  0
    0.1851   -0.7259    0.0003 C   0  0  0  0  0  0  0  0  0  0  0  0
    1.5219    1.3318   -0.0002 C   0  0  0  0  0  0  0  0  0  0  0  0
    1.3823   -1.4617    0.0006 C   0  0  0  0  0  0  0  0  0  0  0  0
   -2.2492    0.8011    0.0003 C   0  0  0  0  0  0  0  0  0  0  0  0
   -2.2299   -0.5351    0.0006 C   0  0  0  0  0  0  0  0  0  0  0  0
    2.6912    0.5756   -0.0003 C   0  0  0  0  0  0  0  0  0  0  0  0
    2.6221   -0.8155    0.0002 C   0  0  0  0  0  0  0  0  0  0  0  0
    1.6001    2.4149   -0.0005 H   0  0  0  0  0  0  0  0  0  0  0  0
    1.3778   -2.5487    0.0010 H   0  0  0  0  0  0  0  0  0  0  0  0
   -3.1555    1.3925    0.0004 H   0  0  0  0  0  0  0  0  0  0  0  0
   -3.1981   -1.0329    0.0009 H   0  0  0  0  0  0  0  0  0  0  0  0
    3.6579    1.0707   -0.0006 H   0  0  0  0  0  0  0  0  0  0  0  0
    3.5365   -1.4023    0.0003 H   0  0  0  0  0  0  0  0  0  0  0  0
  1  3  2  0  0  0  0
  2  4  1  0  0  0  0
  3  5  1  0  0  0  0
  3  9  1  0  0  0  0
  4  6  1  0  0  0  0
  4 10  1  0  0  0  0
  5  6  1  0  0  0  0
  5  7  2  0  0  0  0
  6  8  2  0  0  0  0
  7 11  1  0  0  0  0
  7 13  1  0  0  0  0
  8 12  1  0  0  0  0
  8 14  1  0  0  0  0
  9 10  2  0  0  0  0
  9 15  1  0  0  0  0
 10 16  1  0  0  0  0
 11 12  2  0  0  0  0
 11 17  1  0  0  0  0
 12 18  1  0  0  0  0
M  CHG  2   2  -1   3   1
M  END
> <PUBCHEM_COMPOUND_CID>
72073

> <PUBCHEM_CONFORMER_RMSD>
0.4

> <PUBCHEM_CONFORMER_DIVERSEORDER>
1

> <PUBCHEM_MMFF94_PARTIAL_CHARGES>
18
1 -0.63
10 -0.19
11 -0.15
12 -0.15
13 0.15
14 0.15
15 0.15
16 0.15
17 0.15
18 0.15
2 -0.86
3 0.7
4 -0.08
5 -0.03
6 -0.03
7 -0.15
8 -0.15
9 -0.19

> <PUBCHEM_EFFECTIVE_ROTOR_COUNT>
0

> <PUBCHEM_PHARMACOPHORE_FEATURES>
3
1 2 anion
6 3 4 5 6 9 10 rings
6 5 6 7 8 11 12 rings

> <PUBCHEM_HEAVY_ATOM_COUNT>
12

> <PUBCHEM_ATOM_DEF_STEREO_COUNT>
0

> <PUBCHEM_ATOM_UDEF_STEREO_COUNT>
0

> <PUBCHEM_BOND_DEF_STEREO_COUNT>
0

> <PUBCHEM_BOND_UDEF_STEREO_COUNT>
0

> <PUBCHEM_ISOTOPIC_ATOM_COUNT>
0

> <PUBCHEM_COMPONENT_COUNT>
1

> <PUBCHEM_CACTVS_TAUTO_COUNT>
2

> <PUBCHEM_CONFORMER_ID>
0001198900000001

> <PUBCHEM_MMFF94_ENERGY>
41.4261

> <PUBCHEM_FEATURE_SELFOVERLAP>
15.246

> <PUBCHEM_SHAPE_FINGERPRINT>
10967382 1 18410855511673070086
11206711 2 18265897964604556292
12423570 1 10788910190795473960
12524768 44 18341618130606131998
12897270 3 18411138052018013036
16945 1 18410856547008075780
18185500 45 18266459999671816870
193761 8 15888558572181983078
19973954 147 18338801113333546444
20871998 184 18201161052133823111
21040471 1 18194682571009545156
2334 1 18050286169802212674
23552423 10 18188772884893793286
23559900 14 18199476477000252438
241688 4 18266457796369327680
2748010 2 18123750013415862692
5084963 1 18058724676521254706
528886 8 18339637944634905162
66348 1 18410011005159639020

> <PUBCHEM_SHAPE_MULTIPOLES>
225.25
3.48
2.46
0.59
0.84
0.07
0
0.05
0
-0.9
0
0.04
0
0

> <PUBCHEM_SHAPE_SELFOVERLAP>
482.408

> <PUBCHEM_SHAPE_VOLUME>
124

> <PUBCHEM_COORDINATE_TYPE>
2
5
10

$$$$
