5463118
  -OEChem-11012401153D

 32 33  0     0  0  0  0  0  0999 V2000
   -5.5180    1.0076    0.0749 O   0  5  0  0  0  0  0  0  0  0  0  0
   -3.8332    2.4046   -0.0950 O   0  0  0  0  0  0  0  0  0  0  0  0
   -4.2933    1.2374   -0.0735 N   0  3  0  0  0  0  0  0  0  0  0  0
    0.4768   -0.5802    2.7468 N   0  0  0  0  0  0  0  0  0  0  0  0
    2.6272   -0.1162   -0.0189 C   0  0  0  0  0  0  0  0  0  0  0  0
    3.1250    1.1738   -0.1038 C   0  0  0  0  0  0  0  0  0  0  0  0
    1.1996   -0.3540    0.2701 C   0  0  0  0  0  0  0  0  0  0  0  0
   -1.1591   -0.7024   -0.5334 C   0  0  0  0  0  0  0  0  0  0  0  0
    0.2649   -0.4632   -0.7081 C   0  0  0  0  0  0  0  0  0  0  0  0
    3.4468   -1.2188   -0.2010 C   0  0  0  0  0  0  0  0  0  0  0  0
    4.4790    1.3669   -0.3782 C   0  0  0  0  0  0  0  0  0  0  0  0
   -2.0352    0.3733   -0.3881 C   0  0  0  0  0  0  0  0  0  0  0  0
    2.2570    2.3755    0.0894 C   0  0  0  0  0  0  0  0  0  0  0  0
   -1.6487   -2.0084   -0.5120 C   0  0  0  0  0  0  0  0  0  0  0  0
    4.8007   -1.0255   -0.4755 C   0  0  0  0  0  0  0  0  0  0  0  0
   -3.4009    0.1429   -0.2212 C   0  0  0  0  0  0  0  0  0  0  0  0
    5.3167    0.2673   -0.5642 C   0  0  0  0  0  0  0  0  0  0  0  0
   -3.0142   -2.2388   -0.3451 C   0  0  0  0  0  0  0  0  0  0  0  0
   -3.8903   -1.1631   -0.1998 C   0  0  0  0  0  0  0  0  0  0  0  0
    0.7991   -0.4789    1.6366 C   0  0  0  0  0  0  0  0  0  0  0  0
    0.5742   -0.3696   -1.7483 H   0  0  0  0  0  0  0  0  0  0  0  0
    3.0591   -2.2321   -0.1351 H   0  0  0  0  0  0  0  0  0  0  0  0
    4.8986    2.3668   -0.4510 H   0  0  0  0  0  0  0  0  0  0  0  0
   -1.6328    1.3843   -0.4083 H   0  0  0  0  0  0  0  0  0  0  0  0
    1.8201    2.3810    1.0933 H   0  0  0  0  0  0  0  0  0  0  0  0
    2.8241    3.3069   -0.0182 H   0  0  0  0  0  0  0  0  0  0  0  0
    1.4570    2.4003   -0.6577 H   0  0  0  0  0  0  0  0  0  0  0  0
   -0.9786   -2.8574   -0.6245 H   0  0  0  0  0  0  0  0  0  0  0  0
    5.4532   -1.8816   -0.6203 H   0  0  0  0  0  0  0  0  0  0  0  0
    6.3709    0.4175   -0.7780 H   0  0  0  0  0  0  0  0  0  0  0  0
   -3.3949   -3.2559   -0.3284 H   0  0  0  0  0  0  0  0  0  0  0  0
   -4.9476   -1.3807   -0.0720 H   0  0  0  0  0  0  0  0  0  0  0  0
  1  3  1  0  0  0  0
  2  3  2  0  0  0  0
  3 16  1  0  0  0  0
  4 20  3  0  0  0  0
  5  6  1  0  0  0  0
  5  7  1  0  0  0  0
  5 10  2  0  0  0  0
  6 11  2  0  0  0  0
  6 13  1  0  0  0  0
  7  9  2  0  0  0  0
  7 20  1  0  0  0  0
  8  9  1  0  0  0  0
  8 12  2  0  0  0  0
  8 14  1  0  0  0  0
  9 21  1  0  0  0  0
 10 15  1  0  0  0  0
 10 22  1  0  0  0  0
 11 17  1  0  0  0  0
 11 23  1  0  0  0  0
 12 16  1  0  0  0  0
 12 24  1  0  0  0  0
 13 25  1  0  0  0  0
 13 26  1  0  0  0  0
 13 27  1  0  0  0  0
 14 18  2  0  0  0  0
 14 28  1  0  0  0  0
 15 17  2  0  0  0  0
 15 29  1  0  0  0  0
 16 19  2  0  0  0  0
 17 30  1  0  0  0  0
 18 19  1  0  0  0  0
 18 31  1  0  0  0  0
 19 32  1  0  0  0  0
M  CHG  2   1  -1   3   1
M  END
> <PUBCHEM_COMPOUND_CID>
5463118

> <PUBCHEM_CONFORMER_RMSD>
0.6

> <PUBCHEM_CONFORMER_DIVERSEORDER>
1
8
11
9
2
6
7
12
4
10
5
3
14
13

> <PUBCHEM_MMFF94_PARTIAL_CHARGES>
29
1 -0.52
10 -0.15
11 -0.15
12 -0.15
13 0.14
14 -0.15
15 -0.15
16 0.13
17 -0.15
18 -0.15
19 -0.15
2 -0.52
20 0.49
21 0.15
22 0.15
23 0.15
24 0.15
28 0.15
29 0.15
3 0.91
30 0.15
31 0.15
32 0.15
4 -0.56
5 0.03
6 -0.14
7 0.04
8 0.03
9 -0.18

> <PUBCHEM_EFFECTIVE_ROTOR_COUNT>
3

> <PUBCHEM_PHARMACOPHORE_FEATURES>
6
1 1 acceptor
1 1 anion
1 2 acceptor
1 4 acceptor
6 5 6 10 11 15 17 rings
6 8 12 14 16 18 19 rings

> <PUBCHEM_HEAVY_ATOM_COUNT>
20

> <PUBCHEM_ATOM_DEF_STEREO_COUNT>
0

> <PUBCHEM_ATOM_UDEF_STEREO_COUNT>
0

> <PUBCHEM_BOND_DEF_STEREO_COUNT>
1

> <PUBCHEM_BOND_UDEF_STEREO_COUNT>
0

> <PUBCHEM_ISOTOPIC_ATOM_COUNT>
0

> <PUBCHEM_COMPONENT_COUNT>
1

> <PUBCHEM_CACTVS_TAUTO_COUNT>
1

> <PUBCHEM_CONFORMER_ID>
00535C4E00000001

> <PUBCHEM_MMFF94_ENERGY>
65.3193

> <PUBCHEM_FEATURE_SELFOVERLAP>
30.528

> <PUBCHEM_SHAPE_FINGERPRINT>
10366900 7 17095239233266507089
11405975 8 18409444795653360666
11578080 2 17273680147822220048
12107183 9 17977099059326512082
12236239 1 17967531272677267015
12363563 72 15267347335650467850
124424 183 16988842782675113047
14341114 176 18410863165431593637
15196674 1 18411982498454799052
15239154 128 18411419539821622876
15309172 13 15430031080433512770
15788980 27 17346597486869708326
15848700 24 14405187266083316522
16752209 62 16415489207619695890
17349148 13 12391509814811538446
17844677 252 18339651138890398620
18186145 218 17676761059051439846
200 152 17917436462370164974
204376 136 15647051598981668442
20645477 56 18410858746400609759
21065198 57 18340205288492994142
21503847 285 18187083961998402132
22079108 93 17240491324891822297
221357 26 18343016739814719069
22224240 67 15574721309001443713
23175994 123 16773803618434563403
23402539 116 18272646848611664598
23402655 69 18409450306386272548
23559900 14 18130227060786253558
3004659 81 18410859816217277366
3545911 37 18341897393716792348
4214541 1 18412545431043552999
458136 41 16443339837019341810
474 4 17604430824594755212
5104073 3 18410008870824826122
543358 83 18410577262908051190
59755656 520 17095245825962237682
633830 44 17749389303845213334
7495541 125 17130986636791943087
77779 3 18411419552870178614
7808743 9 18340204090682648945
7832392 63 18411414050916949508

> <PUBCHEM_SHAPE_MULTIPOLES>
389.89
11
2.14
1.16
0.49
0.6
-1.05
2.6
2.29
1.23
0.23
-0.31
-0.27
-0.17

> <PUBCHEM_SHAPE_SELFOVERLAP>
842.231

> <PUBCHEM_SHAPE_VOLUME>
212.4

> <PUBCHEM_COORDINATE_TYPE>
2
5
10

$$$$
