28488
  -OEChem-11012401143D

 24 23  0     0  0  0  0  0  0999 V2000
   -0.1781    0.6873    0.4206 O   0  0  0  0  0  0  0  0  0  0  0  0
    1.0413    0.0688    0.0086 C   0  0  0  0  0  0  0  0  0  0  0  0
   -1.2927    0.1309   -0.2582 C   0  0  0  0  0  0  0  0  0  0  0  0
    0.8891   -0.3876   -1.4418 C   0  0  0  0  0  0  0  0  0  0  0  0
    2.1502    1.1117    0.1301 C   0  0  0  0  0  0  0  0  0  0  0  0
    1.3187   -1.1200    0.9275 C   0  0  0  0  0  0  0  0  0  0  0  0
   -1.3733   -1.3569    0.0473 C   0  0  0  0  0  0  0  0  0  0  0  0
   -2.5552    0.8658    0.1659 C   0  0  0  0  0  0  0  0  0  0  0  0
   -1.2661    0.3169   -1.3369 H   0  0  0  0  0  0  0  0  0  0  0  0
    0.6663    0.4682   -2.0946 H   0  0  0  0  0  0  0  0  0  0  0  0
    1.8733   -0.7440   -1.7812 H   0  0  0  0  0  0  0  0  0  0  0  0
    0.2271   -1.1950   -1.7384 H   0  0  0  0  0  0  0  0  0  0  0  0
    2.2389    1.4646    1.1641 H   0  0  0  0  0  0  0  0  0  0  0  0
    1.9225    1.9946   -0.4783 H   0  0  0  0  0  0  0  0  0  0  0  0
    3.1209    0.7157   -0.1856 H   0  0  0  0  0  0  0  0  0  0  0  0
    1.0256   -2.0909    0.5232 H   0  0  0  0  0  0  0  0  0  0  0  0
    2.3984   -1.2232    1.0968 H   0  0  0  0  0  0  0  0  0  0  0  0
    0.8531   -0.9941    1.9112 H   0  0  0  0  0  0  0  0  0  0  0  0
   -2.3705   -1.7124   -0.2475 H   0  0  0  0  0  0  0  0  0  0  0  0
   -0.7107   -2.0627   -0.4427 H   0  0  0  0  0  0  0  0  0  0  0  0
   -1.3088   -1.5341    1.1276 H   0  0  0  0  0  0  0  0  0  0  0  0
   -3.4393    0.4827   -0.3531 H   0  0  0  0  0  0  0  0  0  0  0  0
   -2.4635    1.9370   -0.0450 H   0  0  0  0  0  0  0  0  0  0  0  0
   -2.7157    0.7724    1.2457 H   0  0  0  0  0  0  0  0  0  0  0  0
  1  2  1  0  0  0  0
  1  3  1  0  0  0  0
  2  4  1  0  0  0  0
  2  5  1  0  0  0  0
  2  6  1  0  0  0  0
  3  7  1  0  0  0  0
  3  8  1  0  0  0  0
  3  9  1  0  0  0  0
  4 10  1  0  0  0  0
  4 11  1  0  0  0  0
  4 12  1  0  0  0  0
  5 13  1  0  0  0  0
  5 14  1  0  0  0  0
  5 15  1  0  0  0  0
  6 16  1  0  0  0  0
  6 17  1  0  0  0  0
  6 18  1  0  0  0  0
  7 19  1  0  0  0  0
  7 20  1  0  0  0  0
  7 21  1  0  0  0  0
  8 22  1  0  0  0  0
  8 23  1  0  0  0  0
  8 24  1  0  0  0  0
M  END
> <PUBCHEM_COMPOUND_CID>
28488

> <PUBCHEM_CONFORMER_RMSD>
0.4

> <PUBCHEM_CONFORMER_DIVERSEORDER>
1

> <PUBCHEM_MMFF94_PARTIAL_CHARGES>
3
1 -0.56
2 0.28
3 0.28

> <PUBCHEM_EFFECTIVE_ROTOR_COUNT>
2

> <PUBCHEM_PHARMACOPHORE_FEATURES>
3
1 1 acceptor
3 3 7 8 hydrophobe
4 2 4 5 6 hydrophobe

> <PUBCHEM_HEAVY_ATOM_COUNT>
8

> <PUBCHEM_ATOM_DEF_STEREO_COUNT>
0

> <PUBCHEM_ATOM_UDEF_STEREO_COUNT>
0

> <PUBCHEM_BOND_DEF_STEREO_COUNT>
0

> <PUBCHEM_BOND_UDEF_STEREO_COUNT>
0

> <PUBCHEM_ISOTOPIC_ATOM_COUNT>
0

> <PUBCHEM_COMPONENT_COUNT>
1

> <PUBCHEM_CACTVS_TAUTO_COUNT>
1

> <PUBCHEM_CONFORMER_ID>
00006F4800000001

> <PUBCHEM_MMFF94_ENERGY>
45.0243

> <PUBCHEM_FEATURE_SELFOVERLAP>
15.223

> <PUBCHEM_SHAPE_FINGERPRINT>
12423570 1 9798040117138080110
137420 1 10654154926195159102
14390081 3 18272367611302813593
18185500 45 18187078481461616939
21040471 1 18409170982781975533
23235685 24 17846780697895975121
23552423 10 18260265261045936338
24536 1 17775571909617689915
29004967 10 17274276044221536546
5084963 1 18125725831600690784
5943 1 16382299117689880894

> <PUBCHEM_SHAPE_MULTIPOLES>
158.77
2.98
1.33
1.02
0.99
0.21
-0.3
-0.86
0.3
0.01
0.2
-0.36
0.19
-0.12

> <PUBCHEM_SHAPE_SELFOVERLAP>
291.647

> <PUBCHEM_SHAPE_VOLUME>
103.9

> <PUBCHEM_COORDINATE_TYPE>
2
5
10

$$$$
