70174
  -OEChem-11012401283D

 26 27  0     0  0  0  0  0  0999 V2000
    3.3181    0.0000    0.0002 C   0  0  0  0  0  0  0  0  0  0  0  0
   -3.3168   -0.0001    0.0002 C   0  0  0  0  0  0  0  0  0  0  0  0
    4.0141    1.1435    0.3893 C   0  0  0  0  0  0  0  0  0  0  0  0
   -4.0141    1.1435   -0.3893 C   0  0  0  0  0  0  0  0  0  0  0  0
    4.0137   -1.1436   -0.3893 C   0  0  0  0  0  0  0  0  0  0  0  0
   -4.0146   -1.1437    0.3893 C   0  0  0  0  0  0  0  0  0  0  0  0
    5.4089    1.1435    0.3887 C   0  0  0  0  0  0  0  0  0  0  0  0
   -5.4089    1.1438   -0.3898 C   0  0  0  0  0  0  0  0  0  0  0  0
    5.4086   -1.1435   -0.3898 C   0  0  0  0  0  0  0  0  0  0  0  0
   -5.4095   -1.1434    0.3887 C   0  0  0  0  0  0  0  0  0  0  0  0
    6.1061    0.0001   -0.0007 C   0  0  0  0  0  0  0  0  0  0  0  0
   -6.1066    0.0003   -0.0008 C   0  0  0  0  0  0  0  0  0  0  0  0
    1.8875    0.0001    0.0007 C   0  0  0  0  0  0  0  0  0  0  0  0
   -1.8879   -0.0002    0.0008 C   0  0  0  0  0  0  0  0  0  0  0  0
    0.6867    0.0000    0.0010 C   0  0  0  0  0  0  0  0  0  0  0  0
   -0.6853   -0.0002    0.0009 C   0  0  0  0  0  0  0  0  0  0  0  0
    3.4847    2.0426    0.6955 H   0  0  0  0  0  0  0  0  0  0  0  0
   -3.4846    2.0428   -0.6952 H   0  0  0  0  0  0  0  0  0  0  0  0
    3.4842   -2.0427   -0.6952 H   0  0  0  0  0  0  0  0  0  0  0  0
   -3.4856   -2.0430    0.6956 H   0  0  0  0  0  0  0  0  0  0  0  0
    5.9522    2.0338    0.6916 H   0  0  0  0  0  0  0  0  0  0  0  0
   -5.9519    2.0342   -0.6930 H   0  0  0  0  0  0  0  0  0  0  0  0
    5.9517   -2.0338   -0.6930 H   0  0  0  0  0  0  0  0  0  0  0  0
   -5.9530   -2.0336    0.6915 H   0  0  0  0  0  0  0  0  0  0  0  0
    7.1922    0.0000   -0.0011 H   0  0  0  0  0  0  0  0  0  0  0  0
   -7.1926    0.0004   -0.0013 H   0  0  0  0  0  0  0  0  0  0  0  0
  1  3  2  0  0  0  0
  1  5  1  0  0  0  0
  1 13  1  0  0  0  0
  2  4  2  0  0  0  0
  2  6  1  0  0  0  0
  2 14  1  0  0  0  0
  3  7  1  0  0  0  0
  3 17  1  0  0  0  0
  4  8  1  0  0  0  0
  4 18  1  0  0  0  0
  5  9  2  0  0  0  0
  5 19  1  0  0  0  0
  6 10  2  0  0  0  0
  6 20  1  0  0  0  0
  7 11  2  0  0  0  0
  7 21  1  0  0  0  0
  8 12  2  0  0  0  0
  8 22  1  0  0  0  0
  9 11  1  0  0  0  0
  9 23  1  0  0  0  0
 10 12  1  0  0  0  0
 10 24  1  0  0  0  0
 11 25  1  0  0  0  0
 12 26  1  0  0  0  0
 13 15  3  0  0  0  0
 14 16  3  0  0  0  0
 15 16  1  0  0  0  0
M  END
> <PUBCHEM_COMPOUND_CID>
70174

> <PUBCHEM_CONFORMER_RMSD>
0.4

> <PUBCHEM_CONFORMER_DIVERSEORDER>
1

> <PUBCHEM_MMFF94_PARTIAL_CHARGES>
24
1 0.07
10 -0.15
11 -0.15
12 -0.15
13 -0.07
14 -0.07
17 0.15
18 0.15
19 0.15
2 0.07
20 0.15
21 0.15
22 0.15
23 0.15
24 0.15
25 0.15
26 0.15
3 -0.15
4 -0.15
5 -0.15
6 -0.15
7 -0.15
8 -0.15
9 -0.15

> <PUBCHEM_EFFECTIVE_ROTOR_COUNT>
0

> <PUBCHEM_PHARMACOPHORE_FEATURES>
2
6 1 3 5 7 9 11 rings
6 2 4 6 8 10 12 rings

> <PUBCHEM_HEAVY_ATOM_COUNT>
16

> <PUBCHEM_ATOM_DEF_STEREO_COUNT>
0

> <PUBCHEM_ATOM_UDEF_STEREO_COUNT>
0

> <PUBCHEM_BOND_DEF_STEREO_COUNT>
0

> <PUBCHEM_BOND_UDEF_STEREO_COUNT>
0

> <PUBCHEM_ISOTOPIC_ATOM_COUNT>
0

> <PUBCHEM_COMPONENT_COUNT>
1

> <PUBCHEM_CACTVS_TAUTO_COUNT>
1

> <PUBCHEM_CONFORMER_ID>
0001121E00000001

> <PUBCHEM_MMFF94_ENERGY>
28.5866

> <PUBCHEM_FEATURE_SELFOVERLAP>
10.149

> <PUBCHEM_SHAPE_FINGERPRINT>
10638233 991 16056598802539656520
11287383 113 18410856581351996490
11315181 36 18411141346854158033
12091667 2 18260830406228526539
12107183 9 17617940231690919025
12516196 113 18272368684986543881
13167372 99 17917717850878019464
13288520 33 18334577962976909175
13533116 47 14764356990325026110
1420 363 18410015441929551019
14251718 22 18335421274534610987
14251732 16 18338517550754693187
14341114 176 18412548720978114385
14933364 13 18410858762958311233
15716309 27 17988643017281092383
15778101 99 18337674106064139393
17834072 33 18272650164474233206
17834076 25 16443346468190090928
17844677 252 18411706482149666169
19489759 90 17967532368062648001
20281389 69 18260827081539237213
20645477 70 18201723908241600614
21236236 1 17917434168757825009
220451 1 16660644050715018203
2297311 6 18334299751753493405
23402539 116 18260263058017558743
23536379 177 18410573967971582184
23559900 14 18337385037147172481
239999 70 18412548695994489150
29717793 49 16988568983485299644
300161 21 18408597063255467299
3004659 81 18408042888695620338
3545911 37 18410293609686368270
4073 2 18041565840304248290
4214541 1 18408604756000752389
42788 4 18410573985151483621
542803 24 18410292514469811733

> <PUBCHEM_SHAPE_MULTIPOLES>
329.27
18.5
1.27
0.69
0.01
0
0
0
0.01
0
0
0
0
1.05

> <PUBCHEM_SHAPE_SELFOVERLAP>
704.862

> <PUBCHEM_SHAPE_VOLUME>
169.2

> <PUBCHEM_COORDINATE_TYPE>
2
5
10

$$$$
