6432667
  -OEChem-11012401123D

 31 30  0     0  0  0  0  0  0999 V2000
    3.9832   -0.8596    1.4644 F   0  0  0  0  0  0  0  0  0  0  0  0
   -3.9551   -0.8804   -1.4633 F   0  0  0  0  0  0  0  0  0  0  0  0
    1.4451    0.1903    0.9258 O   0  0  0  0  0  0  0  0  0  0  0  0
   -1.4317    0.1881   -0.8935 O   0  0  0  0  0  0  0  0  0  0  0  0
    0.0026    1.8737    0.0207 O   0  0  0  0  0  0  0  0  0  0  0  0
    5.0347    1.6036   -0.5715 O   0  5  0  0  0  0  0  0  0  0  0  0
    3.2345   -0.6891   -1.8693 O   0  5  0  0  0  0  0  0  0  0  0  0
   -5.0541    1.6085    0.5156 O   0  5  0  0  0  0  0  0  0  0  0  0
   -3.2693   -0.6571    1.8808 O   0  5  0  0  0  0  0  0  0  0  0  0
    6.0915   -0.0882    0.3512 O   0  0  0  0  0  0  0  0  0  0  0  0
    3.4338   -2.3230   -0.4128 O   0  0  0  0  0  0  0  0  0  0  0  0
   -6.0868   -0.1013   -0.4011 O   0  0  0  0  0  0  0  0  0  0  0  0
   -3.4350   -2.3133    0.4454 O   0  0  0  0  0  0  0  0  0  0  0  0
    5.0624    0.5158    0.0202 N   0  3  0  0  0  0  0  0  0  0  0  0
    3.4453   -1.1262   -0.7298 N   0  3  0  0  0  0  0  0  0  0  0  0
   -5.0664    0.5119   -0.0601 N   0  3  0  0  0  0  0  0  0  0  0  0
   -3.4572   -1.1120    0.7442 N   0  3  0  0  0  0  0  0  0  0  0  0
    3.7468   -0.1283    0.3493 C   0  0  0  0  0  0  0  0  0  0  0  0
   -3.7424   -0.1316   -0.3551 C   0  0  0  0  0  0  0  0  0  0  0  0
    2.6408    0.8753    0.5778 C   0  0  0  0  0  0  0  0  0  0  0  0
   -2.6364    0.8732   -0.5781 C   0  0  0  0  0  0  0  0  0  0  0  0
    0.3585    1.0852    1.1573 C   0  0  0  0  0  0  0  0  0  0  0  0
   -0.3447    1.0845   -1.1181 C   0  0  0  0  0  0  0  0  0  0  0  0
    2.9129    1.5424    1.4052 H   0  0  0  0  0  0  0  0  0  0  0  0
    2.4720    1.4872   -0.3159 H   0  0  0  0  0  0  0  0  0  0  0  0
   -2.8959    1.5273   -1.4197 H   0  0  0  0  0  0  0  0  0  0  0  0
   -2.4846    1.4979    0.3098 H   0  0  0  0  0  0  0  0  0  0  0  0
    0.6157    1.7659    1.9764 H   0  0  0  0  0  0  0  0  0  0  0  0
   -0.5029    0.4975    1.4895 H   0  0  0  0  0  0  0  0  0  0  0  0
   -0.5971    1.7650   -1.9389 H   0  0  0  0  0  0  0  0  0  0  0  0
    0.5183    0.4973   -1.4464 H   0  0  0  0  0  0  0  0  0  0  0  0
  1 18  1  0  0  0  0
  2 19  1  0  0  0  0
  3 20  1  0  0  0  0
  3 22  1  0  0  0  0
  4 21  1  0  0  0  0
  4 23  1  0  0  0  0
  5 22  1  0  0  0  0
  5 23  1  0  0  0  0
  6 14  1  0  0  0  0
  7 15  1  0  0  0  0
  8 16  1  0  0  0  0
  9 17  1  0  0  0  0
 10 14  2  0  0  0  0
 11 15  2  0  0  0  0
 12 16  2  0  0  0  0
 13 17  2  0  0  0  0
 14 18  1  0  0  0  0
 15 18  1  0  0  0  0
 16 19  1  0  0  0  0
 17 19  1  0  0  0  0
 18 20  1  0  0  0  0
 19 21  1  0  0  0  0
 20 24  1  0  0  0  0
 20 25  1  0  0  0  0
 21 26  1  0  0  0  0
 21 27  1  0  0  0  0
 22 28  1  0  0  0  0
 22 29  1  0  0  0  0
 23 30  1  0  0  0  0
 23 31  1  0  0  0  0
M  CHG  8   6  -1   7  -1   8  -1   9  -1  14   1  15   1  16   1  17   1
M  END
> <PUBCHEM_COMPOUND_CID>
6432667

> <PUBCHEM_CONFORMER_RMSD>
1

> <PUBCHEM_CONFORMER_DIVERSEORDER>
1
6
16
29
11
22
34
31
20
42
40
36
5
43
25
13
4
18
14
8
12
41
7
17
2
3
30
10
39
35
26
38
23
37
28
27
32
24
15
21
9
19
33

> <PUBCHEM_MMFF94_PARTIAL_CHARGES>
23
1 -0.34
10 -0.52
11 -0.52
12 -0.52
13 -0.52
14 0.8
15 0.8
16 0.8
17 0.8
18 0.82
19 0.82
2 -0.34
20 0.28
21 0.28
22 0.56
23 0.56
3 -0.56
4 -0.56
5 -0.56
6 -0.52
7 -0.52
8 -0.52
9 -0.52

> <PUBCHEM_EFFECTIVE_ROTOR_COUNT>
12

> <PUBCHEM_PHARMACOPHORE_FEATURES>
15
1 10 acceptor
1 11 acceptor
1 12 acceptor
1 13 acceptor
1 3 acceptor
1 4 acceptor
1 5 acceptor
1 6 acceptor
1 6 anion
1 7 acceptor
1 7 anion
1 8 acceptor
1 8 anion
1 9 acceptor
1 9 anion

> <PUBCHEM_HEAVY_ATOM_COUNT>
23

> <PUBCHEM_ATOM_DEF_STEREO_COUNT>
0

> <PUBCHEM_ATOM_UDEF_STEREO_COUNT>
0

> <PUBCHEM_BOND_DEF_STEREO_COUNT>
0

> <PUBCHEM_BOND_UDEF_STEREO_COUNT>
0

> <PUBCHEM_ISOTOPIC_ATOM_COUNT>
0

> <PUBCHEM_COMPONENT_COUNT>
1

> <PUBCHEM_CACTVS_TAUTO_COUNT>
1

> <PUBCHEM_CONFORMER_ID>
0062279B00000001

> <PUBCHEM_MMFF94_ENERGY>
49.5956

> <PUBCHEM_FEATURE_SELFOVERLAP>
76.529

> <PUBCHEM_SHAPE_FINGERPRINT>
12166972 35 14979947108421865505
12507557 5 15985100851530661313
12516196 113 18131348626480016889
12596602 18 15697706120858033530
12616971 3 14923947868163327071
12670546 56 14692569909757987690
12788726 201 18200308801936990641
128620 24 15791730797556488100
13533116 47 15913332347319950767
14251764 18 18202848755997285545
14251764 38 9079116682521981622
14386348 63 18410573989451816611
17349148 13 13039185909713794385
1813 80 18114185207137045893
18186145 218 11891333153510281176
192875 21 12679173947223639403
19489759 90 12247680469894632157
200 152 14923939038006011268
20645477 70 17988361464599273318
20681677 155 17603581929020412385
21033648 29 11383832623718768402
21503847 285 13901899038678922042
23402539 116 15719386240043078740
23557571 272 17894905192536682468
23559900 14 18266732657482180505
351380 180 9583517620320293022
4325135 7 18040152937992801180

> <PUBCHEM_SHAPE_MULTIPOLES>
374.3
13.94
1.73
1.32
0.06
0.51
0.02
1.04
-0.11
-0.01
0
0.01
0.2
0.31

> <PUBCHEM_SHAPE_SELFOVERLAP>
745.357

> <PUBCHEM_SHAPE_VOLUME>
220.4

> <PUBCHEM_COORDINATE_TYPE>
2
5
10

$$$$
