140736
  -OEChem-11012400553D

 35 36  0     0  0  0  0  0  0999 V2000
   -2.3058   -0.7867    0.7315 O   0  0  0  0  0  0  0  0  0  0  0  0
   -0.1402   -0.9236    0.3021 O   0  0  0  0  0  0  0  0  0  0  0  0
   -0.9935    1.0758    1.0788 O   0  0  0  0  0  0  0  0  0  0  0  0
    1.0963   -0.1506    0.3243 O   0  0  0  0  0  0  0  0  0  0  0  0
    1.9582   -2.1409   -0.4596 O   0  0  0  0  0  0  0  0  0  0  0  0
   -3.4813   -0.0170    0.5023 C   0  0  0  0  0  0  0  0  0  0  0  0
   -3.3720    0.6977   -0.8440 C   0  0  0  0  0  0  0  0  0  0  0  0
   -4.7085   -0.9255    0.5591 C   0  0  0  0  0  0  0  0  0  0  0  0
   -4.6498    1.4593   -1.1806 C   0  0  0  0  0  0  0  0  0  0  0  0
   -5.9865   -0.1641    0.2227 C   0  0  0  0  0  0  0  0  0  0  0  0
   -5.8766    0.5519   -1.1215 C   0  0  0  0  0  0  0  0  0  0  0  0
   -1.1301   -0.0917    0.7380 C   0  0  0  0  0  0  0  0  0  0  0  0
    3.3843   -0.2619   -0.1169 C   0  0  0  0  0  0  0  0  0  0  0  0
    2.0841   -0.9777   -0.1098 C   0  0  0  0  0  0  0  0  0  0  0  0
    4.3377   -0.6194   -1.0486 C   0  0  0  0  0  0  0  0  0  0  0  0
    3.6001    0.7396    0.8079 C   0  0  0  0  0  0  0  0  0  0  0  0
    5.5596    0.0533   -1.0556 C   0  0  0  0  0  0  0  0  0  0  0  0
    4.8220    1.4123    0.8008 C   0  0  0  0  0  0  0  0  0  0  0  0
    5.8018    1.0692   -0.1310 C   0  0  0  0  0  0  0  0  0  0  0  0
   -3.5719    0.7252    1.3071 H   0  0  0  0  0  0  0  0  0  0  0  0
   -3.1587   -0.0358   -1.6328 H   0  0  0  0  0  0  0  0  0  0  0  0
   -2.5348    1.4031   -0.8636 H   0  0  0  0  0  0  0  0  0  0  0  0
   -4.7896   -1.3772    1.5551 H   0  0  0  0  0  0  0  0  0  0  0  0
   -4.5787   -1.7642   -0.1373 H   0  0  0  0  0  0  0  0  0  0  0  0
   -4.5655    1.8989   -2.1808 H   0  0  0  0  0  0  0  0  0  0  0  0
   -4.7762    2.2900   -0.4755 H   0  0  0  0  0  0  0  0  0  0  0  0
   -6.1918    0.5704    1.0111 H   0  0  0  0  0  0  0  0  0  0  0  0
   -6.8348   -0.8573    0.2030 H   0  0  0  0  0  0  0  0  0  0  0  0
   -6.7816    1.1438   -1.2989 H   0  0  0  0  0  0  0  0  0  0  0  0
   -5.8180   -0.1917   -1.9259 H   0  0  0  0  0  0  0  0  0  0  0  0
    4.1598   -1.4061   -1.7758 H   0  0  0  0  0  0  0  0  0  0  0  0
    2.8601    1.0167    1.5527 H   0  0  0  0  0  0  0  0  0  0  0  0
    6.3224   -0.2132   -1.7815 H   0  0  0  0  0  0  0  0  0  0  0  0
    5.0121    2.2012    1.5227 H   0  0  0  0  0  0  0  0  0  0  0  0
    6.7534    1.5926   -0.1360 H   0  0  0  0  0  0  0  0  0  0  0  0
  1  6  1  0  0  0  0
  1 12  1  0  0  0  0
  2  4  1  0  0  0  0
  2 12  1  0  0  0  0
  3 12  2  0  0  0  0
  4 14  1  0  0  0  0
  5 14  2  0  0  0  0
  6  7  1  0  0  0  0
  6  8  1  0  0  0  0
  6 20  1  0  0  0  0
  7  9  1  0  0  0  0
  7 21  1  0  0  0  0
  7 22  1  0  0  0  0
  8 10  1  0  0  0  0
  8 23  1  0  0  0  0
  8 24  1  0  0  0  0
  9 11  1  0  0  0  0
  9 25  1  0  0  0  0
  9 26  1  0  0  0  0
 10 11  1  0  0  0  0
 10 27  1  0  0  0  0
 10 28  1  0  0  0  0
 11 29  1  0  0  0  0
 11 30  1  0  0  0  0
 13 14  1  0  0  0  0
 13 15  2  0  0  0  0
 13 16  1  0  0  0  0
 15 17  1  0  0  0  0
 15 31  1  0  0  0  0
 16 18  2  0  0  0  0
 16 32  1  0  0  0  0
 17 19  2  0  0  0  0
 17 33  1  0  0  0  0
 18 19  1  0  0  0  0
 18 34  1  0  0  0  0
 19 35  1  0  0  0  0
M  END
> <PUBCHEM_COMPOUND_CID>
140736

> <PUBCHEM_CONFORMER_RMSD>
0.8

> <PUBCHEM_CONFORMER_DIVERSEORDER>
1
152
42
15
72
162
90
20
10
120
123
26
37
14
113
107
81
155
153
70
73
103
191
117
7
21
34
27
125
104
84
89
188
74
25
60
32
184
88
36
127
29
2
53
46
40
61
180
187
48
197
5
68
38
11
170
54
174
8
83
116
157
22
97
3
16
52
86
192
198
115
30
158
98
114
100
186
160
66
64
128
148
87
199
57
112
159
71
35
178
85
169
63
102
185
176
149
9
77
43
91
138
136
96
41
141
196
47
93
45
163
171
164
12
135
108
4
182
119
55
44
195
23
76
110
137
147
94
19
118
183
75
39
122
13
121
62
78
50
142
65
79
177
106
161
111
140
6
154
109
193
105
194
99
129
69
172
95
18
28
31
134
132
67
131
167
165
150
151
101
179
139
133
58
173
175
56
49
17
130
146
59
189
51
92
181
33
126
24
80
144
156
168
190
143
166
124
82
145

> <PUBCHEM_MMFF94_PARTIAL_CHARGES>
19
1 -0.43
12 0.87
13 0.09
14 0.63
15 -0.15
16 -0.15
17 -0.15
18 -0.15
19 -0.15
2 -0.15
3 -0.57
31 0.15
32 0.15
33 0.15
34 0.15
35 0.15
4 -0.15
5 -0.57
6 0.28

> <PUBCHEM_EFFECTIVE_ROTOR_COUNT>
7.2

> <PUBCHEM_PHARMACOPHORE_FEATURES>
3
1 5 acceptor
6 13 15 16 17 18 19 rings
6 6 7 8 9 10 11 rings

> <PUBCHEM_HEAVY_ATOM_COUNT>
19

> <PUBCHEM_ATOM_DEF_STEREO_COUNT>
0

> <PUBCHEM_ATOM_UDEF_STEREO_COUNT>
0

> <PUBCHEM_BOND_DEF_STEREO_COUNT>
0

> <PUBCHEM_BOND_UDEF_STEREO_COUNT>
0

> <PUBCHEM_ISOTOPIC_ATOM_COUNT>
0

> <PUBCHEM_COMPONENT_COUNT>
1

> <PUBCHEM_CACTVS_TAUTO_COUNT>
1

> <PUBCHEM_CONFORMER_ID>
000225C000000001

> <PUBCHEM_MMFF94_ENERGY>
38.3944

> <PUBCHEM_FEATURE_SELFOVERLAP>
15.223

> <PUBCHEM_SHAPE_FINGERPRINT>
10087517 78 17022616464577116325
10693767 8 16844185450501491414
11089746 13 16298391288138985508
11128504 68 16773794813941413024
117890 112 17240199932645844324
12236239 1 16271930419540006377
12596602 18 14201403793433589917
12714333 28 18260547827023169123
12730499 353 18412831278598092814
12916748 109 17095528362122534265
12969540 114 18343291570339957519
13073987 5 17385721357887163881
13167372 99 15140670363194028484
13288520 33 14117796925863972385
13533116 47 17968371252548636186
13668630 136 16917348147618073237
14251764 18 14057007143386672906
14455015 7 9727637215127611584
14528608 73 18060136544035590488
14840074 17 17489588978415454005
15348495 7 8574416630652417269
16079462 125 18335132111598270801
17834072 33 15841834455823228672
18222031 100 15554154913875650131
19141452 34 11674884419800711304
19489759 90 17530684320735592265
200 152 17346601854598240713
20281389 69 16950278498889024325
20645477 56 18113617889628671107
20645477 70 18059300868376373062
221357 26 17775571923051640560
22950370 63 14908181953905602891
23035841 295 14692572126446370143
23402539 116 17095240349984338691
23402655 69 18273495650108325902
23522609 53 14907077021908125315
23557571 272 18114190713400676303
23559900 14 18201716301199989120
23622692 88 12540699214927277562
2767999 5 17022617576709647965
2871803 45 18202285784315697008
2916195 48 17967810561447097557
29717793 49 16486981678534997308
300161 21 17748823020833815531
3004659 81 13470407790511729800
34797466 226 18410020956609556733
351380 3 15482669074379141693
3545911 37 18410016541378005202
4325135 7 18335419097561341495
441001 317 17894911806981165277
465052 167 10735879486894891232
5104073 3 17749670667421845881
5283173 99 18188486870221638005
542803 24 17275107223709885123
5924683 9 11747522552147803033
8863177 126 11311473845236268125

> <PUBCHEM_SHAPE_MULTIPOLES>
361.66
16.66
1.39
1.13
3.26
0.1
-0.11
-4.36
-3.34
-0.25
-0.12
-0.02
-0.19
1.6

> <PUBCHEM_SHAPE_SELFOVERLAP>
752.353

> <PUBCHEM_SHAPE_VOLUME>
203.5

> <PUBCHEM_COORDINATE_TYPE>
2
5
10

$$$$
