5354125
  -OEChem-11012400523D

 22 22  0     0  0  0  0  0  0999 V2000
   -0.1150    0.0006   -0.1066 C   0  0  0  0  0  0  0  0  0  0  0  0
    1.3293    0.0024   -0.2792 C   0  0  0  0  0  0  0  0  0  0  0  0
   -0.8067    1.2075   -0.0033 C   0  0  0  0  0  0  0  0  0  0  0  0
   -0.8084   -1.2082   -0.0443 C   0  0  0  0  0  0  0  0  0  0  0  0
    1.8571    0.0405   -1.7024 C   0  0  0  0  0  0  0  0  0  0  0  0
    2.1591   -0.0166    0.8024 C   0  0  0  0  0  0  0  0  0  0  0  0
   -2.1917    1.2055    0.1623 C   0  0  0  0  0  0  0  0  0  0  0  0
   -2.1934   -1.2101    0.1211 C   0  0  0  0  0  0  0  0  0  0  0  0
   -2.8851   -0.0032    0.2243 C   0  0  0  0  0  0  0  0  0  0  0  0
    3.6548   -0.0182    0.8257 C   0  0  0  0  0  0  0  0  0  0  0  0
   -0.2811    2.1583   -0.0507 H   0  0  0  0  0  0  0  0  0  0  0  0
   -0.2841   -2.1575   -0.1240 H   0  0  0  0  0  0  0  0  0  0  0  0
    2.8623   -0.3788   -1.7932 H   0  0  0  0  0  0  0  0  0  0  0  0
    1.8698    1.0712   -2.0712 H   0  0  0  0  0  0  0  0  0  0  0  0
    1.2160   -0.5516   -2.3656 H   0  0  0  0  0  0  0  0  0  0  0  0
    1.7032   -0.0458    1.7923 H   0  0  0  0  0  0  0  0  0  0  0  0
   -2.7304    2.1451    0.2427 H   0  0  0  0  0  0  0  0  0  0  0  0
   -2.7334   -2.1512    0.1693 H   0  0  0  0  0  0  0  0  0  0  0  0
   -3.9635   -0.0047    0.3531 H   0  0  0  0  0  0  0  0  0  0  0  0
    4.1070    0.1792   -0.1481 H   0  0  0  0  0  0  0  0  0  0  0  0
    4.0080    0.7599    1.5102 H   0  0  0  0  0  0  0  0  0  0  0  0
    4.0200   -0.9829    1.1903 H   0  0  0  0  0  0  0  0  0  0  0  0
  1  2  1  0  0  0  0
  1  3  2  0  0  0  0
  1  4  1  0  0  0  0
  2  5  1  0  0  0  0
  2  6  2  0  0  0  0
  3  7  1  0  0  0  0
  3 11  1  0  0  0  0
  4  8  2  0  0  0  0
  4 12  1  0  0  0  0
  5 13  1  0  0  0  0
  5 14  1  0  0  0  0
  5 15  1  0  0  0  0
  6 10  1  0  0  0  0
  6 16  1  0  0  0  0
  7  9  2  0  0  0  0
  7 17  1  0  0  0  0
  8  9  1  0  0  0  0
  8 18  1  0  0  0  0
  9 19  1  0  0  0  0
 10 20  1  0  0  0  0
 10 21  1  0  0  0  0
 10 22  1  0  0  0  0
M  END
> <PUBCHEM_COMPOUND_CID>
5354125

> <PUBCHEM_CONFORMER_RMSD>
0.4

> <PUBCHEM_CONFORMER_DIVERSEORDER>
1
2
3

> <PUBCHEM_MMFF94_PARTIAL_CHARGES>
16
1 0.03
10 0.14
11 0.15
12 0.15
16 0.15
17 0.15
18 0.15
19 0.15
2 -0.17
3 -0.15
4 -0.15
5 0.14
6 -0.29
7 -0.15
8 -0.15
9 -0.15

> <PUBCHEM_EFFECTIVE_ROTOR_COUNT>
1

> <PUBCHEM_PHARMACOPHORE_FEATURES>
3
1 10 hydrophobe
1 5 hydrophobe
6 1 3 4 7 8 9 rings

> <PUBCHEM_HEAVY_ATOM_COUNT>
10

> <PUBCHEM_ATOM_DEF_STEREO_COUNT>
0

> <PUBCHEM_ATOM_UDEF_STEREO_COUNT>
0

> <PUBCHEM_BOND_DEF_STEREO_COUNT>
1

> <PUBCHEM_BOND_UDEF_STEREO_COUNT>
0

> <PUBCHEM_ISOTOPIC_ATOM_COUNT>
0

> <PUBCHEM_COMPONENT_COUNT>
1

> <PUBCHEM_CACTVS_TAUTO_COUNT>
1

> <PUBCHEM_CONFORMER_ID>
0051B28D00000001

> <PUBCHEM_MMFF94_ENERGY>
28.4013

> <PUBCHEM_FEATURE_SELFOVERLAP>
15.223

> <PUBCHEM_SHAPE_FINGERPRINT>
10857977 72 18272089434992452265
11031198 65 16200435784114155352
12716758 59 18270973327542576639
12932764 1 17531256075018653060
13024252 1 14707203288895930897
13839132 238 17916307138788942032
15219456 202 17632582617380588782
15310529 11 16660655093366001829
16945 1 18410865356154791967
20201158 50 17704352164851679786
20645464 45 17917993866861222859
20653085 51 15696610853042879921
20871998 184 18129662031630720023
21040471 1 18266468602818345437
23402539 116 18129925850323424357
23552423 10 17681847524327044045
2748010 2 18049736117967890885
29004967 10 16702308948595940547
3248919 1 17967821547730782607
369184 2 18342167865055751947
5084963 1 18190472566471693175
75552 356 18409724084217157746
77492 1 17676776430596811524

> <PUBCHEM_SHAPE_MULTIPOLES>
205.8
4.87
1.2
1.06
2.15
0
0.39
0.02
-1.16
-0.87
-0.03
0.91
-0.01
-0.04

> <PUBCHEM_SHAPE_SELFOVERLAP>
418.452

> <PUBCHEM_SHAPE_VOLUME>
116.5

> <PUBCHEM_COORDINATE_TYPE>
2
5
10

$$$$
