15653426
  -OEChem-11012401133D

 47 46  0     0  0  0  0  0  0999 V2000
    0.0089    0.0028    0.7782 Si  0  0  0  0  0  0  0  0  0  0  0  0
    1.2274   -1.1975    0.4936 N   0  0  0  0  0  0  0  0  0  0  0  0
    0.4638    1.4994    0.0447 N   0  0  0  0  0  0  0  0  0  0  0  0
   -1.5080   -0.5250    0.1415 N   0  0  0  0  0  0  0  0  0  0  0  0
    2.4644   -1.2256    1.2959 C   0  0  0  0  0  0  0  0  0  0  0  0
    1.5805   -1.6071   -0.8782 C   0  0  0  0  0  0  0  0  0  0  0  0
   -0.0280    2.7842    0.5675 C   0  0  0  0  0  0  0  0  0  0  0  0
    0.6712    1.6435   -1.4047 C   0  0  0  0  0  0  0  0  0  0  0  0
   -1.8815   -1.9486    0.1447 C   0  0  0  0  0  0  0  0  0  0  0  0
   -2.7392    0.2721    0.2574 C   0  0  0  0  0  0  0  0  0  0  0  0
    3.5066   -0.2753    0.7312 C   0  0  0  0  0  0  0  0  0  0  0  0
    2.1711   -3.0068   -0.8985 C   0  0  0  0  0  0  0  0  0  0  0  0
    0.9714    3.8996    0.3119 C   0  0  0  0  0  0  0  0  0  0  0  0
   -0.6231    2.0104   -2.1108 C   0  0  0  0  0  0  0  0  0  0  0  0
   -2.8033   -2.2770   -1.0174 C   0  0  0  0  0  0  0  0  0  0  0  0
   -3.4822   -0.0491    1.5430 C   0  0  0  0  0  0  0  0  0  0  0  0
   -0.1296    0.1903    2.2456 H   0  0  0  0  0  0  0  0  0  0  0  0
    2.2417   -0.9264    2.3296 H   0  0  0  0  0  0  0  0  0  0  0  0
    2.8735   -2.2362    1.4019 H   0  0  0  0  0  0  0  0  0  0  0  0
    0.6740   -1.6526   -1.4968 H   0  0  0  0  0  0  0  0  0  0  0  0
    2.2534   -0.9154   -1.3941 H   0  0  0  0  0  0  0  0  0  0  0  0
   -1.0288    3.0601    0.2203 H   0  0  0  0  0  0  0  0  0  0  0  0
   -0.1187    2.7121    1.6608 H   0  0  0  0  0  0  0  0  0  0  0  0
    1.4563    2.3714   -1.6370 H   0  0  0  0  0  0  0  0  0  0  0  0
    1.0391    0.7222   -1.8584 H   0  0  0  0  0  0  0  0  0  0  0  0
   -0.9956   -2.5782   -0.0031 H   0  0  0  0  0  0  0  0  0  0  0  0
   -2.3008   -2.2870    1.0993 H   0  0  0  0  0  0  0  0  0  0  0  0
   -2.5078    1.3428    0.2622 H   0  0  0  0  0  0  0  0  0  0  0  0
   -3.3973    0.1537   -0.6104 H   0  0  0  0  0  0  0  0  0  0  0  0
    3.9718   -0.6444   -0.1874 H   0  0  0  0  0  0  0  0  0  0  0  0
    3.1220    0.7326    0.5535 H   0  0  0  0  0  0  0  0  0  0  0  0
    4.3206   -0.1722    1.4588 H   0  0  0  0  0  0  0  0  0  0  0  0
    3.2091   -3.0369   -0.5547 H   0  0  0  0  0  0  0  0  0  0  0  0
    1.5769   -3.7074   -0.3015 H   0  0  0  0  0  0  0  0  0  0  0  0
    2.1756   -3.3845   -1.9275 H   0  0  0  0  0  0  0  0  0  0  0  0
    1.9916    3.6011    0.5771 H   0  0  0  0  0  0  0  0  0  0  0  0
    0.9605    4.2488   -0.7248 H   0  0  0  0  0  0  0  0  0  0  0  0
    0.7173    4.7658    0.9335 H   0  0  0  0  0  0  0  0  0  0  0  0
   -1.4266    1.2932   -1.9369 H   0  0  0  0  0  0  0  0  0  0  0  0
   -0.9812    3.0165   -1.8775 H   0  0  0  0  0  0  0  0  0  0  0  0
   -0.4426    2.0049   -3.1929 H   0  0  0  0  0  0  0  0  0  0  0  0
   -3.8294   -1.9340   -0.8561 H   0  0  0  0  0  0  0  0  0  0  0  0
   -2.4319   -1.8607   -1.9603 H   0  0  0  0  0  0  0  0  0  0  0  0
   -2.8570   -3.3645   -1.1440 H   0  0  0  0  0  0  0  0  0  0  0  0
   -3.9913   -1.0168    1.5108 H   0  0  0  0  0  0  0  0  0  0  0  0
   -2.8302   -0.0207    2.4222 H   0  0  0  0  0  0  0  0  0  0  0  0
   -4.2640    0.7025    1.7031 H   0  0  0  0  0  0  0  0  0  0  0  0
  1  2  1  0  0  0  0
  1  3  1  0  0  0  0
  1  4  1  0  0  0  0
  1 17  1  0  0  0  0
  2  5  1  0  0  0  0
  2  6  1  0  0  0  0
  3  7  1  0  0  0  0
  3  8  1  0  0  0  0
  4  9  1  0  0  0  0
  4 10  1  0  0  0  0
  5 11  1  0  0  0  0
  5 18  1  0  0  0  0
  5 19  1  0  0  0  0
  6 12  1  0  0  0  0
  6 20  1  0  0  0  0
  6 21  1  0  0  0  0
  7 13  1  0  0  0  0
  7 22  1  0  0  0  0
  7 23  1  0  0  0  0
  8 14  1  0  0  0  0
  8 24  1  0  0  0  0
  8 25  1  0  0  0  0
  9 15  1  0  0  0  0
  9 26  1  0  0  0  0
  9 27  1  0  0  0  0
 10 16  1  0  0  0  0
 10 28  1  0  0  0  0
 10 29  1  0  0  0  0
 11 30  1  0  0  0  0
 11 31  1  0  0  0  0
 11 32  1  0  0  0  0
 12 33  1  0  0  0  0
 12 34  1  0  0  0  0
 12 35  1  0  0  0  0
 13 36  1  0  0  0  0
 13 37  1  0  0  0  0
 13 38  1  0  0  0  0
 14 39  1  0  0  0  0
 14 40  1  0  0  0  0
 14 41  1  0  0  0  0
 15 42  1  0  0  0  0
 15 43  1  0  0  0  0
 15 44  1  0  0  0  0
 16 45  1  0  0  0  0
 16 46  1  0  0  0  0
 16 47  1  0  0  0  0
M  END
> <PUBCHEM_COMPOUND_CID>
15653426

> <PUBCHEM_CONFORMER_RMSD>
0.8

> <PUBCHEM_CONFORMER_DIVERSEORDER>
1
47
20
7
31
27
48
42
40
51
22
28
44
19
17
50
33
6
46
41
32
30
26
10
24
39
37
15
14
9
43
13
49
35
36
25
11
34
18
3
8
23
21
2
12
29
4
16
38
45
5

> <PUBCHEM_MMFF94_PARTIAL_CHARGES>
11
1 1.24
10 0.27
17 -0.2
2 -0.89
3 -0.89
4 -0.89
5 0.27
6 0.27
7 0.27
8 0.27
9 0.27

> <PUBCHEM_EFFECTIVE_ROTOR_COUNT>
9

> <PUBCHEM_PHARMACOPHORE_FEATURES>
0

> <PUBCHEM_HEAVY_ATOM_COUNT>
16

> <PUBCHEM_ATOM_DEF_STEREO_COUNT>
0

> <PUBCHEM_ATOM_UDEF_STEREO_COUNT>
0

> <PUBCHEM_BOND_DEF_STEREO_COUNT>
0

> <PUBCHEM_BOND_UDEF_STEREO_COUNT>
0

> <PUBCHEM_ISOTOPIC_ATOM_COUNT>
0

> <PUBCHEM_COMPONENT_COUNT>
1

> <PUBCHEM_CACTVS_TAUTO_COUNT>
1

> <PUBCHEM_CONFORMER_ID>
00EEDA3200000001

> <PUBCHEM_MMFF94_ENERGY>
22.2002

> <PUBCHEM_FEATURE_SELFOVERLAP>
0

> <PUBCHEM_SHAPE_FINGERPRINT>
1 1 17759235589095560914
11132069 177 18339630196893796066
11322862 65 17474963020985993094
12173636 292 17475804152203664988
12423570 1 12043130667915717392
13132413 78 18412548733826320616
14181834 199 18263922314092328903
14817 1 15193574610678554093
14955137 171 18123781817685782130
15852999 172 17104508330962923971
16945 1 18342741797177219657
20388701 513 18192426377238490690
20511035 2 17611759189931964384
20600515 1 17967257490018619338
20645476 183 16019433367852782572
20711985 344 17903645076889169394
21041028 32 18262252057478260401
21524375 3 17544480107566750873
22802520 49 17694779619310501910
23402539 116 18261105249739348362
23419403 2 17754415180033309164
23557571 272 18191021201689636946
23558518 356 17333913267381932876
2748010 2 17978508633190823731
305870 269 17905330972081108377
5845 1 9867178452022273144
6992083 37 18271531901262083227
7364860 26 18196094562887950857
81228 2 17972887955587969600
90316 7 18193811817893154602

> <PUBCHEM_SHAPE_MULTIPOLES>
332.54
4.44
4.04
1.6
1.17
2.57
0.47
-3.05
-1.35
-1.33
1.06
0.21
0.31
-0.05

> <PUBCHEM_SHAPE_SELFOVERLAP>
603.666

> <PUBCHEM_SHAPE_VOLUME>
217.5

> <PUBCHEM_COORDINATE_TYPE>
2
5
10

$$$$
