88153
  -OEChem-11012400513D

 20 20  0     0  0  0  0  0  0999 V2000
    1.0946   -0.3792   -0.4780 N   0  0  0  0  0  0  0  0  0  0  0  0
    2.2822   -0.0684   -0.2912 N   0  3  0  0  0  0  0  0  0  0  0  0
    3.3756    0.2146   -0.1313 N   0  5  0  0  0  0  0  0  0  0  0  0
    0.2204   -0.2823    0.6992 C   0  0  0  0  0  0  0  0  0  0  0  0
   -0.3570    1.1312    0.7829 C   0  0  0  0  0  0  0  0  0  0  0  0
   -0.8728   -1.3466    0.5980 C   0  0  0  0  0  0  0  0  0  0  0  0
   -1.3780    1.4183   -0.3176 C   0  0  0  0  0  0  0  0  0  0  0  0
   -1.8914   -1.0452   -0.5010 C   0  0  0  0  0  0  0  0  0  0  0  0
   -2.4735    0.3577   -0.3610 C   0  0  0  0  0  0  0  0  0  0  0  0
    0.8030   -0.4830    1.6089 H   0  0  0  0  0  0  0  0  0  0  0  0
    0.4429    1.8799    0.7391 H   0  0  0  0  0  0  0  0  0  0  0  0
   -0.8492    1.2537    1.7563 H   0  0  0  0  0  0  0  0  0  0  0  0
   -1.4005   -1.4059    1.5586 H   0  0  0  0  0  0  0  0  0  0  0  0
   -0.4275   -2.3325    0.4186 H   0  0  0  0  0  0  0  0  0  0  0  0
   -0.8717    1.4616   -1.2895 H   0  0  0  0  0  0  0  0  0  0  0  0
   -1.8279    2.4039   -0.1515 H   0  0  0  0  0  0  0  0  0  0  0  0
   -2.7000   -1.7840   -0.4633 H   0  0  0  0  0  0  0  0  0  0  0  0
   -1.4155   -1.1471   -1.4840 H   0  0  0  0  0  0  0  0  0  0  0  0
   -3.0732    0.4143    0.5557 H   0  0  0  0  0  0  0  0  0  0  0  0
   -3.1505    0.5611   -1.1983 H   0  0  0  0  0  0  0  0  0  0  0  0
  1  2  2  0  0  0  0
  1  4  1  0  0  0  0
  2  3  2  0  0  0  0
  4  5  1  0  0  0  0
  4  6  1  0  0  0  0
  4 10  1  0  0  0  0
  5  7  1  0  0  0  0
  5 11  1  0  0  0  0
  5 12  1  0  0  0  0
  6  8  1  0  0  0  0
  6 13  1  0  0  0  0
  6 14  1  0  0  0  0
  7  9  1  0  0  0  0
  7 15  1  0  0  0  0
  7 16  1  0  0  0  0
  8  9  1  0  0  0  0
  8 17  1  0  0  0  0
  8 18  1  0  0  0  0
  9 19  1  0  0  0  0
  9 20  1  0  0  0  0
M  CHG  2   2   1   3  -1
M  END
> <PUBCHEM_COMPOUND_CID>
88153

> <PUBCHEM_CONFORMER_RMSD>
0.4

> <PUBCHEM_CONFORMER_DIVERSEORDER>
1
24
18
26
3
16
4
25
19
17
7
6
5
13
11
12
10
22
8
14
21
23
20
15
9
2

> <PUBCHEM_MMFF94_PARTIAL_CHARGES>
4
1 -0.56
2 0.69
3 -0.37
4 0.25

> <PUBCHEM_EFFECTIVE_ROTOR_COUNT>
2.2

> <PUBCHEM_PHARMACOPHORE_FEATURES>
1
6 4 5 6 7 8 9 rings

> <PUBCHEM_HEAVY_ATOM_COUNT>
9

> <PUBCHEM_ATOM_DEF_STEREO_COUNT>
0

> <PUBCHEM_ATOM_UDEF_STEREO_COUNT>
0

> <PUBCHEM_BOND_DEF_STEREO_COUNT>
0

> <PUBCHEM_BOND_UDEF_STEREO_COUNT>
0

> <PUBCHEM_ISOTOPIC_ATOM_COUNT>
0

> <PUBCHEM_COMPONENT_COUNT>
1

> <PUBCHEM_CACTVS_TAUTO_COUNT>
1

> <PUBCHEM_CONFORMER_ID>
0001585900000001

> <PUBCHEM_MMFF94_ENERGY>
1.8476

> <PUBCHEM_FEATURE_SELFOVERLAP>
5.074

> <PUBCHEM_SHAPE_FINGERPRINT>
12423570 1 17194847466191798595
12716758 59 18411412886901515642
12897270 3 18201718444557448500
13024252 1 17749115503832635747
16714656 1 18410855451891648605
20201158 50 18202844357301746270
20653085 51 17023190404955883814
21040471 1 18123169222437429633
21293036 1 18409719665175864693
23552423 10 18189049970245167808
29004967 10 16773794805166849067
369184 2 18259989270847652458

> <PUBCHEM_SHAPE_MULTIPOLES>
170.27
3.7
1.38
0.85
3.27
0.07
0.1
0.18
-0.93
-0.75
0.11
-0.1
-0.01
0.04

> <PUBCHEM_SHAPE_SELFOVERLAP>
329.847

> <PUBCHEM_SHAPE_VOLUME>
101.7

> <PUBCHEM_COORDINATE_TYPE>
2
5
10

$$$$
