131409
  -OEChem-11012400383D

 28 27  0     1  0  0  0  0  0999 V2000
    1.2050    0.8407   -1.9166 O   0  0  0  0  0  0  0  0  0  0  0  0
   -1.2043   -0.8702   -1.9029 O   0  0  0  0  0  0  0  0  0  0  0  0
    1.3871    2.2626   -0.1586 O   0  0  0  0  0  0  0  0  0  0  0  0
   -1.3959   -2.2690   -0.1275 O   0  0  0  0  0  0  0  0  0  0  0  0
    4.7497    0.0770    1.0721 O   0  0  0  0  0  0  0  0  0  0  0  0
   -4.7499   -0.0517    1.0703 O   0  0  0  0  0  0  0  0  0  0  0  0
    3.8195   -0.8957   -0.7625 O   0  0  0  0  0  0  0  0  0  0  0  0
   -3.8122    0.8932   -0.7751 O   0  0  0  0  0  0  0  0  0  0  0  0
   -0.0035    0.0017    1.0974 N   0  0  0  0  0  0  0  0  0  0  0  0
    1.1938   -0.1328    0.2676 C   0  0  2  0  0  0  0  0  0  0  0  0
   -1.1918    0.1306    0.2689 C   0  0  2  0  0  0  0  0  0  0  0  0
    2.4305   -0.3052    1.1583 C   0  0  0  0  0  0  0  0  0  0  0  0
   -2.4290    0.3203    1.1555 C   0  0  0  0  0  0  0  0  0  0  0  0
    1.2658    1.1225   -0.5873 C   0  0  0  0  0  0  0  0  0  0  0  0
   -1.2684   -1.1350   -0.5702 C   0  0  0  0  0  0  0  0  0  0  0  0
    3.7079   -0.4232    0.3585 C   0  0  0  0  0  0  0  0  0  0  0  0
   -3.7045    0.4342    0.3521 C   0  0  0  0  0  0  0  0  0  0  0  0
    1.1497   -1.0122   -0.3858 H   0  0  0  0  0  0  0  0  0  0  0  0
   -1.1461    1.0021   -0.3943 H   0  0  0  0  0  0  0  0  0  0  0  0
   -0.0887   -0.8015    1.7200 H   0  0  0  0  0  0  0  0  0  0  0  0
    2.3427   -1.2046    1.7786 H   0  0  0  0  0  0  0  0  0  0  0  0
    2.5227    0.5620    1.8255 H   0  0  0  0  0  0  0  0  0  0  0  0
   -2.3363    1.2268    1.7646 H   0  0  0  0  0  0  0  0  0  0  0  0
   -2.5285   -0.5378    1.8333 H   0  0  0  0  0  0  0  0  0  0  0  0
    1.2616    1.6524   -2.4645 H   0  0  0  0  0  0  0  0  0  0  0  0
   -1.2640   -1.6885   -2.4406 H   0  0  0  0  0  0  0  0  0  0  0  0
    5.5950    0.0130    0.5785 H   0  0  0  0  0  0  0  0  0  0  0  0
   -5.5942    0.0102    0.5746 H   0  0  0  0  0  0  0  0  0  0  0  0
  1 14  1  0  0  0  0
  1 25  1  0  0  0  0
  2 15  1  0  0  0  0
  2 26  1  0  0  0  0
  3 14  2  0  0  0  0
  4 15  2  0  0  0  0
  5 16  1  0  0  0  0
  5 27  1  0  0  0  0
  6 17  1  0  0  0  0
  6 28  1  0  0  0  0
  7 16  2  0  0  0  0
  8 17  2  0  0  0  0
  9 10  1  0  0  0  0
  9 11  1  0  0  0  0
  9 20  1  0  0  0  0
 10 12  1  0  0  0  0
 10 14  1  0  0  0  0
 10 18  1  0  0  0  0
 11 13  1  0  0  0  0
 11 15  1  0  0  0  0
 11 19  1  0  0  0  0
 12 16  1  0  0  0  0
 12 21  1  0  0  0  0
 12 22  1  0  0  0  0
 13 17  1  0  0  0  0
 13 23  1  0  0  0  0
 13 24  1  0  0  0  0
M  END
> <PUBCHEM_COMPOUND_CID>
131409

> <PUBCHEM_CONFORMER_RMSD>
0.8

> <PUBCHEM_CONFORMER_DIVERSEORDER>
1
10
44
25
13
9
24
35
16
8
37
33
23
34
2
50
49
22
45
27
17
7
36
41
29
39
40
4
5
28
47
12
48
3
21
31
6
15
43
18
26
11
20
32
46
14
19
42
30
38

> <PUBCHEM_MMFF94_PARTIAL_CHARGES>
22
1 -0.65
10 0.33
11 0.33
12 0.06
13 0.06
14 0.66
15 0.66
16 0.66
17 0.66
2 -0.65
20 0.36
25 0.5
26 0.5
27 0.5
28 0.5
3 -0.57
4 -0.57
5 -0.65
6 -0.65
7 -0.57
8 -0.57
9 -0.9

> <PUBCHEM_EFFECTIVE_ROTOR_COUNT>
8

> <PUBCHEM_PHARMACOPHORE_FEATURES>
14
1 1 acceptor
1 2 acceptor
1 3 acceptor
1 4 acceptor
1 5 acceptor
1 6 acceptor
1 7 acceptor
1 8 acceptor
1 9 cation
1 9 donor
3 1 3 14 anion
3 2 4 15 anion
3 5 7 16 anion
3 6 8 17 anion

> <PUBCHEM_HEAVY_ATOM_COUNT>
17

> <PUBCHEM_ATOM_DEF_STEREO_COUNT>
0

> <PUBCHEM_ATOM_UDEF_STEREO_COUNT>
2

> <PUBCHEM_BOND_DEF_STEREO_COUNT>
0

> <PUBCHEM_BOND_UDEF_STEREO_COUNT>
0

> <PUBCHEM_ISOTOPIC_ATOM_COUNT>
0

> <PUBCHEM_COMPONENT_COUNT>
1

> <PUBCHEM_CACTVS_TAUTO_COUNT>
1

> <PUBCHEM_CONFORMER_ID>
0002015100000001

> <PUBCHEM_MMFF94_ENERGY>
24.4611

> <PUBCHEM_FEATURE_SELFOVERLAP>
71.287

> <PUBCHEM_SHAPE_FINGERPRINT>
12500047 106 17274530014502185142
13380535 76 15769775753652083366
13538477 17 18338804536454149451
13581323 91 18131913766903338017
13675066 3 18410293618281577952
14115302 16 18131074865211477993
14993402 34 18410573950796987627
15207287 21 15769773546038893159
15375462 189 17821999909435259786
15852999 172 15913333502228114982
16945 1 18410857633386894889
17834072 14 15769776857463946837
18186145 218 14548475599945607489
18511873 20 18410293618276309552
200 152 11384111947064069649
20279233 1 15985108530937415630
21041028 32 17312820472400606500
22094290 60 13840260368890094822
22344851 262 18272928328010144082
23402539 116 16415471619612502993
23557571 272 16415194645872392271
23559900 14 17346596379301097138
23598291 2 18336263564829034871
23622692 88 18410856585409593581
296302 2 16487254378508283432
3286 77 16878229748383645089
366044 4 17275101717720294427
69090 78 16917062244224228719
74978 22 18338516459832999964
83771 10 15502375620998947063

> <PUBCHEM_SHAPE_MULTIPOLES>
297.92
7.69
1.44
1.42
0.02
0.02
0.42
-0.04
-2.18
-0.01
0.38
0.01
0
-0.25

> <PUBCHEM_SHAPE_SELFOVERLAP>
593.092

> <PUBCHEM_SHAPE_VOLUME>
174.3

> <PUBCHEM_COORDINATE_TYPE>
2
5
10

$$$$
