70122
  -OEChem-11012401203D

 18 18  0     0  0  0  0  0  0999 V2000
    1.2750    1.9020    0.0026 O   0  0  0  0  0  0  0  0  0  0  0  0
   -2.6615   -0.6182    0.0025 O   0  0  0  0  0  0  0  0  0  0  0  0
   -0.7196    0.6969   -0.0007 N   0  0  0  0  0  0  0  0  0  0  0  0
    1.3815   -0.4175   -0.0006 N   0  0  0  0  0  0  0  0  0  0  0  0
    0.6980    0.8103    0.0007 C   0  0  0  0  0  0  0  0  0  0  0  0
   -1.4373   -0.5066    0.0001 C   0  0  0  0  0  0  0  0  0  0  0  0
    0.7204   -1.6240   -0.0009 C   0  0  0  0  0  0  0  0  0  0  0  0
   -0.6072   -1.7277   -0.0004 C   0  0  0  0  0  0  0  0  0  0  0  0
   -1.4900    1.9356   -0.0030 C   0  0  0  0  0  0  0  0  0  0  0  0
    2.8408   -0.4508   -0.0003 C   0  0  0  0  0  0  0  0  0  0  0  0
    1.3409   -2.5141   -0.0012 H   0  0  0  0  0  0  0  0  0  0  0  0
   -1.1027   -2.6912   -0.0004 H   0  0  0  0  0  0  0  0  0  0  0  0
   -2.5683    1.7604   -0.0160 H   0  0  0  0  0  0  0  0  0  0  0  0
   -1.2076    2.5221   -0.8832 H   0  0  0  0  0  0  0  0  0  0  0  0
   -1.2270    2.5119    0.8898 H   0  0  0  0  0  0  0  0  0  0  0  0
    3.2651    0.5566   -0.0014 H   0  0  0  0  0  0  0  0  0  0  0  0
    3.1867   -0.9788   -0.8947 H   0  0  0  0  0  0  0  0  0  0  0  0
    3.1862   -0.9765    0.8957 H   0  0  0  0  0  0  0  0  0  0  0  0
  1  5  2  0  0  0  0
  2  6  2  0  0  0  0
  3  5  1  0  0  0  0
  3  6  1  0  0  0  0
  3  9  1  0  0  0  0
  4  5  1  0  0  0  0
  4  7  1  0  0  0  0
  4 10  1  0  0  0  0
  6  8  1  0  0  0  0
  7  8  2  0  0  0  0
  7 11  1  0  0  0  0
  8 12  1  0  0  0  0
  9 13  1  0  0  0  0
  9 14  1  0  0  0  0
  9 15  1  0  0  0  0
 10 16  1  0  0  0  0
 10 17  1  0  0  0  0
 10 18  1  0  0  0  0
M  END
> <PUBCHEM_COMPOUND_CID>
70122

> <PUBCHEM_CONFORMER_RMSD>
0.4

> <PUBCHEM_CONFORMER_DIVERSEORDER>
1

> <PUBCHEM_MMFF94_PARTIAL_CHARGES>
12
1 -0.57
10 0.3
11 0.15
12 0.15
2 -0.57
3 -0.42
4 -0.47
5 0.69
6 0.62
7 -0.04
8 -0.14
9 0.3

> <PUBCHEM_EFFECTIVE_ROTOR_COUNT>
0

> <PUBCHEM_PHARMACOPHORE_FEATURES>
3
1 1 acceptor
1 2 acceptor
6 3 4 5 6 7 8 rings

> <PUBCHEM_HEAVY_ATOM_COUNT>
10

> <PUBCHEM_ATOM_DEF_STEREO_COUNT>
0

> <PUBCHEM_ATOM_UDEF_STEREO_COUNT>
0

> <PUBCHEM_BOND_DEF_STEREO_COUNT>
0

> <PUBCHEM_BOND_UDEF_STEREO_COUNT>
0

> <PUBCHEM_ISOTOPIC_ATOM_COUNT>
0

> <PUBCHEM_COMPONENT_COUNT>
1

> <PUBCHEM_CACTVS_TAUTO_COUNT>
1

> <PUBCHEM_CONFORMER_ID>
000111EA00000001

> <PUBCHEM_MMFF94_ENERGY>
17.6521

> <PUBCHEM_FEATURE_SELFOVERLAP>
15.223

> <PUBCHEM_SHAPE_FINGERPRINT>
11206711 2 18409166580324537573
12423570 1 14079479361514694271
16945 1 18410573998063012614
18185500 45 18193838128556691643
21040471 1 17978509728481356612
23552423 10 17973162017678025958
241688 4 18050571737751069834
2748010 2 18123753054089489846
5084963 1 18202846564746222266
66348 1 18410008810410258245

> <PUBCHEM_SHAPE_MULTIPOLES>
184.09
3.03
2.11
0.58
0.64
0.4
0
-0.05
0
-0.38
0
0.01
-0.02
0

> <PUBCHEM_SHAPE_SELFOVERLAP>
374.872

> <PUBCHEM_SHAPE_VOLUME>
107.7

> <PUBCHEM_COORDINATE_TYPE>
2
5
10

$$$$
