3034365
  -OEChem-11012401093D

 16 15  0     0  0  0  0  0  0999 V2000
   -1.2687    1.7321    0.5549 O   0  0  0  0  0  0  0  0  0  0  0  0
   -2.0198   -1.1663    0.4633 O   0  0  0  0  0  0  0  0  0  0  0  0
    1.8388   -1.2351    0.2846 O   0  0  0  0  0  0  0  0  0  0  0  0
   -0.0898   -0.0909   -0.3402 N   0  0  0  0  0  0  0  0  0  0  0  0
    1.9364    1.0283    0.0923 N   0  0  0  0  0  0  0  0  0  0  0  0
   -0.7252    1.1875   -0.6376 C   0  0  0  0  0  0  0  0  0  0  0  0
   -0.9341   -1.2804   -0.4424 C   0  0  0  0  0  0  0  0  0  0  0  0
    1.2623   -0.1753    0.0251 C   0  0  0  0  0  0  0  0  0  0  0  0
   -1.5436    1.0262   -1.3471 H   0  0  0  0  0  0  0  0  0  0  0  0
   -0.0445    1.9066   -1.0984 H   0  0  0  0  0  0  0  0  0  0  0  0
   -1.3208   -1.3552   -1.4631 H   0  0  0  0  0  0  0  0  0  0  0  0
   -0.3701   -2.1874   -0.2086 H   0  0  0  0  0  0  0  0  0  0  0  0
    1.5000    1.9390    0.0286 H   0  0  0  0  0  0  0  0  0  0  0  0
    2.9232    1.0394    0.3303 H   0  0  0  0  0  0  0  0  0  0  0  0
   -0.5526    1.7420    1.2121 H   0  0  0  0  0  0  0  0  0  0  0  0
   -1.6383   -0.9524    1.3316 H   0  0  0  0  0  0  0  0  0  0  0  0
  1  6  1  0  0  0  0
  1 15  1  0  0  0  0
  2  7  1  0  0  0  0
  2 16  1  0  0  0  0
  3  8  2  0  0  0  0
  4  6  1  0  0  0  0
  4  7  1  0  0  0  0
  4  8  1  0  0  0  0
  5  8  1  0  0  0  0
  5 13  1  0  0  0  0
  5 14  1  0  0  0  0
  6  9  1  0  0  0  0
  6 10  1  0  0  0  0
  7 11  1  0  0  0  0
  7 12  1  0  0  0  0
M  END
> <PUBCHEM_COMPOUND_CID>
3034365

> <PUBCHEM_CONFORMER_RMSD>
0.6

> <PUBCHEM_CONFORMER_DIVERSEORDER>
2
9
7
8
4
10
5
6
1
3

> <PUBCHEM_MMFF94_PARTIAL_CHARGES>
12
1 -0.68
13 0.37
14 0.37
15 0.4
16 0.4
2 -0.68
3 -0.57
4 -0.66
5 -0.8
6 0.58
7 0.58
8 0.69

> <PUBCHEM_EFFECTIVE_ROTOR_COUNT>
3

> <PUBCHEM_PHARMACOPHORE_FEATURES>
6
1 1 acceptor
1 1 donor
1 2 acceptor
1 2 donor
1 3 acceptor
1 5 donor

> <PUBCHEM_HEAVY_ATOM_COUNT>
8

> <PUBCHEM_ATOM_DEF_STEREO_COUNT>
0

> <PUBCHEM_ATOM_UDEF_STEREO_COUNT>
0

> <PUBCHEM_BOND_DEF_STEREO_COUNT>
0

> <PUBCHEM_BOND_UDEF_STEREO_COUNT>
0

> <PUBCHEM_ISOTOPIC_ATOM_COUNT>
0

> <PUBCHEM_COMPONENT_COUNT>
1

> <PUBCHEM_CACTVS_TAUTO_COUNT>
2

> <PUBCHEM_CONFORMER_ID>
002E4CFD00000002

> <PUBCHEM_MMFF94_ENERGY>
13.7902

> <PUBCHEM_FEATURE_SELFOVERLAP>
30.45

> <PUBCHEM_SHAPE_FINGERPRINT>
18185500 45 18052257594019212695
20096714 4 18124870170962207420
21040471 1 18051411760402896796
24536 1 18267845247158057332
29004967 10 17970064663136367731
5084963 1 17910935964310202405
5943 1 7848740257595140549

> <PUBCHEM_SHAPE_MULTIPOLES>
137.07
2.4
1.77
0.72
0.53
0.3
-0.04
-0.38
0.38
-0.51
0.12
-0.16
0.06
-0.06

> <PUBCHEM_SHAPE_SELFOVERLAP>
252.61

> <PUBCHEM_SHAPE_VOLUME>
84.5

> <PUBCHEM_COORDINATE_TYPE>
2
5
10

$$$$
