136944
  -OEChem-11012400473D

 22 23  0     0  0  0  0  0  0999 V2000
   -1.1668   -1.6067   -0.0016 O   0  0  0  0  0  0  0  0  0  0  0  0
    2.4089    0.5171    0.0013 O   0  0  0  0  0  0  0  0  0  0  0  0
    1.3356    2.4952   -0.0008 O   0  0  0  0  0  0  0  0  0  0  0  0
   -3.4345   -1.6970    0.0019 O   0  0  0  0  0  0  0  0  0  0  0  0
   -0.0406    0.5360   -0.0007 C   0  0  0  0  0  0  0  0  0  0  0  0
   -0.0087   -0.8064   -0.0015 C   0  0  0  0  0  0  0  0  0  0  0  0
   -1.3419    1.1901    0.0001 C   0  0  0  0  0  0  0  0  0  0  0  0
    1.2133   -1.5542   -0.0013 C   0  0  0  0  0  0  0  0  0  0  0  0
    2.3743   -0.8944    0.0004 C   0  0  0  0  0  0  0  0  0  0  0  0
    1.2621    1.2713   -0.0002 C   0  0  0  0  0  0  0  0  0  0  0  0
   -2.4562    0.4407    0.0005 C   0  0  0  0  0  0  0  0  0  0  0  0
   -1.4573    2.6873    0.0006 C   0  0  0  0  0  0  0  0  0  0  0  0
   -2.4039   -1.0322   -0.0001 C   0  0  0  0  0  0  0  0  0  0  0  0
    3.7157   -1.5468    0.0015 C   0  0  0  0  0  0  0  0  0  0  0  0
    1.1729   -2.6377   -0.0020 H   0  0  0  0  0  0  0  0  0  0  0  0
   -3.4443    0.8897    0.0013 H   0  0  0  0  0  0  0  0  0  0  0  0
   -0.9907    3.1147   -0.8931 H   0  0  0  0  0  0  0  0  0  0  0  0
   -0.9899    3.1141    0.8941 H   0  0  0  0  0  0  0  0  0  0  0  0
   -2.5022    3.0185    0.0012 H   0  0  0  0  0  0  0  0  0  0  0  0
    3.6406   -2.6390    0.0007 H   0  0  0  0  0  0  0  0  0  0  0  0
    4.2807   -1.2481    0.8901 H   0  0  0  0  0  0  0  0  0  0  0  0
    4.2827   -1.2470   -0.8855 H   0  0  0  0  0  0  0  0  0  0  0  0
  1  6  1  0  0  0  0
  1 13  1  0  0  0  0
  2  9  1  0  0  0  0
  2 10  1  0  0  0  0
  3 10  2  0  0  0  0
  4 13  2  0  0  0  0
  5  6  2  0  0  0  0
  5  7  1  0  0  0  0
  5 10  1  0  0  0  0
  6  8  1  0  0  0  0
  7 11  2  0  0  0  0
  7 12  1  0  0  0  0
  8  9  2  0  0  0  0
  8 15  1  0  0  0  0
  9 14  1  0  0  0  0
 11 13  1  0  0  0  0
 11 16  1  0  0  0  0
 12 17  1  0  0  0  0
 12 18  1  0  0  0  0
 12 19  1  0  0  0  0
 14 20  1  0  0  0  0
 14 21  1  0  0  0  0
 14 22  1  0  0  0  0
M  END
> <PUBCHEM_COMPOUND_CID>
136944

> <PUBCHEM_CONFORMER_RMSD>
0.4

> <PUBCHEM_CONFORMER_DIVERSEORDER>
1

> <PUBCHEM_MMFF94_PARTIAL_CHARGES>
16
1 -0.23
10 0.71
11 -0.14
12 0.14
13 0.71
14 0.14
15 0.15
16 0.15
2 -0.23
3 -0.57
4 -0.57
5 0.01
6 0.08
7 -0.14
8 -0.15
9 -0.06

> <PUBCHEM_EFFECTIVE_ROTOR_COUNT>
0

> <PUBCHEM_PHARMACOPHORE_FEATURES>
4
1 3 acceptor
1 4 acceptor
6 1 5 6 7 11 13 rings
6 2 5 6 8 9 10 rings

> <PUBCHEM_HEAVY_ATOM_COUNT>
14

> <PUBCHEM_ATOM_DEF_STEREO_COUNT>
0

> <PUBCHEM_ATOM_UDEF_STEREO_COUNT>
0

> <PUBCHEM_BOND_DEF_STEREO_COUNT>
0

> <PUBCHEM_BOND_UDEF_STEREO_COUNT>
0

> <PUBCHEM_ISOTOPIC_ATOM_COUNT>
0

> <PUBCHEM_COMPONENT_COUNT>
1

> <PUBCHEM_CACTVS_TAUTO_COUNT>
1

> <PUBCHEM_CONFORMER_ID>
000216F000000001

> <PUBCHEM_MMFF94_ENERGY>
42.2788

> <PUBCHEM_FEATURE_SELFOVERLAP>
20.324

> <PUBCHEM_SHAPE_FINGERPRINT>
10967382 1 18122626320948136807
11132069 177 18267018354463873250
11206711 2 18336548231035083263
12032990 46 18340491075806994670
12382932 28 18124310511101226730
12423570 1 14223592341972052831
13140716 1 18411705383033300905
13380535 220 18335143059554376004
161256 15 18339360880515806324
16945 1 18338797806029276487
17990270 104 18410009965935880498
193761 8 18410856563945800069
19973954 147 18410856559661005517
20588541 1 17910111313636016684
20645477 70 18266452290860226687
20871998 184 18201997673081900598
21501502 16 18410581690328275796
22802520 49 17554901974733717318
2334 1 18266741462080110729
23402539 116 18126269858112803013
23463225 33 18338801216359968543
23552423 10 18261957443747775661
23559900 14 17910390594697569542
241688 4 18408603651840846665
2748010 2 18338229474661369853
528886 8 17978785714548054328
54173680 148 18194402191101964378
5493415 88 18411414003587646810
7364860 26 18270119157648265080
8809292 202 18261397732347843515

> <PUBCHEM_SHAPE_MULTIPOLES>
264.64
4.75
2.62
0.59
1.95
1.15
0
-2.2
0
-1.02
0
0.01
0
0

> <PUBCHEM_SHAPE_SELFOVERLAP>
572.608

> <PUBCHEM_SHAPE_VOLUME>
144.4

> <PUBCHEM_COORDINATE_TYPE>
2
5
10

$$$$
