15653237
  -OEChem-10312420322D

 28 27  0     0  0  0  0  0  0999 V2000
    2.5981    4.5000    0.0000 O   0  0  0  0  0  0  0  0  0  0  0  0
    5.1962    3.0000    0.0000 O   0  5  0  0  0  0  0  0  0  0  0  0
    0.0000    3.0000    0.0000 O   0  5  0  0  0  0  0  0  0  0  0  0
    4.3301    4.5000    0.0000 O   0  0  0  0  0  0  0  0  0  0  0  0
    0.8660    4.5000    0.0000 O   0  0  0  0  0  0  0  0  0  0  0  0
    1.7320    0.0000    0.0000 O   0  5  0  0  0  0  0  0  0  0  0  0
    3.4641    0.0000    0.0000 O   0  0  0  0  0  0  0  0  0  0  0  0
    4.3301    3.5000    0.0000 N   0  3  0  0  0  0  0  0  0  0  0  0
    0.8660    3.5000    0.0000 N   0  3  0  0  0  0  0  0  0  0  0  0
    2.5981    0.5000    0.0000 N   0  3  0  0  0  0  0  0  0  0  0  0
    3.4641    8.6200    0.0000 N   0  0  0  0  0  0  0  0  0  0  0  0
    1.7320    8.6200    0.0000 N   0  0  0  0  0  0  0  0  0  0  0  0
    2.5981    7.1200    0.0000 N   0  0  0  0  0  0  0  0  0  0  0  0
    3.4641    3.0000    0.0000 C   0  0  0  0  0  0  0  0  0  0  0  0
    1.7320    3.0000    0.0000 C   0  0  0  0  0  0  0  0  0  0  0  0
    2.5981    3.5000    0.0000 C   0  0  0  0  0  0  0  0  0  0  0  0
    2.5981    1.5000    0.0000 C   0  0  0  0  0  0  0  0  0  0  0  0
    3.4641    2.0000    0.0000 C   0  0  0  0  0  0  0  0  0  0  0  0
    1.7320    2.0000    0.0000 C   0  0  0  0  0  0  0  0  0  0  0  0
    2.5981    8.1200    0.0000 C   0  0  0  0  0  0  0  0  0  0  0  0
    4.0010    1.6900    0.0000 H   0  0  0  0  0  0  0  0  0  0  0  0
    1.1951    1.6900    0.0000 H   0  0  0  0  0  0  0  0  0  0  0  0
    3.1350    4.8100    0.0000 H   0  0  0  0  0  0  0  0  0  0  0  0
    4.0010    8.3100    0.0000 H   0  0  0  0  0  0  0  0  0  0  0  0
    3.4641    9.2400    0.0000 H   0  0  0  0  0  0  0  0  0  0  0  0
    1.1951    8.3100    0.0000 H   0  0  0  0  0  0  0  0  0  0  0  0
    1.7320    9.2400    0.0000 H   0  0  0  0  0  0  0  0  0  0  0  0
    2.0611    6.8100    0.0000 H   0  0  0  0  0  0  0  0  0  0  0  0
  1 16  1  0  0  0  0
  1 23  1  0  0  0  0
  2  8  1  0  0  0  0
  3  9  1  0  0  0  0
  4  8  2  0  0  0  0
  5  9  2  0  0  0  0
  6 10  1  0  0  0  0
  7 10  2  0  0  0  0
  8 14  1  0  0  0  0
  9 15  1  0  0  0  0
 10 17  1  0  0  0  0
 11 20  1  0  0  0  0
 11 24  1  0  0  0  0
 11 25  1  0  0  0  0
 12 20  1  0  0  0  0
 12 26  1  0  0  0  0
 12 27  1  0  0  0  0
 13 20  2  0  0  0  0
 13 28  1  0  0  0  0
 14 16  2  0  0  0  0
 14 18  1  0  0  0  0
 15 16  1  0  0  0  0
 15 19  2  0  0  0  0
 17 18  2  0  0  0  0
 17 19  1  0  0  0  0
 18 21  1  0  0  0  0
 19 22  1  0  0  0  0
M  CHG  6   2  -1   3  -1   6  -1   8   1   9   1  10   1
M  END
> <PUBCHEM_COMPOUND_CID>
15653237

> <PUBCHEM_COMPOUND_CANONICALIZED>
1

> <PUBCHEM_CACTVS_COMPLEXITY>
318

> <PUBCHEM_CACTVS_HBOND_ACCEPTOR>
8

> <PUBCHEM_CACTVS_HBOND_DONOR>
4

> <PUBCHEM_CACTVS_ROTATABLE_BOND>
0

> <PUBCHEM_CACTVS_SUBSKEYS>
AAADccBjuAAAAAAAAAAAAAAAAAAAAAAAAAAwAAAAAAAAAAABAAAAHgAUCAAACAyBkAAxxoBQQgChACRCYwCCAACgIgAgiAAFbIoKJiKS0dOAcABkwFEI2AewQAAAAEAAAAQAEAAAgAAACAAgAAAAAAAAAA==

> <PUBCHEM_IUPAC_OPENEYE_NAME>
guanidine;picric acid

> <PUBCHEM_IUPAC_CAS_NAME>
guanidine;2,4,6-trinitrophenol

> <PUBCHEM_IUPAC_NAME_MARKUP>
guanidine;2,4,6-trinitrophenol

> <PUBCHEM_IUPAC_NAME>
guanidine;2,4,6-trinitrophenol

> <PUBCHEM_IUPAC_SYSTEMATIC_NAME>
guanidine;2,4,6-trinitrophenol

> <PUBCHEM_IUPAC_TRADITIONAL_NAME>
guanidine;picric acid

> <PUBCHEM_IUPAC_INCHI>
InChI=1S/C6H3N3O7.CH5N3/c10-6-4(8(13)14)1-3(7(11)12)2-5(6)9(15)16;2-1(3)4/h1-2,10H;(H5,2,3,4)

> <PUBCHEM_IUPAC_INCHIKEY>
GARCJIQFHZTIFC-UHFFFAOYSA-N

> <PUBCHEM_EXACT_MASS>
288.04544662

> <PUBCHEM_MOLECULAR_FORMULA>
C7H8N6O7

> <PUBCHEM_MOLECULAR_WEIGHT>
288.17

> <PUBCHEM_OPENEYE_CAN_SMILES>
C1=C(C=C(C(=C1[N+](=O)[O-])O)[N+](=O)[O-])[N+](=O)[O-].C(=N)(N)N

> <PUBCHEM_OPENEYE_ISO_SMILES>
C1=C(C=C(C(=C1[N+](=O)[O-])O)[N+](=O)[O-])[N+](=O)[O-].C(=N)(N)N

> <PUBCHEM_CACTVS_TPSA>
234

> <PUBCHEM_MONOISOTOPIC_WEIGHT>
288.04544662

> <PUBCHEM_TOTAL_CHARGE>
0

> <PUBCHEM_HEAVY_ATOM_COUNT>
20

> <PUBCHEM_ATOM_DEF_STEREO_COUNT>
0

> <PUBCHEM_ATOM_UDEF_STEREO_COUNT>
0

> <PUBCHEM_BOND_DEF_STEREO_COUNT>
0

> <PUBCHEM_BOND_UDEF_STEREO_COUNT>
0

> <PUBCHEM_ISOTOPIC_ATOM_COUNT>
0

> <PUBCHEM_COMPONENT_COUNT>
2

> <PUBCHEM_CACTVS_TAUTO_COUNT>
-1

> <PUBCHEM_COORDINATE_TYPE>
1
5
255

> <PUBCHEM_BONDANNOTATIONS>
14  16  8
14  18  8
15  16  8
15  19  8
17  18  8
17  19  8

$$$$
