10281
  -OEChem-11012401073D

 24 24  0     0  0  0  0  0  0999 V2000
    0.8838    2.3753    0.0022 O   0  0  0  0  0  0  0  0  0  0  0  0
   -2.0338   -2.0779   -0.0011 O   0  0  0  0  0  0  0  0  0  0  0  0
    2.3599   -0.0470    0.0001 C   0  0  0  0  0  0  0  0  0  0  0  0
    0.8635    0.0003    0.0003 C   0  0  0  0  0  0  0  0  0  0  0  0
    2.8687   -0.7468    1.2572 C   0  0  0  0  0  0  0  0  0  0  0  0
    2.8815   -0.7402   -1.2564 C   0  0  0  0  0  0  0  0  0  0  0  0
    0.2237    1.3409    0.0010 C   0  0  0  0  0  0  0  0  0  0  0  0
    0.1033   -1.1003   -0.0001 C   0  0  0  0  0  0  0  0  0  0  0  0
   -2.0136    0.2970   -0.0006 C   0  0  0  0  0  0  0  0  0  0  0  0
   -1.3738   -1.0434   -0.0007 C   0  0  0  0  0  0  0  0  0  0  0  0
   -1.2533    1.3977    0.0000 C   0  0  0  0  0  0  0  0  0  0  0  0
   -3.5099    0.3446   -0.0019 C   0  0  0  0  0  0  0  0  0  0  0  0
    2.7813    0.9649    0.0048 H   0  0  0  0  0  0  0  0  0  0  0  0
    2.5854   -1.8046    1.2910 H   0  0  0  0  0  0  0  0  0  0  0  0
    2.4843   -0.2632    2.1624 H   0  0  0  0  0  0  0  0  0  0  0  0
    3.9628   -0.7026    1.3006 H   0  0  0  0  0  0  0  0  0  0  0  0
    2.5061   -0.2501   -2.1618 H   0  0  0  0  0  0  0  0  0  0  0  0
    2.5955   -1.7970   -1.2992 H   0  0  0  0  0  0  0  0  0  0  0  0
    3.9760   -0.6977   -1.2885 H   0  0  0  0  0  0  0  0  0  0  0  0
    0.5396   -2.0939   -0.0011 H   0  0  0  0  0  0  0  0  0  0  0  0
   -1.6991    2.3874   -0.0001 H   0  0  0  0  0  0  0  0  0  0  0  0
   -3.9092   -0.1552    0.8867 H   0  0  0  0  0  0  0  0  0  0  0  0
   -3.9078   -0.1552   -0.8912 H   0  0  0  0  0  0  0  0  0  0  0  0
   -3.8873    1.3727   -0.0022 H   0  0  0  0  0  0  0  0  0  0  0  0
  1  7  2  0  0  0  0
  2 10  2  0  0  0  0
  3  4  1  0  0  0  0
  3  5  1  0  0  0  0
  3  6  1  0  0  0  0
  3 13  1  0  0  0  0
  4  7  1  0  0  0  0
  4  8  2  0  0  0  0
  5 14  1  0  0  0  0
  5 15  1  0  0  0  0
  5 16  1  0  0  0  0
  6 17  1  0  0  0  0
  6 18  1  0  0  0  0
  6 19  1  0  0  0  0
  7 11  1  0  0  0  0
  8 10  1  0  0  0  0
  8 20  1  0  0  0  0
  9 10  1  0  0  0  0
  9 11  2  0  0  0  0
  9 12  1  0  0  0  0
 11 21  1  0  0  0  0
 12 22  1  0  0  0  0
 12 23  1  0  0  0  0
 12 24  1  0  0  0  0
M  END
> <PUBCHEM_COMPOUND_CID>
10281

> <PUBCHEM_CONFORMER_RMSD>
0.4

> <PUBCHEM_CONFORMER_DIVERSEORDER>
1
2
3
4

> <PUBCHEM_MMFF94_PARTIAL_CHARGES>
12
1 -0.57
10 0.54
11 -0.14
12 0.14
2 -0.57
20 0.15
21 0.15
3 0.14
4 -0.12
7 0.54
8 -0.14
9 -0.12

> <PUBCHEM_EFFECTIVE_ROTOR_COUNT>
1

> <PUBCHEM_PHARMACOPHORE_FEATURES>
4
1 1 acceptor
1 2 acceptor
3 3 5 6 hydrophobe
6 4 7 8 9 10 11 rings

> <PUBCHEM_HEAVY_ATOM_COUNT>
12

> <PUBCHEM_ATOM_DEF_STEREO_COUNT>
0

> <PUBCHEM_ATOM_UDEF_STEREO_COUNT>
0

> <PUBCHEM_BOND_DEF_STEREO_COUNT>
0

> <PUBCHEM_BOND_UDEF_STEREO_COUNT>
0

> <PUBCHEM_ISOTOPIC_ATOM_COUNT>
0

> <PUBCHEM_COMPONENT_COUNT>
1

> <PUBCHEM_CACTVS_TAUTO_COUNT>
19

> <PUBCHEM_CONFORMER_ID>
0000282900000001

> <PUBCHEM_MMFF94_ENERGY>
19.8693

> <PUBCHEM_FEATURE_SELFOVERLAP>
20.297

> <PUBCHEM_SHAPE_FINGERPRINT>
10130415 120 18260824878099175578
10857977 72 18342448232036440776
11206711 2 18263358110288422237
12032990 46 18340215106814593295
12524768 44 18343580746198154908
12932764 1 17967249810210716932
14128692 85 18337963397042156172
14911166 2 18410575063589195453
14993402 34 18409733924214144629
15310529 11 16733270066510500477
161256 15 17978240670228647077
16945 1 18410855430269171009
17990270 104 18269840980910843838
193761 8 18050286161286189573
20645476 183 17676503738591344574
20645477 70 17907856559186480359
20653091 64 18118116098681682168
21040471 1 18122343476024636224
21501502 16 18194681690504293789
22802520 49 18057903345984045678
232386 152 18261101972605143026
2334 1 18122343751071283265
23402539 116 18199168625405335487
23402655 69 18051111616185253957
23463225 33 18189893128207654226
23552423 10 18044377364139094653
23559900 14 18270403772873881886
2748010 2 18194118740556127789
53812654 25 18335973182195744522
7364860 26 18055920033002586792
81228 2 18269561524595526000

> <PUBCHEM_SHAPE_MULTIPOLES>
235.22
4.66
1.86
0.88
0.17
0.4
0
-0.95
0.01
0.47
0
-0.81
-0.16
0

> <PUBCHEM_SHAPE_SELFOVERLAP>
483.217

> <PUBCHEM_SHAPE_VOLUME>
137

> <PUBCHEM_COORDINATE_TYPE>
2
5
10

$$$$
