96382
  -OEChem-11012401063D

 15 15  0     0  0  0  0  0  0999 V2000
    4.6779    0.0002    0.0000 N   0  0  0  0  0  0  0  0  0  0  0  0
   -0.4858   -0.0001    0.0000 C   0  0  0  0  0  0  0  0  0  0  0  0
   -1.1833    1.2079   -0.0001 C   0  0  0  0  0  0  0  0  0  0  0  0
   -1.1834   -1.2082    0.0000 C   0  0  0  0  0  0  0  0  0  0  0  0
   -2.5782    1.2081    0.0000 C   0  0  0  0  0  0  0  0  0  0  0  0
   -2.5783   -1.2079    0.0000 C   0  0  0  0  0  0  0  0  0  0  0  0
   -3.2756    0.0002    0.0000 C   0  0  0  0  0  0  0  0  0  0  0  0
    0.9431   -0.0002    0.0000 C   0  0  0  0  0  0  0  0  0  0  0  0
    2.1457   -0.0001    0.0000 C   0  0  0  0  0  0  0  0  0  0  0  0
    3.5178    0.0000    0.0000 C   0  0  0  0  0  0  0  0  0  0  0  0
   -0.6540    2.1578   -0.0001 H   0  0  0  0  0  0  0  0  0  0  0  0
   -0.6543   -2.1581    0.0000 H   0  0  0  0  0  0  0  0  0  0  0  0
   -3.1213    2.1487    0.0000 H   0  0  0  0  0  0  0  0  0  0  0  0
   -3.1216   -2.1483    0.0000 H   0  0  0  0  0  0  0  0  0  0  0  0
   -4.3616    0.0002    0.0001 H   0  0  0  0  0  0  0  0  0  0  0  0
  1 10  3  0  0  0  0
  2  3  2  0  0  0  0
  2  4  1  0  0  0  0
  2  8  1  0  0  0  0
  3  5  1  0  0  0  0
  3 11  1  0  0  0  0
  4  6  2  0  0  0  0
  4 12  1  0  0  0  0
  5  7  2  0  0  0  0
  5 13  1  0  0  0  0
  6  7  1  0  0  0  0
  6 14  1  0  0  0  0
  7 15  1  0  0  0  0
  8  9  3  0  0  0  0
  9 10  1  0  0  0  0
M  END
> <PUBCHEM_COMPOUND_CID>
96382

> <PUBCHEM_CONFORMER_RMSD>
0.4

> <PUBCHEM_CONFORMER_DIVERSEORDER>
1

> <PUBCHEM_MMFF94_PARTIAL_CHARGES>
14
1 -0.56
10 0.56
11 0.15
12 0.15
13 0.15
14 0.15
15 0.15
2 0.07
3 -0.15
4 -0.15
5 -0.15
6 -0.15
7 -0.15
8 -0.07

> <PUBCHEM_EFFECTIVE_ROTOR_COUNT>
0

> <PUBCHEM_PHARMACOPHORE_FEATURES>
2
1 1 acceptor
6 2 3 4 5 6 7 rings

> <PUBCHEM_HEAVY_ATOM_COUNT>
10

> <PUBCHEM_ATOM_DEF_STEREO_COUNT>
0

> <PUBCHEM_ATOM_UDEF_STEREO_COUNT>
0

> <PUBCHEM_BOND_DEF_STEREO_COUNT>
0

> <PUBCHEM_BOND_UDEF_STEREO_COUNT>
0

> <PUBCHEM_ISOTOPIC_ATOM_COUNT>
0

> <PUBCHEM_COMPONENT_COUNT>
1

> <PUBCHEM_CACTVS_TAUTO_COUNT>
1

> <PUBCHEM_CONFORMER_ID>
0001787E00000001

> <PUBCHEM_MMFF94_ENERGY>
14.292

> <PUBCHEM_FEATURE_SELFOVERLAP>
10.148

> <PUBCHEM_SHAPE_FINGERPRINT>
11062470 55 18411982464131736862
12932764 1 17458332053265477228
13024252 1 15646772288931965361
14144814 61 18334573521289680770
14325111 11 18410856529870463074
15219456 202 17988089880605217102
190213 19 17676206875105053578
20201158 50 18060139829696192966
20279233 1 17775008981424104414
20645464 45 17989212542349155479
20645477 70 16916511333428090270
20871998 184 18200880681285584359
23402539 116 18272080605014387205
6333449 129 18342736312720273349

> <PUBCHEM_SHAPE_MULTIPOLES>
200.81
6.9
1.21
0.61
8.12
0
0
0
0
-1.09
0
-0.04
0
0

> <PUBCHEM_SHAPE_SELFOVERLAP>
416.754

> <PUBCHEM_SHAPE_VOLUME>
111.3

> <PUBCHEM_COORDINATE_TYPE>
2
5
10

$$$$
