61180
  -OEChem-11012401223D

 12 11  0     0  0  0  0  0  0999 V2000
    1.4983   -1.7364   -0.6467 O   0  5  0  0  0  0  0  0  0  0  0  0
   -0.9780    0.4726    2.0908 O   0  5  0  0  0  0  0  0  0  0  0  0
   -0.2752    1.9016   -1.4476 O   0  5  0  0  0  0  0  0  0  0  0  0
   -0.4200   -1.4617   -1.6776 O   0  0  0  0  0  0  0  0  0  0  0  0
   -0.8304   -1.6097    1.4127 O   0  0  0  0  0  0  0  0  0  0  0  0
   -1.9923    0.7922   -0.6482 O   0  0  0  0  0  0  0  0  0  0  0  0
    0.4246   -1.1431   -0.8281 N   0  3  0  0  0  0  0  0  0  0  0  0
   -0.6218   -0.3950    1.2798 N   0  3  0  0  0  0  0  0  0  0  0  0
   -0.7758    1.0128   -0.7432 N   0  3  0  0  0  0  0  0  0  0  0  0
    2.3986    1.3075    0.7287 N   0  0  0  0  0  0  0  0  0  0  0  0
    0.1585    0.0879    0.0493 C   0  0  0  0  0  0  0  0  0  0  0  0
    1.4135    0.7713    0.4300 C   0  0  0  0  0  0  0  0  0  0  0  0
  1  7  1  0  0  0  0
  2  8  1  0  0  0  0
  3  9  1  0  0  0  0
  4  7  2  0  0  0  0
  5  8  2  0  0  0  0
  6  9  2  0  0  0  0
  7 11  1  0  0  0  0
  8 11  1  0  0  0  0
  9 11  1  0  0  0  0
 10 12  3  0  0  0  0
 11 12  1  0  0  0  0
M  CHG  6   1  -1   2  -1   3  -1   7   1   8   1   9   1
M  END
> <PUBCHEM_COMPOUND_CID>
61180

> <PUBCHEM_CONFORMER_RMSD>
0.6

> <PUBCHEM_CONFORMER_DIVERSEORDER>
1
3
2

> <PUBCHEM_MMFF94_PARTIAL_CHARGES>
12
1 -0.52
10 -0.56
11 0.92
12 0.36
2 -0.52
3 -0.52
4 -0.52
5 -0.52
6 -0.52
7 0.8
8 0.8
9 0.8

> <PUBCHEM_EFFECTIVE_ROTOR_COUNT>
3

> <PUBCHEM_PHARMACOPHORE_FEATURES>
10
1 1 acceptor
1 1 anion
1 10 acceptor
1 2 acceptor
1 2 anion
1 3 acceptor
1 3 anion
1 4 acceptor
1 5 acceptor
1 6 acceptor

> <PUBCHEM_HEAVY_ATOM_COUNT>
12

> <PUBCHEM_ATOM_DEF_STEREO_COUNT>
0

> <PUBCHEM_ATOM_UDEF_STEREO_COUNT>
0

> <PUBCHEM_BOND_DEF_STEREO_COUNT>
0

> <PUBCHEM_BOND_UDEF_STEREO_COUNT>
0

> <PUBCHEM_ISOTOPIC_ATOM_COUNT>
0

> <PUBCHEM_COMPONENT_COUNT>
1

> <PUBCHEM_CACTVS_TAUTO_COUNT>
1

> <PUBCHEM_CONFORMER_ID>
0000EEFC00000001

> <PUBCHEM_MMFF94_ENERGY>
25.6599

> <PUBCHEM_FEATURE_SELFOVERLAP>
51.001

> <PUBCHEM_SHAPE_FINGERPRINT>
12423570 1 15816163359017260783
13024252 1 16679837993352198814
137420 1 11778919849143188381
16945 1 16465949137402004527
5084963 1 15409518505463816562
5943 1 16027234050738147664
68250623 7 9206061239935398764

> <PUBCHEM_SHAPE_MULTIPOLES>
191.81
1.95
1.85
1.75
1.51
0.2
-0.63
-0.04
-0.24
-0.4
0.82
-0.66
-0.16
0

> <PUBCHEM_SHAPE_SELFOVERLAP>
379.188

> <PUBCHEM_SHAPE_VOLUME>
109.4

> <PUBCHEM_COORDINATE_TYPE>
2
5
10

$$$$
