12484772
  -OEChem-11012400453D

 40 41  0     0  0  0  0  0  0999 V2000
    2.4816    0.7694    0.0192 S   0  0  0  0  0  0  0  0  0  0  0  0
   -0.2694   -0.3748    0.0018 Si  0  0  0  0  0  0  0  0  0  0  0  0
   -0.6732    0.5196    1.3641 O   0  0  0  0  0  0  0  0  0  0  0  0
   -0.6685    0.5260   -1.3577 O   0  0  0  0  0  0  0  0  0  0  0  0
   -1.1953   -1.7752   -0.0030 O   0  0  0  0  0  0  0  0  0  0  0  0
   -3.4853    0.3591   -0.0021 N   0  0  0  0  0  0  0  0  0  0  0  0
   -3.0831    1.0980    1.1911 C   0  0  0  0  0  0  0  0  0  0  0  0
   -3.1205    0.9202   -1.2997 C   0  0  0  0  0  0  0  0  0  0  0  0
   -3.5819   -1.0939    0.1031 C   0  0  0  0  0  0  0  0  0  0  0  0
    1.5508   -0.7902    0.0040 C   0  0  0  0  0  0  0  0  0  0  0  0
   -1.6240    1.5770    1.2667 C   0  0  0  0  0  0  0  0  0  0  0  0
   -1.9106    0.3034   -2.0206 C   0  0  0  0  0  0  0  0  0  0  0  0
   -2.4018   -1.8348    0.7534 C   0  0  0  0  0  0  0  0  0  0  0  0
    4.1556    0.0858   -0.0010 C   0  0  0  0  0  0  0  0  0  0  0  0
    4.3277   -0.7540   -1.2700 C   0  0  0  0  0  0  0  0  0  0  0  0
    5.1520    1.2487    0.0058 C   0  0  0  0  0  0  0  0  0  0  0  0
    4.3459   -0.7842    1.2447 C   0  0  0  0  0  0  0  0  0  0  0  0
   -3.3208    0.5167    2.0908 H   0  0  0  0  0  0  0  0  0  0  0  0
   -3.7207    1.9894    1.2497 H   0  0  0  0  0  0  0  0  0  0  0  0
   -2.9768    2.0044   -1.2131 H   0  0  0  0  0  0  0  0  0  0  0  0
   -3.9887    0.7984   -1.9602 H   0  0  0  0  0  0  0  0  0  0  0  0
   -3.7839   -1.5293   -0.8833 H   0  0  0  0  0  0  0  0  0  0  0  0
   -4.4744   -1.3160    0.7022 H   0  0  0  0  0  0  0  0  0  0  0  0
    1.7535   -1.3879    0.8941 H   0  0  0  0  0  0  0  0  0  0  0  0
    1.7558   -1.3750   -0.8939 H   0  0  0  0  0  0  0  0  0  0  0  0
   -1.3679    2.2697    0.4553 H   0  0  0  0  0  0  0  0  0  0  0  0
   -1.5173    2.1631    2.1880 H   0  0  0  0  0  0  0  0  0  0  0  0
   -2.0560   -0.7601   -2.2485 H   0  0  0  0  0  0  0  0  0  0  0  0
   -1.8230    0.7962   -2.9969 H   0  0  0  0  0  0  0  0  0  0  0  0
   -2.2359   -1.5271    1.7935 H   0  0  0  0  0  0  0  0  0  0  0  0
   -2.6704   -2.8972    0.8084 H   0  0  0  0  0  0  0  0  0  0  0  0
    4.0307   -0.2080   -2.1730 H   0  0  0  0  0  0  0  0  0  0  0  0
    5.3843   -1.0220   -1.3988 H   0  0  0  0  0  0  0  0  0  0  0  0
    3.7888   -1.7055   -1.2410 H   0  0  0  0  0  0  0  0  0  0  0  0
    5.0439    1.8717    0.9016 H   0  0  0  0  0  0  0  0  0  0  0  0
    5.0315    1.8927   -0.8736 H   0  0  0  0  0  0  0  0  0  0  0  0
    6.1837    0.8777   -0.0058 H   0  0  0  0  0  0  0  0  0  0  0  0
    3.7998   -1.7312    1.2039 H   0  0  0  0  0  0  0  0  0  0  0  0
    5.4029   -1.0611    1.3481 H   0  0  0  0  0  0  0  0  0  0  0  0
    4.0683   -0.2573    2.1653 H   0  0  0  0  0  0  0  0  0  0  0  0
  1 10  1  0  0  0  0
  1 14  1  0  0  0  0
  2  3  1  0  0  0  0
  2  4  1  0  0  0  0
  2  5  1  0  0  0  0
  2 10  1  0  0  0  0
  3 11  1  0  0  0  0
  4 12  1  0  0  0  0
  5 13  1  0  0  0  0
  6  7  1  0  0  0  0
  6  8  1  0  0  0  0
  6  9  1  0  0  0  0
  7 11  1  0  0  0  0
  7 18  1  0  0  0  0
  7 19  1  0  0  0  0
  8 12  1  0  0  0  0
  8 20  1  0  0  0  0
  8 21  1  0  0  0  0
  9 13  1  0  0  0  0
  9 22  1  0  0  0  0
  9 23  1  0  0  0  0
 10 24  1  0  0  0  0
 10 25  1  0  0  0  0
 11 26  1  0  0  0  0
 11 27  1  0  0  0  0
 12 28  1  0  0  0  0
 12 29  1  0  0  0  0
 13 30  1  0  0  0  0
 13 31  1  0  0  0  0
 14 15  1  0  0  0  0
 14 16  1  0  0  0  0
 14 17  1  0  0  0  0
 15 32  1  0  0  0  0
 15 33  1  0  0  0  0
 15 34  1  0  0  0  0
 16 35  1  0  0  0  0
 16 36  1  0  0  0  0
 16 37  1  0  0  0  0
 17 38  1  0  0  0  0
 17 39  1  0  0  0  0
 17 40  1  0  0  0  0
M  END
> <PUBCHEM_COMPOUND_CID>
12484772

> <PUBCHEM_CONFORMER_RMSD>
0.6

> <PUBCHEM_CONFORMER_DIVERSEORDER>
1
4
5
2
3

> <PUBCHEM_MMFF94_PARTIAL_CHARGES>
14
1 -0.46
10 0.15
11 0.28
12 0.28
13 0.28
14 0.23
2 0.97
3 -0.58
4 -0.58
5 -0.58
6 -0.81
7 0.27
8 0.27
9 0.27

> <PUBCHEM_EFFECTIVE_ROTOR_COUNT>
4.8

> <PUBCHEM_PHARMACOPHORE_FEATURES>
2
1 6 cation
4 14 15 16 17 hydrophobe

> <PUBCHEM_HEAVY_ATOM_COUNT>
17

> <PUBCHEM_ATOM_DEF_STEREO_COUNT>
0

> <PUBCHEM_ATOM_UDEF_STEREO_COUNT>
0

> <PUBCHEM_BOND_DEF_STEREO_COUNT>
0

> <PUBCHEM_BOND_UDEF_STEREO_COUNT>
0

> <PUBCHEM_ISOTOPIC_ATOM_COUNT>
0

> <PUBCHEM_COMPONENT_COUNT>
1

> <PUBCHEM_CACTVS_TAUTO_COUNT>
1

> <PUBCHEM_CONFORMER_ID>
00BE80A400000001

> <PUBCHEM_MMFF94_ENERGY>
55.6875

> <PUBCHEM_FEATURE_SELFOVERLAP>
10.148

> <PUBCHEM_SHAPE_FINGERPRINT>
10680689 15 17458347433564300886
11132069 177 17967254204178603710
11615757 297 18334859415882833820
12173636 292 18342182119957229196
12403814 3 17748544840360524471
12670546 56 17241033366976276978
12932764 1 17822012004237147234
13024252 1 14056719046024052863
13214271 11 17989210351905284889
13675066 3 17561365076080481386
14289901 80 17060616698924185008
16945 1 17676779725274674847
18186145 218 18335423457021510478
200 152 18343013423941789039
20645477 70 18060145315129455958
2306618 200 18260260824587371141
23402539 116 17989481918155177396
23419403 2 18051680346784002429
23559900 14 18130515128637730262
2838139 119 17387672956545889869
4175511 318 18040714757762954127
5104073 3 18186796994101035224
633830 44 18201444649341011262

> <PUBCHEM_SHAPE_MULTIPOLES>
349.33
9.24
1.6
1.53
10.86
0.25
0.38
-0.65
-0.01
-0.69
-0.36
-0.62
-0.28
0.08

> <PUBCHEM_SHAPE_SELFOVERLAP>
669.934

> <PUBCHEM_SHAPE_VOLUME>
214.1

> <PUBCHEM_COORDINATE_TYPE>
2
5
10

$$$$
