95459
  -OEChem-11012400423D

 24 24  0     1  0  0  0  0  0999 V2000
   -2.2464   -2.5477    0.1688 O   0  0  0  0  0  0  0  0  0  0  0  0
   -0.1405   -2.7505   -0.6382 O   0  0  0  0  0  0  0  0  0  0  0  0
   -2.2056    2.5867   -0.8050 O   0  0  0  0  0  0  0  0  0  0  0  0
   -1.4518    2.0884    1.2764 O   0  0  0  0  0  0  0  0  0  0  0  0
   -0.8199   -0.6327    0.3851 C   0  0  1  0  0  0  0  0  0  0  0  0
    0.6216   -0.1833    0.1711 C   0  0  0  0  0  0  0  0  0  0  0  0
   -1.8267    0.2898   -0.3320 C   0  0  0  0  0  0  0  0  0  0  0  0
    1.5379   -0.3889    1.1802 C   0  0  0  0  0  0  0  0  0  0  0  0
    0.9607    0.4132   -1.0246 C   0  0  0  0  0  0  0  0  0  0  0  0
   -1.0004   -2.0723   -0.0909 C   0  0  0  0  0  0  0  0  0  0  0  0
   -1.7918    1.7232    0.1602 C   0  0  0  0  0  0  0  0  0  0  0  0
    2.8564    0.0219    0.9845 C   0  0  0  0  0  0  0  0  0  0  0  0
    2.2793    0.8240   -1.2202 C   0  0  0  0  0  0  0  0  0  0  0  0
    3.2271    0.6283   -0.2156 C   0  0  0  0  0  0  0  0  0  0  0  0
   -1.0288   -0.6178    1.4636 H   0  0  0  0  0  0  0  0  0  0  0  0
   -1.7186    0.2577   -1.4212 H   0  0  0  0  0  0  0  0  0  0  0  0
   -2.8471   -0.0634   -0.1324 H   0  0  0  0  0  0  0  0  0  0  0  0
    1.2580   -0.8622    2.1164 H   0  0  0  0  0  0  0  0  0  0  0  0
    0.2684    0.5591   -1.8444 H   0  0  0  0  0  0  0  0  0  0  0  0
    3.5947   -0.1313    1.7662 H   0  0  0  0  0  0  0  0  0  0  0  0
    2.5703    1.2900   -2.1571 H   0  0  0  0  0  0  0  0  0  0  0  0
    4.2542    0.9465   -0.3687 H   0  0  0  0  0  0  0  0  0  0  0  0
   -2.3549   -3.4738   -0.1359 H   0  0  0  0  0  0  0  0  0  0  0  0
   -2.1904    3.5167   -0.4936 H   0  0  0  0  0  0  0  0  0  0  0  0
  1 10  1  0  0  0  0
  1 23  1  0  0  0  0
  2 10  2  0  0  0  0
  3 11  1  0  0  0  0
  3 24  1  0  0  0  0
  4 11  2  0  0  0  0
  5  6  1  0  0  0  0
  5  7  1  0  0  0  0
  5 10  1  0  0  0  0
  5 15  1  0  0  0  0
  6  8  2  0  0  0  0
  6  9  1  0  0  0  0
  7 11  1  0  0  0  0
  7 16  1  0  0  0  0
  7 17  1  0  0  0  0
  8 12  1  0  0  0  0
  8 18  1  0  0  0  0
  9 13  2  0  0  0  0
  9 19  1  0  0  0  0
 12 14  2  0  0  0  0
 12 20  1  0  0  0  0
 13 14  1  0  0  0  0
 13 21  1  0  0  0  0
 14 22  1  0  0  0  0
M  END
> <PUBCHEM_COMPOUND_CID>
95459

> <PUBCHEM_CONFORMER_RMSD>
0.6

> <PUBCHEM_CONFORMER_DIVERSEORDER>
1
15
28
21
3
26
25
2
27
29
19
6
17
13
30
10
11
12
23
24
20
8
5
18
16
4
14
7
9
22

> <PUBCHEM_MMFF94_PARTIAL_CHARGES>
21
1 -0.65
10 0.66
11 0.66
12 -0.15
13 -0.15
14 -0.15
18 0.15
19 0.15
2 -0.57
20 0.15
21 0.15
22 0.15
23 0.5
24 0.5
3 -0.65
4 -0.57
5 0.2
6 -0.14
7 0.06
8 -0.15
9 -0.15

> <PUBCHEM_EFFECTIVE_ROTOR_COUNT>
4

> <PUBCHEM_PHARMACOPHORE_FEATURES>
7
1 1 acceptor
1 2 acceptor
1 3 acceptor
1 4 acceptor
3 1 2 10 anion
3 3 4 11 anion
6 6 8 9 12 13 14 rings

> <PUBCHEM_HEAVY_ATOM_COUNT>
14

> <PUBCHEM_ATOM_DEF_STEREO_COUNT>
0

> <PUBCHEM_ATOM_UDEF_STEREO_COUNT>
1

> <PUBCHEM_BOND_DEF_STEREO_COUNT>
0

> <PUBCHEM_BOND_UDEF_STEREO_COUNT>
0

> <PUBCHEM_ISOTOPIC_ATOM_COUNT>
0

> <PUBCHEM_COMPONENT_COUNT>
1

> <PUBCHEM_CACTVS_TAUTO_COUNT>
1

> <PUBCHEM_CONFORMER_ID>
000174E300000001

> <PUBCHEM_MMFF94_ENERGY>
31.3056

> <PUBCHEM_FEATURE_SELFOVERLAP>
35.641

> <PUBCHEM_SHAPE_FINGERPRINT>
1 1 17978507529494998463
100427 49 17617660294518351395
12138202 97 18272368659559287268
12423570 1 10768568465593602234
12716758 59 18271815605231608170
13296909 8 18265592442622958904
13380537 58 18413671314050029684
13538477 17 18260260888753125402
13898156 1 18187084005026767510
14617773 55 18041838544872915220
14817 1 11044534403480432593
15279308 10 18041282170419647612
15490181 8 18267019449438037911
15775835 57 18187651258385068700
15906896 17 18186809079859528331
16945 1 18336823181982818610
19837323 101 18343029873497636617
19868273 325 18123755523674416983
20510252 161 18341333408829116602
20711985 344 18269850867772799167
21524375 3 18189054196572400729
21930827 45 18130239193503894448
22112679 90 17977970173394125203
22802520 49 17845674567908160492
228727 97 17754189887507557246
23236772 104 17823419468914236648
23402539 116 18271793662037939077
23419403 2 15046617215347519271
23557571 272 17984430895408856568
23559900 14 18059014970332160742
23598294 1 18338524160815006458
25610 171 18130495448459016992
2748010 2 18120668924279214935
305870 269 18051412859877763688
6992083 37 18114737127925180056
7364860 26 17550099265030568813
81228 2 18268437999789468467

> <PUBCHEM_SHAPE_MULTIPOLES>
264.64
4.02
2.7
1.15
2.18
0.54
-0.07
-0.95
-0.05
-2.93
0.25
0.46
-0.27
-0.34

> <PUBCHEM_SHAPE_SELFOVERLAP>
550.45

> <PUBCHEM_SHAPE_VOLUME>
149.2

> <PUBCHEM_COORDINATE_TYPE>
2
5
10

$$$$
