138235
  -OEChem-11012401053D

 38 39  0     0  0  0  0  0  0999 V2000
   -1.1053   -1.3533    0.1948 O   0  0  0  0  0  0  0  0  0  0  0  0
    1.1061   -1.3552    0.1974 O   0  0  0  0  0  0  0  0  0  0  0  0
    0.0031   -0.8720   -1.7681 O   0  0  0  0  0  0  0  0  0  0  0  0
   -2.2572   -0.6031   -0.1750 C   0  0  0  0  0  0  0  0  0  0  0  0
    2.2573   -0.6044   -0.1734 C   0  0  0  0  0  0  0  0  0  0  0  0
   -3.4164   -0.9494    0.7586 C   0  0  0  0  0  0  0  0  0  0  0  0
   -1.9312    0.8892   -0.1378 C   0  0  0  0  0  0  0  0  0  0  0  0
    1.9296    0.8878   -0.1385 C   0  0  0  0  0  0  0  0  0  0  0  0
    3.4164   -0.9479    0.7610 C   0  0  0  0  0  0  0  0  0  0  0  0
   -4.6476   -0.0988    0.4643 C   0  0  0  0  0  0  0  0  0  0  0  0
   -3.1624    1.7400   -0.4322 C   0  0  0  0  0  0  0  0  0  0  0  0
    3.1597    1.7396   -0.4341 C   0  0  0  0  0  0  0  0  0  0  0  0
    4.6468   -0.0963    0.4655 C   0  0  0  0  0  0  0  0  0  0  0  0
   -4.3215    1.3926    0.4992 C   0  0  0  0  0  0  0  0  0  0  0  0
    4.3190    1.3948    0.4980 C   0  0  0  0  0  0  0  0  0  0  0  0
    0.0036   -1.1634   -0.5796 C   0  0  0  0  0  0  0  0  0  0  0  0
   -2.5462   -0.8919   -1.1947 H   0  0  0  0  0  0  0  0  0  0  0  0
    2.5474   -0.8944   -1.1925 H   0  0  0  0  0  0  0  0  0  0  0  0
   -3.1045   -0.8074    1.8015 H   0  0  0  0  0  0  0  0  0  0  0  0
   -3.6623   -2.0141    0.6652 H   0  0  0  0  0  0  0  0  0  0  0  0
   -1.1596    1.1521   -0.8669 H   0  0  0  0  0  0  0  0  0  0  0  0
   -1.5191    1.1542    0.8446 H   0  0  0  0  0  0  0  0  0  0  0  0
    1.5173    1.1537    0.8436 H   0  0  0  0  0  0  0  0  0  0  0  0
    1.1580    1.1497   -0.8680 H   0  0  0  0  0  0  0  0  0  0  0  0
    3.6637   -2.0125    0.6694 H   0  0  0  0  0  0  0  0  0  0  0  0
    3.1041   -0.8045    1.8036 H   0  0  0  0  0  0  0  0  0  0  0  0
   -5.4335   -0.3215    1.1948 H   0  0  0  0  0  0  0  0  0  0  0  0
   -5.0453   -0.3620   -0.5235 H   0  0  0  0  0  0  0  0  0  0  0  0
   -3.4725    1.5858   -1.4732 H   0  0  0  0  0  0  0  0  0  0  0  0
   -2.9116    2.8017   -0.3273 H   0  0  0  0  0  0  0  0  0  0  0  0
    2.9077    2.8010   -0.3308 H   0  0  0  0  0  0  0  0  0  0  0  0
    3.4702    1.5843   -1.4747 H   0  0  0  0  0  0  0  0  0  0  0  0
    5.0449   -0.3605   -0.5220 H   0  0  0  0  0  0  0  0  0  0  0  0
    5.4328   -0.3171    1.1964 H   0  0  0  0  0  0  0  0  0  0  0  0
   -5.2083    1.9705    0.2156 H   0  0  0  0  0  0  0  0  0  0  0  0
   -4.0639    1.6846    1.5248 H   0  0  0  0  0  0  0  0  0  0  0  0
    5.2052    1.9733    0.2136 H   0  0  0  0  0  0  0  0  0  0  0  0
    4.0610    1.6882    1.5231 H   0  0  0  0  0  0  0  0  0  0  0  0
  1  4  1  0  0  0  0
  1 16  1  0  0  0  0
  2  5  1  0  0  0  0
  2 16  1  0  0  0  0
  3 16  2  0  0  0  0
  4  6  1  0  0  0  0
  4  7  1  0  0  0  0
  4 17  1  0  0  0  0
  5  8  1  0  0  0  0
  5  9  1  0  0  0  0
  5 18  1  0  0  0  0
  6 10  1  0  0  0  0
  6 19  1  0  0  0  0
  6 20  1  0  0  0  0
  7 11  1  0  0  0  0
  7 21  1  0  0  0  0
  7 22  1  0  0  0  0
  8 12  1  0  0  0  0
  8 23  1  0  0  0  0
  8 24  1  0  0  0  0
  9 13  1  0  0  0  0
  9 25  1  0  0  0  0
  9 26  1  0  0  0  0
 10 14  1  0  0  0  0
 10 27  1  0  0  0  0
 10 28  1  0  0  0  0
 11 14  1  0  0  0  0
 11 29  1  0  0  0  0
 11 30  1  0  0  0  0
 12 15  1  0  0  0  0
 12 31  1  0  0  0  0
 12 32  1  0  0  0  0
 13 15  1  0  0  0  0
 13 33  1  0  0  0  0
 13 34  1  0  0  0  0
 14 35  1  0  0  0  0
 14 36  1  0  0  0  0
 15 37  1  0  0  0  0
 15 38  1  0  0  0  0
M  END
> <PUBCHEM_COMPOUND_CID>
138235

> <PUBCHEM_CONFORMER_RMSD>
0.8

> <PUBCHEM_CONFORMER_DIVERSEORDER>
1
13
2
25
7
26
24
9
28
4
27
20
16
5
17
19
10
11
22
18
23
14
15
3
21
6
12
8

> <PUBCHEM_MMFF94_PARTIAL_CHARGES>
6
1 -0.43
16 0.87
2 -0.43
3 -0.57
4 0.28
5 0.28

> <PUBCHEM_EFFECTIVE_ROTOR_COUNT>
6.4

> <PUBCHEM_PHARMACOPHORE_FEATURES>
2
6 4 6 7 10 11 14 rings
6 5 8 9 12 13 15 rings

> <PUBCHEM_HEAVY_ATOM_COUNT>
16

> <PUBCHEM_ATOM_DEF_STEREO_COUNT>
0

> <PUBCHEM_ATOM_UDEF_STEREO_COUNT>
0

> <PUBCHEM_BOND_DEF_STEREO_COUNT>
0

> <PUBCHEM_BOND_UDEF_STEREO_COUNT>
0

> <PUBCHEM_ISOTOPIC_ATOM_COUNT>
0

> <PUBCHEM_COMPONENT_COUNT>
1

> <PUBCHEM_CACTVS_TAUTO_COUNT>
1

> <PUBCHEM_CONFORMER_ID>
00021BFB00000001

> <PUBCHEM_MMFF94_ENERGY>
21.0376

> <PUBCHEM_FEATURE_SELFOVERLAP>
10.149

> <PUBCHEM_SHAPE_FINGERPRINT>
10354089 29 18334013904452394808
11543360 7 11743831482495416170
122479 349 18411702096987777643
12251169 10 18186519916701453374
12507557 5 18410009927334253801
12507560 40 18408040697629173246
12596602 18 16877944979019767489
12670546 177 12463564088876676594
12670546 56 18261101985020436091
12892183 10 18040998448895420914
13081056 2 18413110554234569064
13214271 11 18413108368771435807
13296909 8 17676483926423659991
13533116 47 17531239509831212675
13675066 3 18342735234979011194
14123255 352 18411978044584366357
14252887 29 14345793829857572778
14341114 176 18187370921494953328
15188451 53 16371295549270002059
15196674 1 18410011035198348225
15775835 57 18272933859785550996
17802600 8 18410289220462121225
17834072 8 18060427898222981412
1813 80 15647055936983118014
18186145 218 15482666892251074499
193927 3 11602814658236484608
20233049 118 18060415816074094824
20374829 77 9439405705225950437
20645477 56 17917148407213205158
20871999 31 11167944645492254827
21065199 12 18259987067381873195
21119208 17 11815898959136911186
21503847 285 18260550030905959392
21524375 3 18272369788856422951
21652331 79 18409166631790577417
22485316 2 8502651502127725323
22646028 28 7853859386044347768
22854114 59 18259703401966508091
23402539 116 18201993335243779919
23557571 272 16988277698049034486
23559900 14 18196653994994774290
351380 180 18335419062906073857
42 15 17967813842775556154
4325135 7 18131347527859607935
5104073 3 18408041805588279203
633830 44 18342176639595102542
6430166 295 18413386540601849576
76465 3 12540993940284349993

> <PUBCHEM_SHAPE_MULTIPOLES>
311.66
10.06
1.82
0.94
0.02
0.46
0.21
3.18
-2.83
0
0.06
0
-0.14
0

> <PUBCHEM_SHAPE_SELFOVERLAP>
625.501

> <PUBCHEM_SHAPE_VOLUME>
179.7

> <PUBCHEM_COORDINATE_TYPE>
2
5
10

$$$$
