74326
  -OEChem-11012400493D

 54 56  0     0  0  0  0  0  0999 V2000
   -0.5064    0.0141   -0.0333 Si  0  0  0  0  0  0  0  0  0  0  0  0
    1.7248   -1.1308   -1.9468 Si  0  0  0  0  0  0  0  0  0  0  0  0
    1.6426    1.5141    1.7232 Si  0  0  0  0  0  0  0  0  0  0  0  0
    3.9024    0.1685   -0.0429 Si  0  0  0  0  0  0  0  0  0  0  0  0
    0.3830   -0.2939   -1.3988 O   0  0  0  0  0  0  0  0  0  0  0  0
    0.4343    0.4541    1.2587 O   0  0  0  0  0  0  0  0  0  0  0  0
    3.1161   -0.3622   -1.4220 O   0  0  0  0  0  0  0  0  0  0  0  0
    2.9673    1.3336    0.7145 O   0  0  0  0  0  0  0  0  0  0  0  0
   -1.7559    1.3501   -0.3689 C   0  0  0  0  0  0  0  0  0  0  0  0
   -1.5041   -1.4980    0.3937 C   0  0  0  0  0  0  0  0  0  0  0  0
    1.6880   -2.9134   -1.3455 C   0  0  0  0  0  0  0  0  0  0  0  0
    1.7061   -1.1751   -3.8297 C   0  0  0  0  0  0  0  0  0  0  0  0
    2.1366    1.1614    3.5042 C   0  0  0  0  0  0  0  0  0  0  0  0
    1.0231    3.2885    1.6473 C   0  0  0  0  0  0  0  0  0  0  0  0
    5.5650    0.9144   -0.5201 C   0  0  0  0  0  0  0  0  0  0  0  0
    4.2481   -1.2705    1.1184 C   0  0  0  0  0  0  0  0  0  0  0  0
   -2.6925    1.7769    0.6179 C   0  0  0  0  0  0  0  0  0  0  0  0
   -2.4398   -2.0706   -0.5173 C   0  0  0  0  0  0  0  0  0  0  0  0
   -1.8373    2.0119   -1.6293 C   0  0  0  0  0  0  0  0  0  0  0  0
   -1.3806   -2.1565    1.6523 C   0  0  0  0  0  0  0  0  0  0  0  0
   -3.6295    2.7791    0.3663 C   0  0  0  0  0  0  0  0  0  0  0  0
   -3.1873   -3.2040   -0.1974 C   0  0  0  0  0  0  0  0  0  0  0  0
   -2.7743    3.0141   -1.8810 C   0  0  0  0  0  0  0  0  0  0  0  0
   -2.1281   -3.2899    1.9723 C   0  0  0  0  0  0  0  0  0  0  0  0
   -3.6703    3.3978   -0.8833 C   0  0  0  0  0  0  0  0  0  0  0  0
   -3.0314   -3.8137    1.0475 C   0  0  0  0  0  0  0  0  0  0  0  0
    1.6843   -2.9554   -0.2526 H   0  0  0  0  0  0  0  0  0  0  0  0
    0.7917   -3.4231   -1.7111 H   0  0  0  0  0  0  0  0  0  0  0  0
    2.5653   -3.4577   -1.7068 H   0  0  0  0  0  0  0  0  0  0  0  0
    1.7266   -0.1596   -4.2357 H   0  0  0  0  0  0  0  0  0  0  0  0
    2.5770   -1.7169   -4.2097 H   0  0  0  0  0  0  0  0  0  0  0  0
    0.8026   -1.6738   -4.1924 H   0  0  0  0  0  0  0  0  0  0  0  0
    1.2823    1.2991    4.1735 H   0  0  0  0  0  0  0  0  0  0  0  0
    2.4917    0.1320    3.6080 H   0  0  0  0  0  0  0  0  0  0  0  0
    2.9368    1.8360    3.8221 H   0  0  0  0  0  0  0  0  0  0  0  0
    0.1469    3.4179    2.2895 H   0  0  0  0  0  0  0  0  0  0  0  0
    1.8010    3.9812    1.9813 H   0  0  0  0  0  0  0  0  0  0  0  0
    0.7425    3.5550    0.6242 H   0  0  0  0  0  0  0  0  0  0  0  0
    6.0947    1.2706    0.3682 H   0  0  0  0  0  0  0  0  0  0  0  0
    6.1904    0.1694   -1.0205 H   0  0  0  0  0  0  0  0  0  0  0  0
    5.4234    1.7595   -1.2000 H   0  0  0  0  0  0  0  0  0  0  0  0
    3.3154   -1.7380    1.4469 H   0  0  0  0  0  0  0  0  0  0  0  0
    4.8548   -2.0304    0.6172 H   0  0  0  0  0  0  0  0  0  0  0  0
    4.7899   -0.9270    2.0045 H   0  0  0  0  0  0  0  0  0  0  0  0
   -2.6871    1.3167    1.6053 H   0  0  0  0  0  0  0  0  0  0  0  0
   -2.5851   -1.6212   -1.4989 H   0  0  0  0  0  0  0  0  0  0  0  0
   -1.1542    1.7403   -2.4328 H   0  0  0  0  0  0  0  0  0  0  0  0
   -0.6851   -1.7778    2.3999 H   0  0  0  0  0  0  0  0  0  0  0  0
   -4.3269    3.0784    1.1432 H   0  0  0  0  0  0  0  0  0  0  0  0
   -3.8903   -3.6123   -0.9175 H   0  0  0  0  0  0  0  0  0  0  0  0
   -2.8063    3.4961   -2.8537 H   0  0  0  0  0  0  0  0  0  0  0  0
   -2.0067   -3.7651    2.9414 H   0  0  0  0  0  0  0  0  0  0  0  0
   -4.3996    4.1783   -1.0792 H   0  0  0  0  0  0  0  0  0  0  0  0
   -3.6131   -4.6964    1.2966 H   0  0  0  0  0  0  0  0  0  0  0  0
  1  5  1  0  0  0  0
  1  6  1  0  0  0  0
  1  9  1  0  0  0  0
  1 10  1  0  0  0  0
  2  5  1  0  0  0  0
  2  7  1  0  0  0  0
  2 11  1  0  0  0  0
  2 12  1  0  0  0  0
  3  6  1  0  0  0  0
  3  8  1  0  0  0  0
  3 13  1  0  0  0  0
  3 14  1  0  0  0  0
  4  7  1  0  0  0  0
  4  8  1  0  0  0  0
  4 15  1  0  0  0  0
  4 16  1  0  0  0  0
  9 17  2  0  0  0  0
  9 19  1  0  0  0  0
 10 18  2  0  0  0  0
 10 20  1  0  0  0  0
 11 27  1  0  0  0  0
 11 28  1  0  0  0  0
 11 29  1  0  0  0  0
 12 30  1  0  0  0  0
 12 31  1  0  0  0  0
 12 32  1  0  0  0  0
 13 33  1  0  0  0  0
 13 34  1  0  0  0  0
 13 35  1  0  0  0  0
 14 36  1  0  0  0  0
 14 37  1  0  0  0  0
 14 38  1  0  0  0  0
 15 39  1  0  0  0  0
 15 40  1  0  0  0  0
 15 41  1  0  0  0  0
 16 42  1  0  0  0  0
 16 43  1  0  0  0  0
 16 44  1  0  0  0  0
 17 21  1  0  0  0  0
 17 45  1  0  0  0  0
 18 22  1  0  0  0  0
 18 46  1  0  0  0  0
 19 23  2  0  0  0  0
 19 47  1  0  0  0  0
 20 24  2  0  0  0  0
 20 48  1  0  0  0  0
 21 25  2  0  0  0  0
 21 49  1  0  0  0  0
 22 26  2  0  0  0  0
 22 50  1  0  0  0  0
 23 25  1  0  0  0  0
 23 51  1  0  0  0  0
 24 26  1  0  0  0  0
 24 52  1  0  0  0  0
 25 53  1  0  0  0  0
 26 54  1  0  0  0  0
M  END
> <PUBCHEM_COMPOUND_CID>
74326

> <PUBCHEM_CONFORMER_RMSD>
0.8

> <PUBCHEM_CONFORMER_DIVERSEORDER>
1
6
8
10
2
7
3
5
11
9
4

> <PUBCHEM_MMFF94_PARTIAL_CHARGES>
36
1 1.04
10 -0.22
11 -0.08
12 -0.08
13 -0.08
14 -0.08
15 -0.08
16 -0.08
17 -0.15
18 -0.15
19 -0.15
2 0.76
20 -0.15
21 -0.15
22 -0.15
23 -0.15
24 -0.15
25 -0.15
26 -0.15
3 0.76
4 0.76
45 0.15
46 0.15
47 0.15
48 0.15
49 0.15
5 -0.59
50 0.15
51 0.15
52 0.15
53 0.15
54 0.15
6 -0.59
7 -0.59
8 -0.59
9 -0.22

> <PUBCHEM_EFFECTIVE_ROTOR_COUNT>
3.6

> <PUBCHEM_PHARMACOPHORE_FEATURES>
2
6 10 18 20 22 24 26 rings
6 9 17 19 21 23 25 rings

> <PUBCHEM_HEAVY_ATOM_COUNT>
26

> <PUBCHEM_ATOM_DEF_STEREO_COUNT>
0

> <PUBCHEM_ATOM_UDEF_STEREO_COUNT>
0

> <PUBCHEM_BOND_DEF_STEREO_COUNT>
0

> <PUBCHEM_BOND_UDEF_STEREO_COUNT>
0

> <PUBCHEM_ISOTOPIC_ATOM_COUNT>
0

> <PUBCHEM_COMPONENT_COUNT>
1

> <PUBCHEM_CACTVS_TAUTO_COUNT>
1

> <PUBCHEM_CONFORMER_ID>
0001225600000001

> <PUBCHEM_MMFF94_ENERGY>
29.8799

> <PUBCHEM_FEATURE_SELFOVERLAP>
10.149

> <PUBCHEM_SHAPE_FINGERPRINT>
10675989 125 17693659212688553712
10906281 52 17916025668677086672
11578080 2 18055668103126614900
11582403 64 17121072215642452385
12160290 23 18118998865075217099
12549972 3 17987213651695434080
12788726 201 17896585357793368555
13149001 5 18128826239589685951
13681431 1 17542519670266438671
14713325 29 18411143562619666604
15219462 58 17757228869222828320
17974551 9 18265311959773559810
1813 80 17904791081960145059
20600515 1 17463665930327170977
20691752 17 17766294080390235664
20739085 24 17692834982757444435
21033648 29 17972603186672640924
21304303 282 18114723968235309943
22182313 1 17916571185331860400
23419403 2 17917997216999036881
23557571 272 18263643025449508207
23559900 14 17971743621855663010
238 59 17346015832339266860
3380486 77 17834954170776535730
3729539 64 17616263481049673646
57527585 103 17626420877025360142
6009941 240 18337941296163876530
6669772 16 18123743162864404551
7399639 24 17837759389916741248
81228 2 18335148634922878015
9981440 41 16912234365807687297

> <PUBCHEM_SHAPE_MULTIPOLES>
584.44
7.56
4.82
3
4.46
0.79
0.48
-1.37
0.36
-6.23
-0.79
1.28
0.3
3.8

> <PUBCHEM_SHAPE_SELFOVERLAP>
1145.825

> <PUBCHEM_SHAPE_VOLUME>
348.8

> <PUBCHEM_COORDINATE_TYPE>
2
5
10

$$$$
