96468
  -OEChem-11012401183D

 34 35  0     1  0  0  0  0  0999 V2000
    1.0375    3.2016    0.9750 O   0  0  0  0  0  0  0  0  0  0  0  0
   -1.6347    2.8554   -1.3086 O   0  0  0  0  0  0  0  0  0  0  0  0
    2.2364    2.3429   -0.7448 O   0  0  0  0  0  0  0  0  0  0  0  0
   -1.9725    2.4674    0.8965 O   0  0  0  0  0  0  0  0  0  0  0  0
    0.6679    0.8867    0.4402 C   0  0  1  0  0  0  0  0  0  0  0  0
   -0.6735    0.8474   -0.3535 C   0  0  1  0  0  0  0  0  0  0  0  0
    1.5928   -0.2971    0.1637 C   0  0  0  0  0  0  0  0  0  0  0  0
   -1.5560   -0.3706   -0.1122 C   0  0  0  0  0  0  0  0  0  0  0  0
    1.4099    2.1915    0.1461 C   0  0  0  0  0  0  0  0  0  0  0  0
   -1.4931    2.1222   -0.1779 C   0  0  0  0  0  0  0  0  0  0  0  0
    1.6049   -0.8460   -1.0994 C   0  0  0  0  0  0  0  0  0  0  0  0
   -1.6540   -0.8788    1.1664 C   0  0  0  0  0  0  0  0  0  0  0  0
    2.3820   -0.7732    1.1871 C   0  0  0  0  0  0  0  0  0  0  0  0
   -2.2297   -0.9266   -1.1797 C   0  0  0  0  0  0  0  0  0  0  0  0
    2.4495   -1.9269   -1.3520 C   0  0  0  0  0  0  0  0  0  0  0  0
   -2.4622   -1.9939    1.3874 C   0  0  0  0  0  0  0  0  0  0  0  0
    3.2267   -1.8540    0.9343 C   0  0  0  0  0  0  0  0  0  0  0  0
   -3.0381   -2.0417   -0.9584 C   0  0  0  0  0  0  0  0  0  0  0  0
    3.2604   -2.4309   -0.3354 C   0  0  0  0  0  0  0  0  0  0  0  0
   -3.1542   -2.5752    0.3251 C   0  0  0  0  0  0  0  0  0  0  0  0
    0.4553    0.9036    1.5177 H   0  0  0  0  0  0  0  0  0  0  0  0
   -0.4204    0.8579   -1.4227 H   0  0  0  0  0  0  0  0  0  0  0  0
    1.0185   -0.4705   -1.9283 H   0  0  0  0  0  0  0  0  0  0  0  0
   -1.1460   -0.4365    2.0158 H   0  0  0  0  0  0  0  0  0  0  0  0
    2.3631   -0.3287    2.1774 H   0  0  0  0  0  0  0  0  0  0  0  0
   -2.1475   -0.5176   -2.1820 H   0  0  0  0  0  0  0  0  0  0  0  0
    2.4815   -2.3720   -2.3422 H   0  0  0  0  0  0  0  0  0  0  0  0
   -2.5568   -2.4067    2.3876 H   0  0  0  0  0  0  0  0  0  0  0  0
    3.8589   -2.2460    1.7257 H   0  0  0  0  0  0  0  0  0  0  0  0
   -3.5776   -2.4941   -1.7854 H   0  0  0  0  0  0  0  0  0  0  0  0
    3.9193   -3.2713   -0.5326 H   0  0  0  0  0  0  0  0  0  0  0  0
   -3.7846   -3.4427    0.4975 H   0  0  0  0  0  0  0  0  0  0  0  0
    1.5108    4.0358    0.7697 H   0  0  0  0  0  0  0  0  0  0  0  0
   -2.1595    3.6695   -1.1540 H   0  0  0  0  0  0  0  0  0  0  0  0
  1  9  1  0  0  0  0
  1 33  1  0  0  0  0
  2 10  1  0  0  0  0
  2 34  1  0  0  0  0
  3  9  2  0  0  0  0
  4 10  2  0  0  0  0
  5  6  1  0  0  0  0
  5  7  1  0  0  0  0
  5  9  1  0  0  0  0
  5 21  1  0  0  0  0
  6  8  1  0  0  0  0
  6 10  1  0  0  0  0
  6 22  1  0  0  0  0
  7 11  2  0  0  0  0
  7 13  1  0  0  0  0
  8 12  2  0  0  0  0
  8 14  1  0  0  0  0
 11 15  1  0  0  0  0
 11 23  1  0  0  0  0
 12 16  1  0  0  0  0
 12 24  1  0  0  0  0
 13 17  2  0  0  0  0
 13 25  1  0  0  0  0
 14 18  2  0  0  0  0
 14 26  1  0  0  0  0
 15 19  2  0  0  0  0
 15 27  1  0  0  0  0
 16 20  2  0  0  0  0
 16 28  1  0  0  0  0
 17 19  1  0  0  0  0
 17 29  1  0  0  0  0
 18 20  1  0  0  0  0
 18 30  1  0  0  0  0
 19 31  1  0  0  0  0
 20 32  1  0  0  0  0
M  END
> <PUBCHEM_COMPOUND_CID>
96468

> <PUBCHEM_CONFORMER_RMSD>
0.8

> <PUBCHEM_CONFORMER_DIVERSEORDER>
1
6
9
8
10
12
2
11
3
4
5
7

> <PUBCHEM_MMFF94_PARTIAL_CHARGES>
32
1 -0.65
10 0.66
11 -0.15
12 -0.15
13 -0.15
14 -0.15
15 -0.15
16 -0.15
17 -0.15
18 -0.15
19 -0.15
2 -0.65
20 -0.15
23 0.15
24 0.15
25 0.15
26 0.15
27 0.15
28 0.15
29 0.15
3 -0.57
30 0.15
31 0.15
32 0.15
33 0.5
34 0.5
4 -0.57
5 0.2
6 0.2
7 -0.14
8 -0.14
9 0.66

> <PUBCHEM_EFFECTIVE_ROTOR_COUNT>
5

> <PUBCHEM_PHARMACOPHORE_FEATURES>
8
1 1 acceptor
1 2 acceptor
1 3 acceptor
1 4 acceptor
3 1 3 9 anion
3 2 4 10 anion
6 7 11 13 15 17 19 rings
6 8 12 14 16 18 20 rings

> <PUBCHEM_HEAVY_ATOM_COUNT>
20

> <PUBCHEM_ATOM_DEF_STEREO_COUNT>
0

> <PUBCHEM_ATOM_UDEF_STEREO_COUNT>
2

> <PUBCHEM_BOND_DEF_STEREO_COUNT>
0

> <PUBCHEM_BOND_UDEF_STEREO_COUNT>
0

> <PUBCHEM_ISOTOPIC_ATOM_COUNT>
0

> <PUBCHEM_COMPONENT_COUNT>
1

> <PUBCHEM_CACTVS_TAUTO_COUNT>
1

> <PUBCHEM_CONFORMER_ID>
000178D400000001

> <PUBCHEM_MMFF94_ENERGY>
58.4659

> <PUBCHEM_FEATURE_SELFOVERLAP>
40.717

> <PUBCHEM_SHAPE_FINGERPRINT>
11578080 2 17273953896368815713
116883 192 18340760477630181775
12363563 72 18409724062758963874
12553582 1 18339654398576124846
13083527 12 18124289830739004194
13140716 1 18268427937013357914
13149001 5 18192694679424469269
14223421 5 18410850005699258416
15309172 13 17474388453367510681
16752209 62 17397817987026257588
16945 1 18263082111273297871
18981168 100 9943808889076750538
20028762 73 18129664072631144421
20600515 1 17758923001924819856
20645476 183 17318191427672106186
20645477 70 18194953265745567399
20905425 154 18338238266617719492
21285901 2 17680120144721655535
21501502 16 18410576197081071365
21731516 1 18410304613398420538
23184049 29 18408881828224573570
23419403 2 17611418186840315620
23526113 38 17899672816968052095
23557571 272 18269552737667295086
23558518 356 18337941321264150325
23728640 28 17760644767892545306
238 59 17399772287382728639
3060560 45 17618777406853502277
3084891 72 17618215109666447014
3250762 1 18409719668922770725
465052 167 17536914037934588193
5262128 65 18408881854052711466
589210 1 18410301314873950308
70251023 43 18411415133312570079
7364860 26 18268711795544047194
81228 2 18337950095792048131
8809292 202 17910389490289301838

> <PUBCHEM_SHAPE_MULTIPOLES>
388.11
5.23
3.92
1.36
0.34
2.41
-0.02
-4.37
0.01
-0.21
-0.01
-0.1
-0.33
0.41

> <PUBCHEM_SHAPE_SELFOVERLAP>
834.681

> <PUBCHEM_SHAPE_VOLUME>
211.4

> <PUBCHEM_COORDINATE_TYPE>
2
5
10

$$$$
