142331
  -OEChem-11012400383D

 21 22  0     0  0  0  0  0  0999 V2000
    3.0679    0.7162    1.1229 O   0  0  0  0  0  0  0  0  0  0  0  0
    0.1450   -2.2728    0.1436 O   0  0  0  0  0  0  0  0  0  0  0  0
    1.8919    0.0258    1.4222 N   0  0  0  0  0  0  0  0  0  0  0  0
    3.2640    0.8058   -0.2566 N   0  0  0  0  0  0  0  0  0  0  0  0
    1.9561   -0.0054   -2.1002 N   0  0  0  0  0  0  0  0  0  0  0  0
   -1.1243   -0.3463    0.0774 C   0  0  0  0  0  0  0  0  0  0  0  0
    0.1571   -1.0304    0.1467 C   0  0  0  0  0  0  0  0  0  0  0  0
    1.4240   -0.2731    0.2359 C   0  0  0  0  0  0  0  0  0  0  0  0
   -1.1718    1.0478    0.0778 C   0  0  0  0  0  0  0  0  0  0  0  0
   -2.3059   -1.0843    0.0108 C   0  0  0  0  0  0  0  0  0  0  0  0
    2.2150    0.1755   -0.7818 C   0  0  0  0  0  0  0  0  0  0  0  0
   -2.4010    1.7038    0.0117 C   0  0  0  0  0  0  0  0  0  0  0  0
   -3.5352   -0.4284   -0.0555 C   0  0  0  0  0  0  0  0  0  0  0  0
   -3.5827    0.9657   -0.0550 C   0  0  0  0  0  0  0  0  0  0  0  0
   -0.2790    1.6634    0.1290 H   0  0  0  0  0  0  0  0  0  0  0  0
   -2.3011   -2.1711    0.0087 H   0  0  0  0  0  0  0  0  0  0  0  0
   -2.4387    2.7893    0.0123 H   0  0  0  0  0  0  0  0  0  0  0  0
   -4.4555   -1.0028   -0.1074 H   0  0  0  0  0  0  0  0  0  0  0  0
   -4.5398    1.4764   -0.1066 H   0  0  0  0  0  0  0  0  0  0  0  0
    1.1349   -0.4967   -2.4403 H   0  0  0  0  0  0  0  0  0  0  0  0
    2.5769    0.3470   -2.8220 H   0  0  0  0  0  0  0  0  0  0  0  0
  1  3  1  0  0  0  0
  1  4  1  0  0  0  0
  2  7  2  0  0  0  0
  3  8  2  0  0  0  0
  4 11  2  0  0  0  0
  5 11  1  0  0  0  0
  5 20  1  0  0  0  0
  5 21  1  0  0  0  0
  6  7  1  0  0  0  0
  6  9  2  0  0  0  0
  6 10  1  0  0  0  0
  7  8  1  0  0  0  0
  8 11  1  0  0  0  0
  9 12  1  0  0  0  0
  9 15  1  0  0  0  0
 10 13  2  0  0  0  0
 10 16  1  0  0  0  0
 12 14  2  0  0  0  0
 12 17  1  0  0  0  0
 13 14  1  0  0  0  0
 13 18  1  0  0  0  0
 14 19  1  0  0  0  0
M  END
> <PUBCHEM_COMPOUND_CID>
142331

> <PUBCHEM_CONFORMER_RMSD>
0.6

> <PUBCHEM_CONFORMER_DIVERSEORDER>
2
4
3
1

> <PUBCHEM_MMFF94_PARTIAL_CHARGES>
21
1 0.24
10 -0.15
11 0.37
12 -0.15
13 -0.15
14 -0.15
15 0.15
16 0.15
17 0.15
18 0.15
19 0.15
2 -0.57
20 0.4
21 0.4
3 -0.41
4 -0.41
5 -0.88
6 0.09
7 0.57
8 0.2
9 -0.15

> <PUBCHEM_EFFECTIVE_ROTOR_COUNT>
2

> <PUBCHEM_PHARMACOPHORE_FEATURES>
6
1 2 acceptor
1 3 acceptor
1 5 donor
3 4 5 11 cation
5 1 3 4 8 11 rings
6 6 9 10 12 13 14 rings

> <PUBCHEM_HEAVY_ATOM_COUNT>
14

> <PUBCHEM_ATOM_DEF_STEREO_COUNT>
0

> <PUBCHEM_ATOM_UDEF_STEREO_COUNT>
0

> <PUBCHEM_BOND_DEF_STEREO_COUNT>
0

> <PUBCHEM_BOND_UDEF_STEREO_COUNT>
0

> <PUBCHEM_ISOTOPIC_ATOM_COUNT>
0

> <PUBCHEM_COMPONENT_COUNT>
1

> <PUBCHEM_CACTVS_TAUTO_COUNT>
2

> <PUBCHEM_CONFORMER_ID>
00022BFB00000002

> <PUBCHEM_MMFF94_ENERGY>
38.4318

> <PUBCHEM_FEATURE_SELFOVERLAP>
30.446

> <PUBCHEM_SHAPE_FINGERPRINT>
11132069 177 18335416863946238697
11471102 22 14634864267004554868
12932764 1 17988642982583691727
13380535 21 18269004098365426227
13538477 17 17823134699555380066
13764800 53 18335434460490339945
14325111 11 18410572868581293075
14614273 12 18261946358901590469
15219456 202 17704354372570403940
15775835 57 18113057146829770364
16945 1 18409731768409489787
17357990 137 17822023007590003572
17846911 113 18411129251761937937
18186145 218 17988655072541862755
20201158 50 17346605179082243140
21028194 46 18335421235848295795
22802520 49 17916323648542643933
230 275 18410571743189078638
23402539 116 18272078431460378300
23552423 10 18117559514244690571
23557571 272 18059018409556330151
23559900 14 18272938215884553222
2748010 2 18192435156621180951
305870 269 18261949644129754066
3248919 1 17748830704730690099
369184 2 15574716889559028689
7364860 26 18126563414426698839
77492 1 17603583070975083302
81228 2 17838898488020986339

> <PUBCHEM_SHAPE_MULTIPOLES>
261.43
5.77
1.54
1.1
0.85
0.34
-0.3
-1.75
-0.05
0.7
0.08
-1.12
-0.09
0.04

> <PUBCHEM_SHAPE_SELFOVERLAP>
568.33

> <PUBCHEM_SHAPE_VOLUME>
142

> <PUBCHEM_COORDINATE_TYPE>
2
5
10

$$$$
