142121
  -OEChem-11012400573D

 35 37  0     1  0  0  0  0  0999 V2000
   -0.1535    0.0266   -1.6083 S   0  0  0  0  0  0  0  0  0  0  0  0
    0.8401    3.1107    1.3309 O   0  0  0  0  0  0  0  0  0  0  0  0
   -0.9349    0.3888    0.0080 C   0  0  1  0  0  0  0  0  0  0  0  0
    1.4997    0.7712   -1.3242 C   0  0  1  0  0  0  0  0  0  0  0  0
   -0.9277    1.8951    0.2702 C   0  0  0  0  0  0  0  0  0  0  0  0
    1.3955    2.2184   -0.8241 C   0  0  0  0  0  0  0  0  0  0  0  0
    0.4811    2.4353    0.3658 C   0  0  0  0  0  0  0  0  0  0  0  0
   -2.3242   -0.2169    0.0710 C   0  0  0  0  0  0  0  0  0  0  0  0
    2.4046   -0.1707   -0.5456 C   0  0  0  0  0  0  0  0  0  0  0  0
   -2.4887   -1.5404    0.4769 C   0  0  0  0  0  0  0  0  0  0  0  0
    3.0434   -1.2228   -1.2006 C   0  0  0  0  0  0  0  0  0  0  0  0
   -3.4347    0.5507   -0.2776 C   0  0  0  0  0  0  0  0  0  0  0  0
    2.5944    0.0185    0.8228 C   0  0  0  0  0  0  0  0  0  0  0  0
   -3.7663   -2.0974    0.5344 C   0  0  0  0  0  0  0  0  0  0  0  0
    3.8732   -2.0870   -0.4862 C   0  0  0  0  0  0  0  0  0  0  0  0
   -4.7122   -0.0062   -0.2198 C   0  0  0  0  0  0  0  0  0  0  0  0
    3.4244   -0.8454    1.5372 C   0  0  0  0  0  0  0  0  0  0  0  0
   -4.8780   -1.3303    0.1863 C   0  0  0  0  0  0  0  0  0  0  0  0
    4.0639   -1.8981    0.8827 C   0  0  0  0  0  0  0  0  0  0  0  0
   -0.3299   -0.0982    0.7825 H   0  0  0  0  0  0  0  0  0  0  0  0
    1.9484    0.8492   -2.3241 H   0  0  0  0  0  0  0  0  0  0  0  0
   -1.4339    2.1159    1.2186 H   0  0  0  0  0  0  0  0  0  0  0  0
   -1.4300    2.4745   -0.5131 H   0  0  0  0  0  0  0  0  0  0  0  0
    1.0110    2.8602   -1.6278 H   0  0  0  0  0  0  0  0  0  0  0  0
    2.3912    2.6027   -0.5702 H   0  0  0  0  0  0  0  0  0  0  0  0
   -1.6311   -2.1494    0.7503 H   0  0  0  0  0  0  0  0  0  0  0  0
    2.9047   -1.3819   -2.2667 H   0  0  0  0  0  0  0  0  0  0  0  0
   -3.3524    1.5775   -0.6167 H   0  0  0  0  0  0  0  0  0  0  0  0
    2.1166    0.8147    1.3773 H   0  0  0  0  0  0  0  0  0  0  0  0
   -3.8955   -3.1286    0.8501 H   0  0  0  0  0  0  0  0  0  0  0  0
    4.3711   -2.9069   -0.9956 H   0  0  0  0  0  0  0  0  0  0  0  0
   -5.5778    0.5892   -0.4951 H   0  0  0  0  0  0  0  0  0  0  0  0
    3.5718   -0.7000    2.6034 H   0  0  0  0  0  0  0  0  0  0  0  0
   -5.8726   -1.7643    0.2301 H   0  0  0  0  0  0  0  0  0  0  0  0
    4.7097   -2.5712    1.4390 H   0  0  0  0  0  0  0  0  0  0  0  0
  1  3  1  0  0  0  0
  1  4  1  0  0  0  0
  2  7  2  0  0  0  0
  3  5  1  0  0  0  0
  3  8  1  0  0  0  0
  3 20  1  0  0  0  0
  4  6  1  0  0  0  0
  4  9  1  0  0  0  0
  4 21  1  0  0  0  0
  5  7  1  0  0  0  0
  5 22  1  0  0  0  0
  5 23  1  0  0  0  0
  6  7  1  0  0  0  0
  6 24  1  0  0  0  0
  6 25  1  0  0  0  0
  8 10  2  0  0  0  0
  8 12  1  0  0  0  0
  9 11  2  0  0  0  0
  9 13  1  0  0  0  0
 10 14  1  0  0  0  0
 10 26  1  0  0  0  0
 11 15  1  0  0  0  0
 11 27  1  0  0  0  0
 12 16  2  0  0  0  0
 12 28  1  0  0  0  0
 13 17  2  0  0  0  0
 13 29  1  0  0  0  0
 14 18  2  0  0  0  0
 14 30  1  0  0  0  0
 15 19  2  0  0  0  0
 15 31  1  0  0  0  0
 16 18  1  0  0  0  0
 16 32  1  0  0  0  0
 17 19  1  0  0  0  0
 17 33  1  0  0  0  0
 18 34  1  0  0  0  0
 19 35  1  0  0  0  0
M  END
> <PUBCHEM_COMPOUND_CID>
142121

> <PUBCHEM_CONFORMER_RMSD>
0.6

> <PUBCHEM_CONFORMER_DIVERSEORDER>
1
9
4
10
8
12
11
5
16
6
2
17
14
7
3
13
15

> <PUBCHEM_MMFF94_PARTIAL_CHARGES>
29
1 -0.46
10 -0.15
11 -0.15
12 -0.15
13 -0.15
14 -0.15
15 -0.15
16 -0.15
17 -0.15
18 -0.15
19 -0.15
2 -0.57
26 0.15
27 0.15
28 0.15
29 0.15
3 0.37
30 0.15
31 0.15
32 0.15
33 0.15
34 0.15
35 0.15
4 0.37
5 0.06
6 0.06
7 0.45
8 -0.14
9 -0.14

> <PUBCHEM_EFFECTIVE_ROTOR_COUNT>
3

> <PUBCHEM_PHARMACOPHORE_FEATURES>
4
1 2 acceptor
6 1 3 4 5 6 7 rings
6 8 10 12 14 16 18 rings
6 9 11 13 15 17 19 rings

> <PUBCHEM_HEAVY_ATOM_COUNT>
19

> <PUBCHEM_ATOM_DEF_STEREO_COUNT>
0

> <PUBCHEM_ATOM_UDEF_STEREO_COUNT>
2

> <PUBCHEM_BOND_DEF_STEREO_COUNT>
0

> <PUBCHEM_BOND_UDEF_STEREO_COUNT>
0

> <PUBCHEM_ISOTOPIC_ATOM_COUNT>
0

> <PUBCHEM_COMPONENT_COUNT>
1

> <PUBCHEM_CACTVS_TAUTO_COUNT>
2

> <PUBCHEM_CONFORMER_ID>
00022B2900000001

> <PUBCHEM_MMFF94_ENERGY>
52.1299

> <PUBCHEM_FEATURE_SELFOVERLAP>
20.298

> <PUBCHEM_SHAPE_FINGERPRINT>
10610426 29 18040431062377997932
11405975 8 18410861005859382009
11578080 2 17822556262145517196
11640471 11 11311473759637264214
11796584 16 18040714753832275915
12363563 72 18412833464387981519
12506688 2 18408324384508850962
12553582 1 18266198182765824731
12633257 1 18341063951661490931
12714826 92 17967807194002580543
12788726 201 18338529521050372680
12824470 246 17896032157515851130
13052359 8 17977384937030277301
13134695 92 18201431502161827269
13533116 47 18265616670839742251
14178342 30 17702120079428630193
14251764 38 11742467998336939843
14866123 147 17476368197062886987
15163728 17 9799129737456368706
15352361 1 18409730629779445890
15422964 175 18270117903391298886
15885798 251 18410012104866620997
16752209 62 18042682793429884597
17134986 127 8718826487918441136
17349148 13 17418095451312230871
17804303 29 18261111872636486071
18222031 100 17989490718664382727
19078846 21 18201175294582986601
20291156 8 18334014964940304978
20369508 70 18341051921194350813
20600515 1 18339366236445942132
20626108 58 17967246524566289487
20645477 70 18262803002939852391
20671657 53 17821731611075315364
21033648 29 16916497056439969683
21250096 35 18409729547400052163
21452121 199 18335701671649097252
23419403 2 18194935557278985844
23503958 8 18050848819540985858
23557571 272 17986394390873095764
23559900 14 18409450297173956189
3004659 81 18041284287828163486
3060560 45 10737282467810414986
314173 41 18335144193272735178
3286 77 18409728504255424733
38570 142 14547870980742058514
394222 165 17342666882908428593
474 4 13326569678812360819
4990 188 13623533458812225249
5104073 3 18269284620302522515
5902787 121 18408887347199422687
633830 44 13695588841195307783
6438754 60 12903481873969008776
7364860 26 18269278039600377340
81228 2 17912100359977439344
8509985 295 18413392042639481221
960060 61 16732707150927860959
9709674 26 18043818791142807739
9841814 1 18271537484313405241

> <PUBCHEM_SHAPE_MULTIPOLES>
388.99
8.83
2.8
1.32
5.49
1.29
0.1
-7.16
-1.02
-0.92
-0.73
-1.13
0.12
0.17

> <PUBCHEM_SHAPE_SELFOVERLAP>
822.267

> <PUBCHEM_SHAPE_VOLUME>
216.7

> <PUBCHEM_COORDINATE_TYPE>
2
5
10

$$$$
