8407
  -OEChem-11012401053D

 26 27  0     0  0  0  0  0  0999 V2000
    3.3599   -2.1186   -0.4639 O   0  5  0  0  0  0  0  0  0  0  0  0
    1.2148   -2.3922   -0.0862 O   0  0  0  0  0  0  0  0  0  0  0  0
   -0.3191   -0.4958    0.4046 N   0  0  0  0  0  0  0  0  0  0  0  0
    2.2245   -1.6586   -0.1998 N   0  3  0  0  0  0  0  0  0  0  0  0
    0.8310    0.3064    0.2725 C   0  0  0  0  0  0  0  0  0  0  0  0
   -1.6863   -0.2535    0.1570 C   0  0  0  0  0  0  0  0  0  0  0  0
    2.0766   -0.2543   -0.0225 C   0  0  0  0  0  0  0  0  0  0  0  0
    0.7175    1.6888    0.4404 C   0  0  0  0  0  0  0  0  0  0  0  0
    3.2006    0.5622   -0.1486 C   0  0  0  0  0  0  0  0  0  0  0  0
   -2.6591   -0.9171    0.9046 C   0  0  0  0  0  0  0  0  0  0  0  0
   -2.0657    0.6496   -0.8362 C   0  0  0  0  0  0  0  0  0  0  0  0
    1.8416    2.5052    0.3145 C   0  0  0  0  0  0  0  0  0  0  0  0
    3.0830    1.9419    0.0200 C   0  0  0  0  0  0  0  0  0  0  0  0
   -4.0112   -0.6780    0.6591 C   0  0  0  0  0  0  0  0  0  0  0  0
   -3.4178    0.8889   -1.0816 C   0  0  0  0  0  0  0  0  0  0  0  0
   -4.3905    0.2250   -0.3339 C   0  0  0  0  0  0  0  0  0  0  0  0
   -0.1441   -1.3967    0.8394 H   0  0  0  0  0  0  0  0  0  0  0  0
   -0.2300    2.1562    0.6948 H   0  0  0  0  0  0  0  0  0  0  0  0
    4.1855    0.1629   -0.3769 H   0  0  0  0  0  0  0  0  0  0  0  0
   -2.3765   -1.6227    1.6818 H   0  0  0  0  0  0  0  0  0  0  0  0
   -1.3309    1.1632   -1.4500 H   0  0  0  0  0  0  0  0  0  0  0  0
    1.7514    3.5788    0.4513 H   0  0  0  0  0  0  0  0  0  0  0  0
    3.9582    2.5779   -0.0766 H   0  0  0  0  0  0  0  0  0  0  0  0
   -4.7687   -1.1948    1.2410 H   0  0  0  0  0  0  0  0  0  0  0  0
   -3.7137    1.5878   -1.8585 H   0  0  0  0  0  0  0  0  0  0  0  0
   -5.4432    0.4103   -0.5260 H   0  0  0  0  0  0  0  0  0  0  0  0
  1  4  1  0  0  0  0
  2  4  2  0  0  0  0
  3  5  1  0  0  0  0
  3  6  1  0  0  0  0
  3 17  1  0  0  0  0
  4  7  1  0  0  0  0
  5  7  1  0  0  0  0
  5  8  2  0  0  0  0
  6 10  2  0  0  0  0
  6 11  1  0  0  0  0
  7  9  2  0  0  0  0
  8 12  1  0  0  0  0
  8 18  1  0  0  0  0
  9 13  1  0  0  0  0
  9 19  1  0  0  0  0
 10 14  1  0  0  0  0
 10 20  1  0  0  0  0
 11 15  2  0  0  0  0
 11 21  1  0  0  0  0
 12 13  2  0  0  0  0
 12 22  1  0  0  0  0
 13 23  1  0  0  0  0
 14 16  2  0  0  0  0
 14 24  1  0  0  0  0
 15 16  1  0  0  0  0
 15 25  1  0  0  0  0
 16 26  1  0  0  0  0
M  CHG  2   1  -1   4   1
M  END
> <PUBCHEM_COMPOUND_CID>
8407

> <PUBCHEM_CONFORMER_RMSD>
0.6

> <PUBCHEM_CONFORMER_DIVERSEORDER>
2
3
4
1

> <PUBCHEM_MMFF94_PARTIAL_CHARGES>
26
1 -0.52
10 -0.15
11 -0.15
12 -0.15
13 -0.15
14 -0.15
15 -0.15
16 -0.15
17 0.4
18 0.15
19 0.15
2 -0.52
20 0.15
21 0.15
22 0.15
23 0.15
24 0.15
25 0.15
26 0.15
3 -0.6
4 0.91
5 0.1
6 0.1
7 0.13
8 -0.15
9 -0.15

> <PUBCHEM_EFFECTIVE_ROTOR_COUNT>
3

> <PUBCHEM_PHARMACOPHORE_FEATURES>
7
1 1 acceptor
1 1 anion
1 2 acceptor
1 3 cation
1 3 donor
6 5 7 8 9 12 13 rings
6 6 10 11 14 15 16 rings

> <PUBCHEM_HEAVY_ATOM_COUNT>
16

> <PUBCHEM_ATOM_DEF_STEREO_COUNT>
0

> <PUBCHEM_ATOM_UDEF_STEREO_COUNT>
0

> <PUBCHEM_BOND_DEF_STEREO_COUNT>
0

> <PUBCHEM_BOND_UDEF_STEREO_COUNT>
0

> <PUBCHEM_ISOTOPIC_ATOM_COUNT>
0

> <PUBCHEM_COMPONENT_COUNT>
1

> <PUBCHEM_CACTVS_TAUTO_COUNT>
1

> <PUBCHEM_CONFORMER_ID>
000020D700000002

> <PUBCHEM_MMFF94_ENERGY>
67.6597

> <PUBCHEM_FEATURE_SELFOVERLAP>
35.602

> <PUBCHEM_SHAPE_FINGERPRINT>
10608611 8 18333726923190752821
10922523 26 18259983790585622333
10980938 120 18340485659457277208
11031198 65 18338800116685044476
11471102 20 18412262856560631952
11615757 297 18131075969429614057
116883 192 17982734073704260492
12236239 1 17203613696248290633
12553582 1 17979086989466885642
12654215 9 18409162216933416764
12730499 353 18337677528651323457
13134695 92 17988631974392887472
14251717 144 18413669119042361374
14415576 193 18262238935999807860
15219456 202 18334575758983427089
15375358 24 18187640340815085409
15442244 35 18198348351118896737
16945 1 18343300400840346480
17834074 16 18335140908012994427
1813 80 17487354655008163382
18186145 218 18200321038192976728
19049666 15 18260824839724258909
200 152 18131627907239817093
20201158 50 18408885139644215881
20279233 1 18260547848709002267
20645477 56 18113335319651720757
20645477 70 18342735200366221399
20671657 53 18198067980133345286
21639500 275 18271236222501359697
21730867 7 18408605889465806760
221490 88 18409455811954681786
22802520 49 18261951851943430221
22854114 111 18340768238230111341
22943178 12 18259984890265990083
23402655 69 18342453759817983061
23557571 272 17676486177018398757
23559900 14 18113615668550271942
23598291 2 17989478620015784047
25 1 18339079397154986816
2748010 2 18334295404634510536
3060560 45 18342459274671620228
3323516 105 18335426772156176739
33824 294 18338516447037892458
4072396 5 18337938053125964488
474 4 16914517025140768272
495365 180 18270661152345589929
5104073 3 18334576841563249401
6049 1 18186809071406691337
7364860 26 18412825793792493328
77492 1 17203613691995482393
81228 2 17477485305229248978
81539 233 18335420231258575596
8272917 22 18272660025967045279
9709674 26 18334016137709223403

> <PUBCHEM_SHAPE_MULTIPOLES>
307.57
7.47
2.28
0.86
4.83
0.38
-0.03
-0.23
-0.56
-2.65
-0.06
0.55
-0.07
1.01

> <PUBCHEM_SHAPE_SELFOVERLAP>
663.584

> <PUBCHEM_SHAPE_VOLUME>
168

> <PUBCHEM_COORDINATE_TYPE>
2
5
10

$$$$
