69056
  -OEChem-11012400593D

 30 32  0     0  0  0  0  0  0999 V2000
   -0.7199   -0.8146    0.0001 C   0  0  0  0  0  0  0  0  0  0  0  0
    0.7200   -0.8143    0.0000 C   0  0  0  0  0  0  0  0  0  0  0  0
   -1.4122    0.4246   -0.0002 C   0  0  0  0  0  0  0  0  0  0  0  0
    1.4124    0.4247   -0.0001 C   0  0  0  0  0  0  0  0  0  0  0  0
   -0.6954    1.6240   -0.0003 C   0  0  0  0  0  0  0  0  0  0  0  0
    0.6956    1.6241   -0.0002 C   0  0  0  0  0  0  0  0  0  0  0  0
   -1.5154   -1.9879    0.0003 C   0  0  0  0  0  0  0  0  0  0  0  0
    1.5153   -1.9876    0.0003 C   0  0  0  0  0  0  0  0  0  0  0  0
   -2.8172    0.4587   -0.0003 C   0  0  0  0  0  0  0  0  0  0  0  0
    2.8174    0.4587   -0.0003 C   0  0  0  0  0  0  0  0  0  0  0  0
   -1.4017    2.9503    0.0001 C   0  0  0  0  0  0  0  0  0  0  0  0
    1.4009    2.9508    0.0008 C   0  0  0  0  0  0  0  0  0  0  0  0
   -2.9120   -1.9398    0.0003 C   0  0  0  0  0  0  0  0  0  0  0  0
    2.9120   -1.9397    0.0001 C   0  0  0  0  0  0  0  0  0  0  0  0
   -3.5629   -0.7160   -0.0002 C   0  0  0  0  0  0  0  0  0  0  0  0
    3.5632   -0.7160   -0.0003 C   0  0  0  0  0  0  0  0  0  0  0  0
   -1.0605   -2.9750    0.0010 H   0  0  0  0  0  0  0  0  0  0  0  0
    1.0602   -2.9748    0.0001 H   0  0  0  0  0  0  0  0  0  0  0  0
   -3.3958    1.3756    0.0310 H   0  0  0  0  0  0  0  0  0  0  0  0
    3.3963    1.3753   -0.0323 H   0  0  0  0  0  0  0  0  0  0  0  0
   -1.5825    3.2866    1.0259 H   0  0  0  0  0  0  0  0  0  0  0  0
   -0.8572    3.7270   -0.5462 H   0  0  0  0  0  0  0  0  0  0  0  0
   -2.3509    2.9330   -0.5417 H   0  0  0  0  0  0  0  0  0  0  0  0
    2.3539    2.9331    0.5356 H   0  0  0  0  0  0  0  0  0  0  0  0
    1.5743    3.2921   -1.0247 H   0  0  0  0  0  0  0  0  0  0  0  0
    0.8586    3.7238    0.5547 H   0  0  0  0  0  0  0  0  0  0  0  0
   -3.4858   -2.8621    0.0022 H   0  0  0  0  0  0  0  0  0  0  0  0
    3.4855   -2.8621   -0.0015 H   0  0  0  0  0  0  0  0  0  0  0  0
   -4.6479   -0.6746    0.0068 H   0  0  0  0  0  0  0  0  0  0  0  0
    4.6482   -0.6748   -0.0078 H   0  0  0  0  0  0  0  0  0  0  0  0
  1  2  1  0  0  0  0
  1  3  1  0  0  0  0
  1  7  2  0  0  0  0
  2  4  1  0  0  0  0
  2  8  2  0  0  0  0
  3  5  1  0  0  0  0
  3  9  2  0  0  0  0
  4  6  1  0  0  0  0
  4 10  2  0  0  0  0
  5  6  2  0  0  0  0
  5 11  1  0  0  0  0
  6 12  1  0  0  0  0
  7 13  1  0  0  0  0
  7 17  1  0  0  0  0
  8 14  1  0  0  0  0
  8 18  1  0  0  0  0
  9 15  1  0  0  0  0
  9 19  1  0  0  0  0
 10 16  1  0  0  0  0
 10 20  1  0  0  0  0
 11 21  1  0  0  0  0
 11 22  1  0  0  0  0
 11 23  1  0  0  0  0
 12 24  1  0  0  0  0
 12 25  1  0  0  0  0
 12 26  1  0  0  0  0
 13 15  2  0  0  0  0
 13 27  1  0  0  0  0
 14 16  2  0  0  0  0
 14 28  1  0  0  0  0
 15 29  1  0  0  0  0
 16 30  1  0  0  0  0
M  END
> <PUBCHEM_COMPOUND_CID>
69056

> <PUBCHEM_CONFORMER_RMSD>
0.4

> <PUBCHEM_CONFORMER_DIVERSEORDER>
1

> <PUBCHEM_MMFF94_PARTIAL_CHARGES>
20
10 -0.15
11 0.14
12 0.14
13 -0.15
14 -0.15
15 -0.15
16 -0.15
17 0.15
18 0.15
19 0.15
20 0.15
27 0.15
28 0.15
29 0.15
30 0.15
5 -0.14
6 -0.14
7 -0.15
8 -0.15
9 -0.15

> <PUBCHEM_EFFECTIVE_ROTOR_COUNT>
0

> <PUBCHEM_PHARMACOPHORE_FEATURES>
3
6 1 2 3 4 5 6 rings
6 1 3 7 9 13 15 rings
6 2 4 8 10 14 16 rings

> <PUBCHEM_HEAVY_ATOM_COUNT>
16

> <PUBCHEM_ATOM_DEF_STEREO_COUNT>
0

> <PUBCHEM_ATOM_UDEF_STEREO_COUNT>
0

> <PUBCHEM_BOND_DEF_STEREO_COUNT>
0

> <PUBCHEM_BOND_UDEF_STEREO_COUNT>
0

> <PUBCHEM_ISOTOPIC_ATOM_COUNT>
0

> <PUBCHEM_COMPONENT_COUNT>
1

> <PUBCHEM_CACTVS_TAUTO_COUNT>
1

> <PUBCHEM_CONFORMER_ID>
00010DC000000001

> <PUBCHEM_MMFF94_ENERGY>
67.9613

> <PUBCHEM_FEATURE_SELFOVERLAP>
15.272

> <PUBCHEM_SHAPE_FINGERPRINT>
10319926 262 17907550573474906010
10493431 412 17910400480815479937
10967382 1 18122626325227299335
11132069 177 18411975845481827250
11471102 20 18338230565619992871
11578080 2 17129548415801397729
12553582 1 18410860957686489070
13140716 1 18266458895865163745
13221675 6 18410575084663364742
13583140 156 14117229512764693743
138480 1 14880034022285013344
15001771 113 18411705387022429737
15042514 8 17976824177135215058
15196674 1 18410856563934945262
15442244 35 18411984632879237859
15536298 74 18199752620893841648
16945 1 18410573989446574340
193761 8 18410855464423596804
19868273 325 18337110060086396966
20510252 161 18127689331607966824
20645477 70 18119800559507771903
20871998 184 18129377116205558510
21029758 11 18341885256371530109
21267235 1 18410583880756705254
21501502 16 18265900159649186258
221490 88 18119533390745572219
22721475 48 18410859858174724870
2334 1 17978229692234359044
23388829 49 18341326802995341892
23402539 116 18269823234000709279
23463225 33 18410576227156151647
23557571 272 18128825149200931262
23559900 14 17838330784403808230
2748010 2 18050003586513099044
3091708 16 9210391756686484760
335352 9 18338797797602957085
34934 24 18410845564523758666
352729 6 17690278205504766089
427121 178 15693258386360653393
54173680 148 18122344575668288746
7364860 26 18196654205579533952
81228 2 18265904565932165408
8809292 202 18261396667111597043
9709674 26 18126846002121614910

> <PUBCHEM_SHAPE_MULTIPOLES>
329.27
5.16
3.19
0.62
0
1.76
0
-2.43
0
0
0
0
0
0

> <PUBCHEM_SHAPE_SELFOVERLAP>
740.191

> <PUBCHEM_SHAPE_VOLUME>
162.7

> <PUBCHEM_COORDINATE_TYPE>
2
5
10

$$$$
