80284
  -OEChem-11012401013D

 28 27  0     0  0  0  0  0  0999 V2000
   -0.3821    0.7978   -0.9551 S   0  0  0  0  0  0  0  0  0  0  0  0
    0.3863    0.7881    0.9501 S   0  0  0  0  0  0  0  0  0  0  0  0
   -2.7852   -0.1680    0.2142 C   0  0  0  0  0  0  0  0  0  0  0  0
    2.7854   -0.1669   -0.2134 C   0  0  0  0  0  0  0  0  0  0  0  0
   -1.6885   -0.4624   -0.8236 C   0  0  0  0  0  0  0  0  0  0  0  0
    1.6841   -0.4654    0.8183 C   0  0  0  0  0  0  0  0  0  0  0  0
   -3.5111    1.1528   -0.0503 C   0  0  0  0  0  0  0  0  0  0  0  0
   -3.7890   -1.3142    0.3559 C   0  0  0  0  0  0  0  0  0  0  0  0
    3.5116    1.1517    0.0610 C   0  0  0  0  0  0  0  0  0  0  0  0
    3.7885   -1.3134   -0.3570 C   0  0  0  0  0  0  0  0  0  0  0  0
   -2.3176   -0.0801    1.2024 H   0  0  0  0  0  0  0  0  0  0  0  0
    2.3223   -0.0735   -1.2034 H   0  0  0  0  0  0  0  0  0  0  0  0
   -1.2132   -1.4265   -0.6095 H   0  0  0  0  0  0  0  0  0  0  0  0
   -2.1443   -0.5565   -1.8160 H   0  0  0  0  0  0  0  0  0  0  0  0
    1.2109   -1.4289    0.5969 H   0  0  0  0  0  0  0  0  0  0  0  0
    2.1375   -0.5671    1.8111 H   0  0  0  0  0  0  0  0  0  0  0  0
   -3.9653    1.1578   -1.0470 H   0  0  0  0  0  0  0  0  0  0  0  0
   -4.3109    1.3080    0.6822 H   0  0  0  0  0  0  0  0  0  0  0  0
   -2.8394    2.0130    0.0241 H   0  0  0  0  0  0  0  0  0  0  0  0
   -4.3374   -1.4723   -0.5788 H   0  0  0  0  0  0  0  0  0  0  0  0
   -4.5170   -1.1040    1.1465 H   0  0  0  0  0  0  0  0  0  0  0  0
   -3.2769   -2.2479    0.6109 H   0  0  0  0  0  0  0  0  0  0  0  0
    3.9609    1.1513    1.0600 H   0  0  0  0  0  0  0  0  0  0  0  0
    4.3155    1.3093   -0.6666 H   0  0  0  0  0  0  0  0  0  0  0  0
    2.8418    2.0133   -0.0128 H   0  0  0  0  0  0  0  0  0  0  0  0
    4.3328   -1.4772    0.5791 H   0  0  0  0  0  0  0  0  0  0  0  0
    4.5200   -1.1000   -1.1435 H   0  0  0  0  0  0  0  0  0  0  0  0
    3.2765   -2.2453   -0.6190 H   0  0  0  0  0  0  0  0  0  0  0  0
  1  2  1  0  0  0  0
  1  5  1  0  0  0  0
  2  6  1  0  0  0  0
  3  5  1  0  0  0  0
  3  7  1  0  0  0  0
  3  8  1  0  0  0  0
  3 11  1  0  0  0  0
  4  6  1  0  0  0  0
  4  9  1  0  0  0  0
  4 10  1  0  0  0  0
  4 12  1  0  0  0  0
  5 13  1  0  0  0  0
  5 14  1  0  0  0  0
  6 15  1  0  0  0  0
  6 16  1  0  0  0  0
  7 17  1  0  0  0  0
  7 18  1  0  0  0  0
  7 19  1  0  0  0  0
  8 20  1  0  0  0  0
  8 21  1  0  0  0  0
  8 22  1  0  0  0  0
  9 23  1  0  0  0  0
  9 24  1  0  0  0  0
  9 25  1  0  0  0  0
 10 26  1  0  0  0  0
 10 27  1  0  0  0  0
 10 28  1  0  0  0  0
M  END
> <PUBCHEM_COMPOUND_CID>
80284

> <PUBCHEM_CONFORMER_RMSD>
0.6

> <PUBCHEM_CONFORMER_DIVERSEORDER>
1
6
9
12
10
11
2
7
3
5
4
8

> <PUBCHEM_MMFF94_PARTIAL_CHARGES>
4
1 -0.23
2 -0.23
5 0.23
6 0.23

> <PUBCHEM_EFFECTIVE_ROTOR_COUNT>
5

> <PUBCHEM_PHARMACOPHORE_FEATURES>
4
3 1 3 5 hydrophobe
3 2 4 6 hydrophobe
3 3 7 8 hydrophobe
3 4 9 10 hydrophobe

> <PUBCHEM_HEAVY_ATOM_COUNT>
10

> <PUBCHEM_ATOM_DEF_STEREO_COUNT>
0

> <PUBCHEM_ATOM_UDEF_STEREO_COUNT>
0

> <PUBCHEM_BOND_DEF_STEREO_COUNT>
0

> <PUBCHEM_BOND_UDEF_STEREO_COUNT>
0

> <PUBCHEM_ISOTOPIC_ATOM_COUNT>
0

> <PUBCHEM_COMPONENT_COUNT>
1

> <PUBCHEM_CACTVS_TAUTO_COUNT>
1

> <PUBCHEM_CONFORMER_ID>
0001399C00000001

> <PUBCHEM_MMFF94_ENERGY>
3.324

> <PUBCHEM_FEATURE_SELFOVERLAP>
20.886

> <PUBCHEM_SHAPE_FINGERPRINT>
124424 183 17846776270027337993
13296908 3 18411135835598545412
14251717 144 17604431928264089756
14325111 11 18410573993741392224
17834069 15 17704070698665344405
17834072 33 18340483482293869837
17834074 16 18410857659157224782
18186145 218 17894908512345493396
18511873 20 17060617802303557547
190213 19 18410571790423305797
19422 9 18410859862469640197
20281407 28 18113615672982376173
20645477 70 18059571343656658038
21293036 1 14996292405008794318
22485316 2 18410571790423312291
23402539 116 16877933937090891500
449060 23 17821729424915830023
528716 315 16950286200071061587

> <PUBCHEM_SHAPE_MULTIPOLES>
213.49
7.86
1.41
1
0
0.08
0
1.57
0.01
0
0
0
-0.07
0.35

> <PUBCHEM_SHAPE_SELFOVERLAP>
355.733

> <PUBCHEM_SHAPE_VOLUME>
146.5

> <PUBCHEM_COORDINATE_TYPE>
2
5
10

$$$$
