75569
  -OEChem-11012400453D

 17 17  0     0  0  0  0  0  0999 V2000
    2.0162    0.7723    0.0002 O   0  0  0  0  0  0  0  0  0  0  0  0
    1.8432   -1.5230    0.0000 O   0  0  0  0  0  0  0  0  0  0  0  0
   -0.5030    1.1268    0.0008 N   0  0  0  0  0  0  0  0  0  0  0  0
   -0.1199   -0.1698    0.0009 C   0  0  0  0  0  0  0  0  0  0  0  0
   -1.0011   -1.2390    0.0002 C   0  0  0  0  0  0  0  0  0  0  0  0
   -2.3632   -0.9597   -0.0007 C   0  0  0  0  0  0  0  0  0  0  0  0
    1.3142   -0.4027    0.0007 C   0  0  0  0  0  0  0  0  0  0  0  0
   -2.7963    0.3616   -0.0008 C   0  0  0  0  0  0  0  0  0  0  0  0
   -1.8348    1.3592    0.0000 C   0  0  0  0  0  0  0  0  0  0  0  0
    3.4445    0.6742   -0.0013 C   0  0  0  0  0  0  0  0  0  0  0  0
   -0.6608   -2.2690    0.0001 H   0  0  0  0  0  0  0  0  0  0  0  0
   -3.0861   -1.7700   -0.0013 H   0  0  0  0  0  0  0  0  0  0  0  0
   -3.8530    0.6028   -0.0015 H   0  0  0  0  0  0  0  0  0  0  0  0
   -2.1205    2.4060   -0.0001 H   0  0  0  0  0  0  0  0  0  0  0  0
    3.7857    0.1547   -0.9016 H   0  0  0  0  0  0  0  0  0  0  0  0
    3.7874    0.1544    0.8982 H   0  0  0  0  0  0  0  0  0  0  0  0
    3.8556    1.6871   -0.0015 H   0  0  0  0  0  0  0  0  0  0  0  0
  1  7  1  0  0  0  0
  1 10  1  0  0  0  0
  2  7  2  0  0  0  0
  3  4  1  0  0  0  0
  3  9  2  0  0  0  0
  4  5  2  0  0  0  0
  4  7  1  0  0  0  0
  5  6  1  0  0  0  0
  5 11  1  0  0  0  0
  6  8  2  0  0  0  0
  6 12  1  0  0  0  0
  8  9  1  0  0  0  0
  8 13  1  0  0  0  0
  9 14  1  0  0  0  0
 10 15  1  0  0  0  0
 10 16  1  0  0  0  0
 10 17  1  0  0  0  0
M  END
> <PUBCHEM_COMPOUND_CID>
75569

> <PUBCHEM_CONFORMER_RMSD>
0.4

> <PUBCHEM_CONFORMER_DIVERSEORDER>
1
3
2
4

> <PUBCHEM_MMFF94_PARTIAL_CHARGES>
14
1 -0.43
10 0.28
11 0.15
12 0.15
13 0.15
14 0.15
2 -0.57
3 -0.62
4 0.4
5 -0.15
6 -0.15
7 0.63
8 -0.15
9 0.16

> <PUBCHEM_EFFECTIVE_ROTOR_COUNT>
2

> <PUBCHEM_PHARMACOPHORE_FEATURES>
3
1 2 acceptor
1 3 acceptor
6 3 4 5 6 8 9 rings

> <PUBCHEM_HEAVY_ATOM_COUNT>
10

> <PUBCHEM_ATOM_DEF_STEREO_COUNT>
0

> <PUBCHEM_ATOM_UDEF_STEREO_COUNT>
0

> <PUBCHEM_BOND_DEF_STEREO_COUNT>
0

> <PUBCHEM_BOND_UDEF_STEREO_COUNT>
0

> <PUBCHEM_ISOTOPIC_ATOM_COUNT>
0

> <PUBCHEM_COMPONENT_COUNT>
1

> <PUBCHEM_CACTVS_TAUTO_COUNT>
1

> <PUBCHEM_CONFORMER_ID>
0001273100000001

> <PUBCHEM_MMFF94_ENERGY>
25.4652

> <PUBCHEM_FEATURE_SELFOVERLAP>
15.223

> <PUBCHEM_SHAPE_FINGERPRINT>
10857977 72 18338508763399370321
12897270 3 18412263964725316020
12932764 1 17489860553154572979
13380535 76 18410290311399827042
14325111 11 18410855430079318912
14390081 3 18342174474984183040
16945 1 18410855511857718885
19973954 147 18339645533768289996
20871998 184 18129387158150651207
21040471 1 18338798909962465601
23402655 69 18268976628155710029
23552423 10 18261674779070755987
2748010 2 18337956675439300543
29004967 10 18262243316924082299
369184 2 18334011670768752843
5084963 1 18128530462345512339
6333449 129 18341610451357386061
7364860 26 18270399369978690542

> <PUBCHEM_SHAPE_MULTIPOLES>
189.08
4.59
1.47
0.59
2.42
0.1
0
-0.73
0
-0.21
0
-0.04
0
0

> <PUBCHEM_SHAPE_SELFOVERLAP>
390.658

> <PUBCHEM_SHAPE_VOLUME>
107.8

> <PUBCHEM_COORDINATE_TYPE>
2
5
10

$$$$
