11869205
  -OEChem-11012400353D

 29 30  0     1  0  0  0  0  0999 V2000
    2.9992    1.0388   -0.8209 O   0  0  0  0  0  0  0  0  0  0  0  0
   -0.3156    0.5295    0.8987 C   0  0  1  0  0  0  0  0  0  0  0  0
   -0.4818   -0.9770    0.6032 C   0  0  2  0  0  0  0  0  0  0  0  0
    0.7517    1.1763    0.0012 C   0  0  0  0  0  0  0  0  0  0  0  0
    0.8724   -1.7030    0.6431 C   0  0  0  0  0  0  0  0  0  0  0  0
   -1.6616    1.2643    0.8019 C   0  0  0  0  0  0  0  0  0  0  0  0
   -1.2203   -1.2248   -0.7237 C   0  0  0  0  0  0  0  0  0  0  0  0
    2.0874    0.4412    0.0948 C   0  0  1  0  0  0  0  0  0  0  0  0
    1.9347   -1.0424   -0.2299 C   0  0  0  0  0  0  0  0  0  0  0  0
   -2.4040    0.9954   -0.5048 C   0  0  0  0  0  0  0  0  0  0  0  0
   -2.5623   -0.4985   -0.7638 C   0  0  0  0  0  0  0  0  0  0  0  0
    0.0340    0.6310    1.9361 H   0  0  0  0  0  0  0  0  0  0  0  0
   -1.1033   -1.4082    1.4010 H   0  0  0  0  0  0  0  0  0  0  0  0
    0.4276    1.2064   -1.0462 H   0  0  0  0  0  0  0  0  0  0  0  0
    0.8982    2.2257    0.2879 H   0  0  0  0  0  0  0  0  0  0  0  0
    0.7500   -2.7509    0.3445 H   0  0  0  0  0  0  0  0  0  0  0  0
    1.2321   -1.7163    1.6802 H   0  0  0  0  0  0  0  0  0  0  0  0
   -1.5142    2.3437    0.9257 H   0  0  0  0  0  0  0  0  0  0  0  0
   -2.2972    0.9408    1.6366 H   0  0  0  0  0  0  0  0  0  0  0  0
   -1.3918   -2.3000   -0.8554 H   0  0  0  0  0  0  0  0  0  0  0  0
   -0.6134   -0.8987   -1.5760 H   0  0  0  0  0  0  0  0  0  0  0  0
    2.5005    0.5625    1.1033 H   0  0  0  0  0  0  0  0  0  0  0  0
    2.8970   -1.5503   -0.0903 H   0  0  0  0  0  0  0  0  0  0  0  0
    1.6920   -1.1693   -1.2921 H   0  0  0  0  0  0  0  0  0  0  0  0
   -1.8697    1.4595   -1.3417 H   0  0  0  0  0  0  0  0  0  0  0  0
   -3.3930    1.4663   -0.4659 H   0  0  0  0  0  0  0  0  0  0  0  0
   -3.2331   -0.9306   -0.0109 H   0  0  0  0  0  0  0  0  0  0  0  0
   -3.0366   -0.6549   -1.7392 H   0  0  0  0  0  0  0  0  0  0  0  0
    3.8443    0.5638   -0.7448 H   0  0  0  0  0  0  0  0  0  0  0  0
  1  8  1  0  0  0  0
  1 29  1  0  0  0  0
  2  3  1  0  0  0  0
  2  4  1  0  0  0  0
  2  6  1  0  0  0  0
  2 12  1  0  0  0  0
  3  5  1  0  0  0  0
  3  7  1  0  0  0  0
  3 13  1  0  0  0  0
  4  8  1  0  0  0  0
  4 14  1  0  0  0  0
  4 15  1  0  0  0  0
  5  9  1  0  0  0  0
  5 16  1  0  0  0  0
  5 17  1  0  0  0  0
  6 10  1  0  0  0  0
  6 18  1  0  0  0  0
  6 19  1  0  0  0  0
  7 11  1  0  0  0  0
  7 20  1  0  0  0  0
  7 21  1  0  0  0  0
  8  9  1  0  0  0  0
  8 22  1  0  0  0  0
  9 23  1  0  0  0  0
  9 24  1  0  0  0  0
 10 11  1  0  0  0  0
 10 25  1  0  0  0  0
 10 26  1  0  0  0  0
 11 27  1  0  0  0  0
 11 28  1  0  0  0  0
M  END
> <PUBCHEM_COMPOUND_CID>
11869205

> <PUBCHEM_CONFORMER_RMSD>
0.4

> <PUBCHEM_CONFORMER_DIVERSEORDER>
1
2
3

> <PUBCHEM_MMFF94_PARTIAL_CHARGES>
3
1 -0.68
29 0.4
8 0.28

> <PUBCHEM_EFFECTIVE_ROTOR_COUNT>
1.6

> <PUBCHEM_PHARMACOPHORE_FEATURES>
4
1 1 acceptor
1 1 donor
6 2 3 4 5 8 9 rings
6 2 3 6 7 10 11 rings

> <PUBCHEM_HEAVY_ATOM_COUNT>
11

> <PUBCHEM_ATOM_DEF_STEREO_COUNT>
3

> <PUBCHEM_ATOM_UDEF_STEREO_COUNT>
0

> <PUBCHEM_BOND_DEF_STEREO_COUNT>
0

> <PUBCHEM_BOND_UDEF_STEREO_COUNT>
0

> <PUBCHEM_ISOTOPIC_ATOM_COUNT>
0

> <PUBCHEM_COMPONENT_COUNT>
1

> <PUBCHEM_CACTVS_TAUTO_COUNT>
1

> <PUBCHEM_CONFORMER_ID>
00B51C1500000001

> <PUBCHEM_MMFF94_ENERGY>
13.7091

> <PUBCHEM_FEATURE_SELFOVERLAP>
20.352

> <PUBCHEM_SHAPE_FINGERPRINT>
10857977 72 9439410120262290404
11206711 2 18267868456897672020
12423570 1 13079139353200086419
12716758 59 17918274229436077138
12897270 3 18272366533197028244
13024252 1 18042695081230961785
13839132 238 14780094256733874847
14128692 85 18200300014264713827
15219459 52 18125717890105992151
15310529 11 18260545602430556845
15775835 57 18408889503394578117
16945 1 18271801375693726739
17844478 74 18187656850806528043
18185500 45 18268701714992039971
20653085 51 18186805738174485693
21040471 1 18409727374299250074
23552423 10 18338229350012548043
2748010 2 18336841861054266218
353137 74 18411694413459934225
369184 2 15140956300599580633
5084963 1 18337383838450038723
528886 8 18334288777531679889
63268167 104 18336543811455764960

> <PUBCHEM_SHAPE_MULTIPOLES>
220.51
3.67
1.72
0.99
0.41
0.22
-0.04
-0.76
1.16
0.14
-0.07
-0.12
-0.01
-0.51

> <PUBCHEM_SHAPE_SELFOVERLAP>
444.697

> <PUBCHEM_SHAPE_VOLUME>
127

> <PUBCHEM_COORDINATE_TYPE>
2
5
10

$$$$
