80511
  -OEChem-11012400313D

 18 17  0     0  0  0  0  0  0999 V2000
   -1.8306   -0.5213   -0.0007 N   0  0  0  0  0  0  0  0  0  0  0  0
    3.0900   -0.2449    0.0011 N   0  0  0  0  0  0  0  0  0  0  0  0
    0.6427   -0.3825   -0.0005 C   0  0  0  0  0  0  0  0  0  0  0  0
   -0.6843    0.3794   -0.0133 C   0  0  0  0  0  0  0  0  0  0  0  0
    1.8616    0.5418    0.0056 C   0  0  0  0  0  0  0  0  0  0  0  0
   -3.0795    0.2275    0.0077 C   0  0  0  0  0  0  0  0  0  0  0  0
    0.6883   -1.0405   -0.8787 H   0  0  0  0  0  0  0  0  0  0  0  0
    0.6768   -1.0330    0.8839 H   0  0  0  0  0  0  0  0  0  0  0  0
   -0.7191    1.0103   -0.9099 H   0  0  0  0  0  0  0  0  0  0  0  0
   -0.7198    1.0428    0.8599 H   0  0  0  0  0  0  0  0  0  0  0  0
    1.8434    1.1855    0.8917 H   0  0  0  0  0  0  0  0  0  0  0  0
    1.8467    1.1882   -0.8783 H   0  0  0  0  0  0  0  0  0  0  0  0
   -1.7880   -1.1174    0.8254 H   0  0  0  0  0  0  0  0  0  0  0  0
   -3.9224   -0.4705    0.0070 H   0  0  0  0  0  0  0  0  0  0  0  0
   -3.1721    0.8551   -0.8846 H   0  0  0  0  0  0  0  0  0  0  0  0
   -3.1655    0.8571    0.8995 H   0  0  0  0  0  0  0  0  0  0  0  0
    3.1262   -0.8297    0.8351 H   0  0  0  0  0  0  0  0  0  0  0  0
    3.8921    0.3815    0.0565 H   0  0  0  0  0  0  0  0  0  0  0  0
  1  4  1  0  0  0  0
  1  6  1  0  0  0  0
  1 13  1  0  0  0  0
  2  5  1  0  0  0  0
  2 17  1  0  0  0  0
  2 18  1  0  0  0  0
  3  4  1  0  0  0  0
  3  5  1  0  0  0  0
  3  7  1  0  0  0  0
  3  8  1  0  0  0  0
  4  9  1  0  0  0  0
  4 10  1  0  0  0  0
  5 11  1  0  0  0  0
  5 12  1  0  0  0  0
  6 14  1  0  0  0  0
  6 15  1  0  0  0  0
  6 16  1  0  0  0  0
M  END
> <PUBCHEM_COMPOUND_CID>
80511

> <PUBCHEM_CONFORMER_RMSD>
0.4

> <PUBCHEM_CONFORMER_DIVERSEORDER>
1
19
6
7
14
20
10
9
18
13
5
2
16
17
4
15
8
11
12
3

> <PUBCHEM_MMFF94_PARTIAL_CHARGES>
8
1 -0.9
13 0.36
17 0.36
18 0.36
2 -0.99
4 0.27
5 0.27
6 0.27

> <PUBCHEM_EFFECTIVE_ROTOR_COUNT>
3

> <PUBCHEM_PHARMACOPHORE_FEATURES>
4
1 1 cation
1 1 donor
1 2 cation
1 2 donor

> <PUBCHEM_HEAVY_ATOM_COUNT>
6

> <PUBCHEM_ATOM_DEF_STEREO_COUNT>
0

> <PUBCHEM_ATOM_UDEF_STEREO_COUNT>
0

> <PUBCHEM_BOND_DEF_STEREO_COUNT>
0

> <PUBCHEM_BOND_UDEF_STEREO_COUNT>
0

> <PUBCHEM_ISOTOPIC_ATOM_COUNT>
0

> <PUBCHEM_COMPONENT_COUNT>
1

> <PUBCHEM_CACTVS_TAUTO_COUNT>
1

> <PUBCHEM_CONFORMER_ID>
00013A7F00000001

> <PUBCHEM_MMFF94_ENERGY>
-5.067

> <PUBCHEM_FEATURE_SELFOVERLAP>
20.297

> <PUBCHEM_SHAPE_FINGERPRINT>
14390081 3 18272366481916136929
16714656 1 18410855468892169805
29004967 10 18411423920540461274
5460574 1 9295290538387398277

> <PUBCHEM_SHAPE_MULTIPOLES>
113.52
4.86
0.75
0.59
0.27
0.03
0
0.04
-0.02
-0.02
0
0.02
0.01
0

> <PUBCHEM_SHAPE_SELFOVERLAP>
189.972

> <PUBCHEM_SHAPE_VOLUME>
75.8

> <PUBCHEM_COORDINATE_TYPE>
2
5
10

$$$$
