79665
  -OEChem-11012401083D

 22 22  0     0  0  0  0  0  0999 V2000
    1.7794    0.0025   -0.4640 S   0  0  0  0  0  0  0  0  0  0  0  0
    2.1585   -1.2513   -1.1044 O   0  0  0  0  0  0  0  0  0  0  0  0
    2.1381    1.2625   -1.1034 O   0  0  0  0  0  0  0  0  0  0  0  0
    0.0502    0.0011   -0.2223 C   0  0  0  0  0  0  0  0  0  0  0  0
   -2.7127   -0.0018    0.1633 C   0  0  0  0  0  0  0  0  0  0  0  0
   -0.6411    1.2083   -0.1209 C   0  0  0  0  0  0  0  0  0  0  0  0
   -0.6398   -1.2076   -0.1308 C   0  0  0  0  0  0  0  0  0  0  0  0
   -2.0226    1.2069    0.0720 C   0  0  0  0  0  0  0  0  0  0  0  0
   -2.0214   -1.2091    0.0619 C   0  0  0  0  0  0  0  0  0  0  0  0
   -4.1899   -0.0036    0.3681 C   0  0  0  0  0  0  0  0  0  0  0  0
    2.3885   -0.0038    1.1584 C   0  0  0  0  0  0  0  0  0  0  0  0
    3.7128   -0.0040    1.3219 C   0  0  0  0  0  0  0  0  0  0  0  0
   -0.1236    2.1615   -0.1829 H   0  0  0  0  0  0  0  0  0  0  0  0
   -0.1209   -2.1594   -0.2012 H   0  0  0  0  0  0  0  0  0  0  0  0
   -2.5502    2.1539    0.1490 H   0  0  0  0  0  0  0  0  0  0  0  0
   -2.5480   -2.1572    0.1309 H   0  0  0  0  0  0  0  0  0  0  0  0
   -4.5093   -0.8854    0.9341 H   0  0  0  0  0  0  0  0  0  0  0  0
   -4.5111    0.8754    0.9372 H   0  0  0  0  0  0  0  0  0  0  0  0
   -4.7032   -0.0023   -0.5986 H   0  0  0  0  0  0  0  0  0  0  0  0
    1.7132   -0.0076    2.0060 H   0  0  0  0  0  0  0  0  0  0  0  0
    4.1369   -0.0080    2.3203 H   0  0  0  0  0  0  0  0  0  0  0  0
    4.4018   -0.0002    0.4842 H   0  0  0  0  0  0  0  0  0  0  0  0
  1  2  2  0  0  0  0
  1  3  2  0  0  0  0
  1  4  1  0  0  0  0
  1 11  1  0  0  0  0
  4  6  2  0  0  0  0
  4  7  1  0  0  0  0
  5  8  2  0  0  0  0
  5  9  1  0  0  0  0
  5 10  1  0  0  0  0
  6  8  1  0  0  0  0
  6 13  1  0  0  0  0
  7  9  2  0  0  0  0
  7 14  1  0  0  0  0
  8 15  1  0  0  0  0
  9 16  1  0  0  0  0
 10 17  1  0  0  0  0
 10 18  1  0  0  0  0
 10 19  1  0  0  0  0
 11 12  2  0  0  0  0
 11 20  1  0  0  0  0
 12 21  1  0  0  0  0
 12 22  1  0  0  0  0
M  END
> <PUBCHEM_COMPOUND_CID>
79665

> <PUBCHEM_CONFORMER_RMSD>
0.6

> <PUBCHEM_CONFORMER_DIVERSEORDER>
1
2

> <PUBCHEM_MMFF94_PARTIAL_CHARGES>
19
1 1.33
10 0.14
11 -0.17
12 -0.3
13 0.15
14 0.15
15 0.15
16 0.15
2 -0.65
20 0.15
21 0.15
22 0.15
3 -0.65
4 -0.01
5 -0.14
6 -0.15
7 -0.15
8 -0.15
9 -0.15

> <PUBCHEM_EFFECTIVE_ROTOR_COUNT>
2

> <PUBCHEM_PHARMACOPHORE_FEATURES>
3
1 2 acceptor
1 3 acceptor
6 4 5 6 7 8 9 rings

> <PUBCHEM_HEAVY_ATOM_COUNT>
12

> <PUBCHEM_ATOM_DEF_STEREO_COUNT>
0

> <PUBCHEM_ATOM_UDEF_STEREO_COUNT>
0

> <PUBCHEM_BOND_DEF_STEREO_COUNT>
0

> <PUBCHEM_BOND_UDEF_STEREO_COUNT>
0

> <PUBCHEM_ISOTOPIC_ATOM_COUNT>
0

> <PUBCHEM_COMPONENT_COUNT>
1

> <PUBCHEM_CACTVS_TAUTO_COUNT>
1

> <PUBCHEM_CONFORMER_ID>
0001373100000001

> <PUBCHEM_MMFF94_ENERGY>
17.9094

> <PUBCHEM_FEATURE_SELFOVERLAP>
15.241

> <PUBCHEM_SHAPE_FINGERPRINT>
10130415 120 18187365449875553089
10857977 72 18341613737102326057
11031198 65 15051733131334788592
11132069 177 18341895186641555267
11769659 78 16515970371246942179
12251169 10 18335974342105952904
12932764 1 17203615869390985805
13538477 17 17968381254931147987
13581323 91 18409158909607807712
14325111 11 18410865343338624389
15219456 202 17917707951109854698
15775835 57 16845565435407529190
16945 1 18333736788672343143
17846911 113 18343858914213656081
18186145 218 16773526490365539881
19026448 4 15985112916167531709
19026448 5 15936699207283115743
20201158 50 17918269861512392050
20279233 1 17989487428793383867
20559304 39 18113620066860527040
20645464 45 17775560953066525083
20645476 183 17168726239480749631
20645477 70 14201398278842703795
21501925 9 18261106378851003569
22445834 79 17676756587742539314
23402539 116 18270381859396544309
23552423 10 18334304149262038279
2748010 2 18050010995795681231
3248919 1 18411421721707116295
369184 2 18411408518872127347
5084963 1 18198917928116749549
69090 78 17774995787305832495
7364860 26 18340214072028233516

> <PUBCHEM_SHAPE_MULTIPOLES>
239.07
6.09
1.31
1.06
0.82
0
-0.07
-0.01
-1.9
0.22
0.24
-1.07
0
0

> <PUBCHEM_SHAPE_SELFOVERLAP>
479.833

> <PUBCHEM_SHAPE_VOLUME>
140.4

> <PUBCHEM_COORDINATE_TYPE>
2
5
10

$$$$
