76982
  -OEChem-11012401113D

 18 19  0     0  0  0  0  0  0999 V2000
    1.1994    1.8705    0.0021 S   0  0  0  0  0  0  0  0  0  0  0  0
    3.1606    1.3042    0.0088 S   0  0  0  0  0  0  0  0  0  0  0  0
    4.1443   -1.5409   -0.0105 S   0  0  0  0  0  0  0  0  0  0  0  0
   -0.8573    0.0652    0.0021 C   0  0  0  0  0  0  0  0  0  0  0  0
    0.5974    0.2528    0.0052 C   0  0  0  0  0  0  0  0  0  0  0  0
   -1.5507   -0.0309    1.2086 C   0  0  0  0  0  0  0  0  0  0  0  0
   -1.5476   -0.0164   -1.2073 C   0  0  0  0  0  0  0  0  0  0  0  0
    1.4521   -0.7777    0.0003 C   0  0  0  0  0  0  0  0  0  0  0  0
   -2.9342   -0.2088    1.2058 C   0  0  0  0  0  0  0  0  0  0  0  0
   -2.9310   -0.1941   -1.2101 C   0  0  0  0  0  0  0  0  0  0  0  0
   -3.6243   -0.2904   -0.0035 C   0  0  0  0  0  0  0  0  0  0  0  0
    2.8913   -0.4335   -0.0015 C   0  0  0  0  0  0  0  0  0  0  0  0
   -1.0276    0.0304    2.1600 H   0  0  0  0  0  0  0  0  0  0  0  0
   -1.0222    0.0562   -2.1566 H   0  0  0  0  0  0  0  0  0  0  0  0
    1.1364   -1.8144   -0.0025 H   0  0  0  0  0  0  0  0  0  0  0  0
   -3.4742   -0.2839    2.1452 H   0  0  0  0  0  0  0  0  0  0  0  0
   -3.4686   -0.2577   -2.1517 H   0  0  0  0  0  0  0  0  0  0  0  0
   -4.7015   -0.4289   -0.0058 H   0  0  0  0  0  0  0  0  0  0  0  0
  1  2  1  0  0  0  0
  1  5  1  0  0  0  0
  2 12  1  0  0  0  0
  3 12  2  0  0  0  0
  4  5  1  0  0  0  0
  4  6  2  0  0  0  0
  4  7  1  0  0  0  0
  5  8  2  0  0  0  0
  6  9  1  0  0  0  0
  6 13  1  0  0  0  0
  7 10  2  0  0  0  0
  7 14  1  0  0  0  0
  8 12  1  0  0  0  0
  8 15  1  0  0  0  0
  9 11  2  0  0  0  0
  9 16  1  0  0  0  0
 10 11  1  0  0  0  0
 10 17  1  0  0  0  0
 11 18  1  0  0  0  0
M  END
> <PUBCHEM_COMPOUND_CID>
76982

> <PUBCHEM_CONFORMER_RMSD>
0.4

> <PUBCHEM_CONFORMER_DIVERSEORDER>
1
2
3

> <PUBCHEM_MMFF94_PARTIAL_CHARGES>
18
1 -0.1
10 -0.15
11 -0.15
12 0.51
13 0.15
14 0.15
15 0.15
16 0.15
17 0.15
18 0.15
2 -0.14
3 -0.38
4 0.03
5 0.07
6 -0.15
7 -0.15
8 -0.14
9 -0.15

> <PUBCHEM_EFFECTIVE_ROTOR_COUNT>
1

> <PUBCHEM_PHARMACOPHORE_FEATURES>
3
1 3 acceptor
5 1 2 5 8 12 rings
6 4 6 7 9 10 11 rings

> <PUBCHEM_HEAVY_ATOM_COUNT>
12

> <PUBCHEM_ATOM_DEF_STEREO_COUNT>
0

> <PUBCHEM_ATOM_UDEF_STEREO_COUNT>
0

> <PUBCHEM_BOND_DEF_STEREO_COUNT>
0

> <PUBCHEM_BOND_UDEF_STEREO_COUNT>
0

> <PUBCHEM_ISOTOPIC_ATOM_COUNT>
0

> <PUBCHEM_COMPONENT_COUNT>
1

> <PUBCHEM_CACTVS_TAUTO_COUNT>
1

> <PUBCHEM_CONFORMER_ID>
00012CB600000001

> <PUBCHEM_MMFF94_ENERGY>
25.0031

> <PUBCHEM_FEATURE_SELFOVERLAP>
15.223

> <PUBCHEM_SHAPE_FINGERPRINT>
10219947 1 18341895194978275854
10465860 71 15791739585349804414
10751810 167 14923948933473413586
11471102 20 18408602578325758820
11578080 2 17415524732464763961
12032990 46 18333454214205233546
12186901 62 15791730767771467375
12932764 1 17458338662861397970
13296908 3 17967814955098187250
13296909 8 16988277560657462968
14144814 61 17846782926857277704
14993402 34 17989208178562312012
15219456 202 17894911866541014724
15669948 3 16271641303610871373
15775835 57 17632303418372840545
16945 1 18338799026064044448
1813 80 18129679486968122334
18175812 5 17821731653909079911
18186145 218 17603863381978824452
19026448 4 17822290205847443613
19026448 5 17846500352374168601
19422 9 17917712421933595574
200 152 18272362071063643783
20201158 50 18040434369423681410
20279233 1 17748823046619203144
20281407 28 17313109652384706146
20339313 130 18413394224435440136
20361792 2 18341890762556228236
20645464 45 17386278908829550777
20645477 70 18409441475585729182
20671657 53 18188493467575675990
20711985 327 18059856143180583404
20711985 344 17824813443669040676
20715346 28 17749390415962219984
20871998 22 18057050112429359006
21061003 4 18333740091132980585
21639500 275 18268421520047777052
2255824 54 18343304795045246142
232386 152 16630238186193531974
23557571 272 16805888505941786948
23559900 14 16878219788908451546
3248919 1 17418379107520313574
474 4 17771051993753246432
6049 1 17676209090928688796
77492 1 17703793642941046736

> <PUBCHEM_SHAPE_MULTIPOLES>
258.5
7.04
1.43
1.1
1.35
0.41
0
-2.16
-0.01
1.86
0
-1.04
-0.05
0.01

> <PUBCHEM_SHAPE_SELFOVERLAP>
516.111

> <PUBCHEM_SHAPE_VOLUME>
150

> <PUBCHEM_COORDINATE_TYPE>
2
5
10

$$$$
