138782
  -OEChem-11012401203D

 19 19  0     0  0  0  0  0  0999 V2000
    1.2054    2.0349    0.6964 Cl  0  0  0  0  0  0  0  0  0  0  0  0
    3.1066    0.3887   -0.7729 Cl  0  0  0  0  0  0  0  0  0  0  0  0
   -3.2833    0.4334   -0.2868 O   0  0  0  0  0  0  0  0  0  0  0  0
    0.7434   -0.5758    0.1372 C   0  0  0  0  0  0  0  0  0  0  0  0
    1.8712    0.4048    0.4975 C   0  0  0  0  0  0  0  0  0  0  0  0
    1.3283   -1.9860   -0.0427 C   0  0  0  0  0  0  0  0  0  0  0  0
    0.1142   -0.1380   -1.1677 C   0  0  0  0  0  0  0  0  0  0  0  0
   -0.2594   -0.6041    1.2703 C   0  0  0  0  0  0  0  0  0  0  0  0
   -1.1748    0.1878   -1.3152 C   0  0  0  0  0  0  0  0  0  0  0  0
   -1.5519   -0.2828    1.1461 C   0  0  0  0  0  0  0  0  0  0  0  0
   -2.0997    0.1371   -0.1621 C   0  0  0  0  0  0  0  0  0  0  0  0
    2.3632    0.1319    1.4373 H   0  0  0  0  0  0  0  0  0  0  0  0
    1.9496   -2.0876   -0.9395 H   0  0  0  0  0  0  0  0  0  0  0  0
    1.9361   -2.2804    0.8215 H   0  0  0  0  0  0  0  0  0  0  0  0
    0.5282   -2.7318   -0.1403 H   0  0  0  0  0  0  0  0  0  0  0  0
    0.7290   -0.1110   -2.0644 H   0  0  0  0  0  0  0  0  0  0  0  0
    0.1006   -0.9095    2.2507 H   0  0  0  0  0  0  0  0  0  0  0  0
   -1.5763    0.4830   -2.2776 H   0  0  0  0  0  0  0  0  0  0  0  0
   -2.2270   -0.3216    1.9930 H   0  0  0  0  0  0  0  0  0  0  0  0
  1  5  1  0  0  0  0
  2  5  1  0  0  0  0
  3 11  2  0  0  0  0
  4  5  1  0  0  0  0
  4  6  1  0  0  0  0
  4  7  1  0  0  0  0
  4  8  1  0  0  0  0
  5 12  1  0  0  0  0
  6 13  1  0  0  0  0
  6 14  1  0  0  0  0
  6 15  1  0  0  0  0
  7  9  2  0  0  0  0
  7 16  1  0  0  0  0
  8 10  2  0  0  0  0
  8 17  1  0  0  0  0
  9 11  1  0  0  0  0
  9 18  1  0  0  0  0
 10 11  1  0  0  0  0
 10 19  1  0  0  0  0
M  END
> <PUBCHEM_COMPOUND_CID>
138782

> <PUBCHEM_CONFORMER_RMSD>
0.4

> <PUBCHEM_CONFORMER_DIVERSEORDER>
1
2
3

> <PUBCHEM_MMFF94_PARTIAL_CHARGES>
14
1 -0.29
10 -0.14
11 0.54
16 0.15
17 0.15
18 0.15
19 0.15
2 -0.29
3 -0.57
4 0.28
5 0.58
7 -0.29
8 -0.29
9 -0.14

> <PUBCHEM_EFFECTIVE_ROTOR_COUNT>
1.2

> <PUBCHEM_PHARMACOPHORE_FEATURES>
2
1 3 acceptor
6 4 7 8 9 10 11 rings

> <PUBCHEM_HEAVY_ATOM_COUNT>
11

> <PUBCHEM_ATOM_DEF_STEREO_COUNT>
0

> <PUBCHEM_ATOM_UDEF_STEREO_COUNT>
0

> <PUBCHEM_BOND_DEF_STEREO_COUNT>
0

> <PUBCHEM_BOND_UDEF_STEREO_COUNT>
0

> <PUBCHEM_ISOTOPIC_ATOM_COUNT>
0

> <PUBCHEM_COMPONENT_COUNT>
1

> <PUBCHEM_CACTVS_TAUTO_COUNT>
1

> <PUBCHEM_CONFORMER_ID>
00021E1E00000001

> <PUBCHEM_MMFF94_ENERGY>
23.7765

> <PUBCHEM_FEATURE_SELFOVERLAP>
10.148

> <PUBCHEM_SHAPE_FINGERPRINT>
10857977 72 16732702770414159377
11031198 65 18409172099336335614
12423570 1 13450248051141982352
13024252 1 14495478155628135032
13839132 238 17531522070906757748
14993402 34 17489877024607419444
15557651 10 18114732824104224892
15775835 57 18271523195104852708
16945 1 18342735221592890881
20653085 51 17987236805711242376
207724 885 17418105294976203596
21040471 1 16226607364837503883
23235685 24 17603583045131504741
23552423 10 16486968531270696454
29004967 10 18339918212662619050
5084963 1 17703513297614581584
528886 8 18272363187639031202
63268167 104 17917714651364656528
68250623 7 17838064706113888848

> <PUBCHEM_SHAPE_MULTIPOLES>
224.25
3.72
1.51
1.31
0.54
0.07
0.05
0.75
0.71
-0.93
-0.31
0.23
-0.01
0.21

> <PUBCHEM_SHAPE_SELFOVERLAP>
442.67

> <PUBCHEM_SHAPE_VOLUME>
135.9

> <PUBCHEM_COORDINATE_TYPE>
2
5
10

$$$$
