168864
  -OEChem-11012401263D

 83 88  0     1  0  0  0  0  0999 V2000
    3.5974   -3.8690   -0.2358 O   0  0  0  0  0  0  0  0  0  0  0  0
    4.9410   -2.2514    1.4979 O   0  0  0  0  0  0  0  0  0  0  0  0
    3.4625   -0.7050    2.3762 O   0  0  0  0  0  0  0  0  0  0  0  0
    6.4952    1.5807   -2.5498 O   0  0  0  0  0  0  0  0  0  0  0  0
    6.8247    1.5215   -0.2670 O   0  0  0  0  0  0  0  0  0  0  0  0
   -0.4601   -1.5813    0.0521 N   0  0  0  0  0  0  0  0  0  0  0  0
    0.3746    1.1964    0.2578 N   0  0  0  0  0  0  0  0  0  0  0  0
   -2.4877    1.8389    0.2160 N   0  0  0  0  0  0  0  0  0  0  0  0
   -3.1409   -1.0182   -0.0183 N   0  0  0  0  0  0  0  0  0  0  0  0
    1.9287   -0.6114    0.1767 C   0  0  0  0  0  0  0  0  0  0  0  0
    3.1887   -1.4438    0.1319 C   0  0  2  0  0  0  0  0  0  0  0  0
    0.8305   -1.5946    0.0606 C   0  0  0  0  0  0  0  0  0  0  0  0
    1.3711   -2.9391   -0.1062 C   0  0  0  0  0  0  0  0  0  0  0  0
    1.6622    0.7018    0.2351 C   0  0  0  0  0  0  0  0  0  0  0  0
    2.6981   -2.8541   -0.0844 C   0  0  0  0  0  0  0  0  0  0  0  0
    2.5716    1.8372    0.2788 C   0  0  0  0  0  0  0  0  0  0  0  0
    0.2307   -3.7780   -0.2328 C   0  0  0  0  0  0  0  0  0  0  0  0
   -0.8181   -2.9234   -0.1308 C   0  0  0  0  0  0  0  0  0  0  0  0
    1.8739    2.9834    0.3387 C   0  0  0  0  0  0  0  0  0  0  0  0
    0.4830    2.4887    0.3201 C   0  0  0  0  0  0  0  0  0  0  0  0
    4.0566    1.7161    0.2342 C   0  0  0  0  0  0  0  0  0  0  0  0
    3.8682   -1.4143    1.4667 C   0  0  0  0  0  0  0  0  0  0  0  0
    0.3100   -5.2447   -0.4291 C   0  0  0  0  0  0  0  0  0  0  0  0
   -1.9264    3.0891    0.3232 C   0  0  0  0  0  0  0  0  0  0  0  0
   -2.2295   -3.2528   -0.1922 C   0  0  0  0  0  0  0  0  0  0  0  0
   -0.6367    3.4596    0.3735 C   0  0  0  0  0  0  0  0  0  0  0  0
   -4.2122    3.2967    0.3008 C   0  0  0  0  0  0  0  0  0  0  0  0
   -3.0683    4.0170    0.3761 C   0  0  0  0  0  0  0  0  0  0  0  0
   -3.8616    1.8705    0.1947 C   0  0  0  0  0  0  0  0  0  0  0  0
   -3.2564   -2.3847   -0.1380 C   0  0  0  0  0  0  0  0  0  0  0  0
    4.5864    1.7202   -1.1982 C   0  0  0  0  0  0  0  0  0  0  0  0
    2.2968    4.4014    0.3981 C   0  0  0  0  0  0  0  0  0  0  0  0
   -4.6724   -2.7104   -0.2002 C   0  0  0  0  0  0  0  0  0  0  0  0
   -4.3556   -0.5561   -0.0096 C   0  0  0  0  0  0  0  0  0  0  0  0
   -5.4063   -1.5901   -0.1226 C   0  0  0  0  0  0  0  0  0  0  0  0
   -4.7513    0.8694    0.0993 C   0  0  0  0  0  0  0  0  0  0  0  0
   -5.6213    3.7841    0.3156 C   0  0  0  0  0  0  0  0  0  0  0  0
   -5.1685   -4.1112   -0.3314 C   0  0  0  0  0  0  0  0  0  0  0  0
   -2.9049    5.4944    0.4938 C   0  0  0  0  0  0  0  0  0  0  0  0
   -6.8688   -1.3630   -0.1391 C   0  0  0  0  0  0  0  0  0  0  0  0
    6.0926    1.5953   -1.2443 C   0  0  0  0  0  0  0  0  0  0  0  0
   -6.1356    4.0797   -1.0831 C   0  0  0  0  0  0  0  0  0  0  0  0
   -5.3234   -4.5251   -1.7848 C   0  0  0  0  0  0  0  0  0  0  0  0
    5.6546   -2.2886    2.7380 C   0  0  0  0  0  0  0  0  0  0  0  0
    7.9068    1.4681   -2.7582 C   0  0  0  0  0  0  0  0  0  0  0  0
    3.8619   -1.1245   -0.6665 H   0  0  0  0  0  0  0  0  0  0  0  0
    4.4372    0.8603    0.7833 H   0  0  0  0  0  0  0  0  0  0  0  0
    4.5007    2.5689    0.7658 H   0  0  0  0  0  0  0  0  0  0  0  0
   -0.6769   -5.7086   -0.5082 H   0  0  0  0  0  0  0  0  0  0  0  0
    0.8591   -5.4793   -1.3469 H   0  0  0  0  0  0  0  0  0  0  0  0
    0.8303   -5.7160    0.4113 H   0  0  0  0  0  0  0  0  0  0  0  0
   -2.4416   -4.3125   -0.3019 H   0  0  0  0  0  0  0  0  0  0  0  0
   -0.3731    4.5082    0.4598 H   0  0  0  0  0  0  0  0  0  0  0  0
    4.3135    2.6597   -1.6940 H   0  0  0  0  0  0  0  0  0  0  0  0
    4.1588    0.8890   -1.7689 H   0  0  0  0  0  0  0  0  0  0  0  0
    3.3844    4.5086    0.3546 H   0  0  0  0  0  0  0  0  0  0  0  0
    1.9558    4.8659    1.3285 H   0  0  0  0  0  0  0  0  0  0  0  0
    1.8823    4.9623   -0.4455 H   0  0  0  0  0  0  0  0  0  0  0  0
   -1.9483    0.9883    0.1577 H   0  0  0  0  0  0  0  0  0  0  0  0
    4.4886   -3.4801   -0.2240 H   0  0  0  0  0  0  0  0  0  0  0  0
   -5.8152    1.0745    0.0891 H   0  0  0  0  0  0  0  0  0  0  0  0
   -5.6848    4.7055    0.9074 H   0  0  0  0  0  0  0  0  0  0  0  0
   -6.2883    3.0821    0.8272 H   0  0  0  0  0  0  0  0  0  0  0  0
   -6.1467   -4.2010    0.1573 H   0  0  0  0  0  0  0  0  0  0  0  0
   -4.5262   -4.8207    0.2013 H   0  0  0  0  0  0  0  0  0  0  0  0
   -2.3200    5.8863   -0.3450 H   0  0  0  0  0  0  0  0  0  0  0  0
   -2.3953    5.7534    1.4275 H   0  0  0  0  0  0  0  0  0  0  0  0
   -3.8656    6.0173    0.4881 H   0  0  0  0  0  0  0  0  0  0  0  0
   -7.1480   -0.7103   -0.9723 H   0  0  0  0  0  0  0  0  0  0  0  0
   -7.4259   -2.2970   -0.2568 H   0  0  0  0  0  0  0  0  0  0  0  0
   -7.1972   -0.8975    0.7954 H   0  0  0  0  0  0  0  0  0  0  0  0
   -7.1610    4.4600   -1.0349 H   0  0  0  0  0  0  0  0  0  0  0  0
   -6.1408    3.1789   -1.7057 H   0  0  0  0  0  0  0  0  0  0  0  0
   -5.5207    4.8360   -1.5830 H   0  0  0  0  0  0  0  0  0  0  0  0
   -6.0208   -3.8678   -2.3153 H   0  0  0  0  0  0  0  0  0  0  0  0
   -4.3639   -4.5002   -2.3120 H   0  0  0  0  0  0  0  0  0  0  0  0
   -5.7132   -5.5463   -1.8462 H   0  0  0  0  0  0  0  0  0  0  0  0
    4.9989   -2.6370    3.5416 H   0  0  0  0  0  0  0  0  0  0  0  0
    6.4844   -2.9923    2.6316 H   0  0  0  0  0  0  0  0  0  0  0  0
    6.0600   -1.2992    2.9707 H   0  0  0  0  0  0  0  0  0  0  0  0
    8.2777    0.5285   -2.3377 H   0  0  0  0  0  0  0  0  0  0  0  0
    8.0924    1.4679   -3.8356 H   0  0  0  0  0  0  0  0  0  0  0  0
    8.4247    2.3227   -2.3126 H   0  0  0  0  0  0  0  0  0  0  0  0
  1 15  1  0  0  0  0
  1 60  1  0  0  0  0
  2 22  1  0  0  0  0
  2 44  1  0  0  0  0
  3 22  2  0  0  0  0
  4 41  1  0  0  0  0
  4 45  1  0  0  0  0
  5 41  2  0  0  0  0
  6 12  2  0  0  0  0
  6 18  1  0  0  0  0
  7 14  1  0  0  0  0
  7 20  2  0  0  0  0
  8 24  1  0  0  0  0
  8 29  1  0  0  0  0
  8 59  1  0  0  0  0
  9 30  1  0  0  0  0
  9 34  2  0  0  0  0
 10 11  1  0  0  0  0
 10 12  1  0  0  0  0
 10 14  2  0  0  0  0
 11 15  1  0  0  0  0
 11 22  1  0  0  0  0
 11 46  1  0  0  0  0
 12 13  1  0  0  0  0
 13 15  2  0  0  0  0
 13 17  1  0  0  0  0
 14 16  1  0  0  0  0
 16 19  2  0  0  0  0
 16 21  1  0  0  0  0
 17 18  2  0  0  0  0
 17 23  1  0  0  0  0
 18 25  1  0  0  0  0
 19 20  1  0  0  0  0
 19 32  1  0  0  0  0
 20 26  1  0  0  0  0
 21 31  1  0  0  0  0
 21 47  1  0  0  0  0
 21 48  1  0  0  0  0
 23 49  1  0  0  0  0
 23 50  1  0  0  0  0
 23 51  1  0  0  0  0
 24 26  2  0  0  0  0
 24 28  1  0  0  0  0
 25 30  2  0  0  0  0
 25 52  1  0  0  0  0
 26 53  1  0  0  0  0
 27 28  2  0  0  0  0
 27 29  1  0  0  0  0
 27 37  1  0  0  0  0
 28 39  1  0  0  0  0
 29 36  2  0  0  0  0
 30 33  1  0  0  0  0
 31 41  1  0  0  0  0
 31 54  1  0  0  0  0
 31 55  1  0  0  0  0
 32 56  1  0  0  0  0
 32 57  1  0  0  0  0
 32 58  1  0  0  0  0
 33 35  2  0  0  0  0
 33 38  1  0  0  0  0
 34 35  1  0  0  0  0
 34 36  1  0  0  0  0
 35 40  1  0  0  0  0
 36 61  1  0  0  0  0
 37 42  1  0  0  0  0
 37 62  1  0  0  0  0
 37 63  1  0  0  0  0
 38 43  1  0  0  0  0
 38 64  1  0  0  0  0
 38 65  1  0  0  0  0
 39 66  1  0  0  0  0
 39 67  1  0  0  0  0
 39 68  1  0  0  0  0
 40 69  1  0  0  0  0
 40 70  1  0  0  0  0
 40 71  1  0  0  0  0
 42 72  1  0  0  0  0
 42 73  1  0  0  0  0
 42 74  1  0  0  0  0
 43 75  1  0  0  0  0
 43 76  1  0  0  0  0
 43 77  1  0  0  0  0
 44 78  1  0  0  0  0
 44 79  1  0  0  0  0
 44 80  1  0  0  0  0
 45 81  1  0  0  0  0
 45 82  1  0  0  0  0
 45 83  1  0  0  0  0
M  END
> <PUBCHEM_COMPOUND_CID>
168864

> <PUBCHEM_CONFORMER_RMSD>
1

> <PUBCHEM_CONFORMER_DIVERSEORDER>
2
12
10
6
8
7
1
5
3
4
9
11

> <PUBCHEM_MMFF94_PARTIAL_CHARGES>
48
1 -0.53
10 -0.12
11 0.34
12 0.42
13 0.01
14 0.17
15 -0.06
16 -0.14
17 -0.14
18 0.17
19 -0.12
2 -0.43
20 0.42
21 0.14
22 0.66
23 0.14
24 0.1
25 -0.15
26 -0.14
27 -0.14
28 -0.14
29 0.1
3 -0.57
30 0.17
31 0.06
32 0.14
33 -0.14
34 0.42
35 -0.12
36 -0.14
37 0.14
38 0.14
39 0.14
4 -0.43
40 0.14
41 0.66
44 0.28
45 0.28
5 -0.57
52 0.15
53 0.15
59 0.4
6 -0.62
60 0.45
61 0.15
7 -0.62
8 -0.6
9 -0.62

> <PUBCHEM_EFFECTIVE_ROTOR_COUNT>
8.2

> <PUBCHEM_PHARMACOPHORE_FEATURES>
15
1 1 donor
1 3 acceptor
1 42 hydrophobe
1 43 hydrophobe
1 5 acceptor
1 6 acceptor
1 7 acceptor
1 8 cation
1 8 donor
1 9 acceptor
5 10 11 12 13 15 rings
5 6 12 13 17 18 rings
5 7 14 16 19 20 rings
5 8 24 27 28 29 rings
5 9 30 33 34 35 rings

> <PUBCHEM_HEAVY_ATOM_COUNT>
45

> <PUBCHEM_ATOM_DEF_STEREO_COUNT>
0

> <PUBCHEM_ATOM_UDEF_STEREO_COUNT>
1

> <PUBCHEM_BOND_DEF_STEREO_COUNT>
0

> <PUBCHEM_BOND_UDEF_STEREO_COUNT>
0

> <PUBCHEM_ISOTOPIC_ATOM_COUNT>
0

> <PUBCHEM_COMPONENT_COUNT>
1

> <PUBCHEM_CACTVS_TAUTO_COUNT>
139

> <PUBCHEM_CONFORMER_ID>
000293A000000002

> <PUBCHEM_MMFF94_ENERGY>
132.4928

> <PUBCHEM_FEATURE_SELFOVERLAP>
76.405

> <PUBCHEM_SHAPE_FINGERPRINT>
10190108 129 18265914599392909457
10190206 1 18264221360440176724
10439779 11 18196073479025825227
10483366 6 18339938125149199670
10675989 125 17904201778346033484
1100329 8 18195526978902180865
11136131 41 18261950748669923394
11513181 2 18272375260782292102
11828042 200 18047485692581105350
12645989 146 17840877583107002271
13111901 25 18334572413683977968
13560911 43 18336826502282838907
1361 2 17763458419002338913
14117953 113 18051124796410814493
14394314 77 18268709592727244449
14790565 3 18410579487679764588
15001296 14 18121775294674675680
15274700 256 18268993267381773220
15274700 259 17897133942294553879
15320467 1 18123466348549240977
15351339 4 18410575080505398386
15400415 2 17979916017055825713
15483637 11 18411132550834826277
15781502 13 17050506444863559262
15790856 291 18125173864237849110
15927050 60 18340494361024069917
15968369 153 18129367349418083674
20764821 26 18338234864623578765
22311459 1 18339081626622769614
3882209 13 17980438478668272451
44880168 125 17203055195754407879
6036956 94 18264773143410485133
6371009 1 18339903971084159659
6608658 132 18270675510521851615

> <PUBCHEM_SHAPE_MULTIPOLES>
876.81
16.36
8.4
1.47
7.59
0.71
-0.17
3.13
-5.85
-8.96
-0.5
3.75
-0.24
-4.09

> <PUBCHEM_SHAPE_SELFOVERLAP>
1936.477

> <PUBCHEM_SHAPE_VOLUME>
475.6

> <PUBCHEM_COORDINATE_TYPE>
2
5
10

$$$$
