6586
  -OEChem-11012400593D

  8  7  0     0  0  0  0  0  0999 V2000
    1.9593    0.6174   -0.0001 Cl  0  0  0  0  0  0  0  0  0  0  0  0
   -0.6350    0.7393    0.0001 O   0  0  0  0  0  0  0  0  0  0  0  0
    0.2317   -1.3776    0.0000 O   0  0  0  0  0  0  0  0  0  0  0  0
   -1.9546    0.1824   -0.0001 C   0  0  0  0  0  0  0  0  0  0  0  0
    0.3987   -0.1615    0.0002 C   0  0  0  0  0  0  0  0  0  0  0  0
   -2.1114   -0.4187   -0.9007 H   0  0  0  0  0  0  0  0  0  0  0  0
   -2.6714    1.0079   -0.0001 H   0  0  0  0  0  0  0  0  0  0  0  0
   -2.1116   -0.4190    0.9002 H   0  0  0  0  0  0  0  0  0  0  0  0
  1  5  1  0  0  0  0
  2  4  1  0  0  0  0
  2  5  1  0  0  0  0
  3  5  2  0  0  0  0
  4  6  1  0  0  0  0
  4  7  1  0  0  0  0
  4  8  1  0  0  0  0
M  END
> <PUBCHEM_COMPOUND_CID>
6586

> <PUBCHEM_CONFORMER_RMSD>
0.4

> <PUBCHEM_CONFORMER_DIVERSEORDER>
1

> <PUBCHEM_MMFF94_PARTIAL_CHARGES>
5
1 -0.21
2 -0.43
3 -0.57
4 0.28
5 0.93

> <PUBCHEM_EFFECTIVE_ROTOR_COUNT>
1

> <PUBCHEM_PHARMACOPHORE_FEATURES>
1
1 3 acceptor

> <PUBCHEM_HEAVY_ATOM_COUNT>
5

> <PUBCHEM_ATOM_DEF_STEREO_COUNT>
0

> <PUBCHEM_ATOM_UDEF_STEREO_COUNT>
0

> <PUBCHEM_BOND_DEF_STEREO_COUNT>
0

> <PUBCHEM_BOND_UDEF_STEREO_COUNT>
0

> <PUBCHEM_ISOTOPIC_ATOM_COUNT>
0

> <PUBCHEM_COMPONENT_COUNT>
1

> <PUBCHEM_CACTVS_TAUTO_COUNT>
1

> <PUBCHEM_CONFORMER_ID>
000019BA00000001

> <PUBCHEM_MMFF94_ENERGY>
6.2392

> <PUBCHEM_FEATURE_SELFOVERLAP>
5.074

> <PUBCHEM_SHAPE_FINGERPRINT>
139733 1 9292987065954225539
16714656 1 18337114578392115836
20096714 4 18410855477561426968
21015797 1 8862353436898792938
21040471 1 18410575123491942336
5460574 1 9295294936444640768
5943 1 8704844844450894906

> <PUBCHEM_SHAPE_MULTIPOLES>
93.03
2.46
1.07
0.59
0.04
0.33
0
-0.69
0
-0.09
0
-0.03
-0.02
0

> <PUBCHEM_SHAPE_SELFOVERLAP>
155.755

> <PUBCHEM_SHAPE_VOLUME>
63.6

> <PUBCHEM_COORDINATE_TYPE>
2
5
10

$$$$
