138642
  -OEChem-11012401163D

 54 54  0     0  0  0  0  0  0999 V2000
    6.1144   -0.2000   -0.3408 C   0  0  0  0  0  0  0  0  0  0  0  0
    7.3626   -0.9897    0.0398 C   0  0  0  0  0  0  0  0  0  0  0  0
    6.3432    1.1315    0.3678 C   0  0  0  0  0  0  0  0  0  0  0  0
    8.4873    0.0370   -0.0445 C   0  0  0  0  0  0  0  0  0  0  0  0
    7.8328    1.4014    0.1786 C   0  0  0  0  0  0  0  0  0  0  0  0
    4.8234   -0.8844    0.0730 C   0  0  0  0  0  0  0  0  0  0  0  0
    3.6038   -0.0307   -0.2760 C   0  0  0  0  0  0  0  0  0  0  0  0
    2.2706   -0.7077    0.0555 C   0  0  0  0  0  0  0  0  0  0  0  0
    1.0504    0.1578   -0.2708 C   0  0  0  0  0  0  0  0  0  0  0  0
   -0.2497   -0.5565    0.1087 C   0  0  0  0  0  0  0  0  0  0  0  0
   -1.5060    0.2686   -0.1852 C   0  0  0  0  0  0  0  0  0  0  0  0
   -2.8044   -0.4347    0.2167 C   0  0  0  0  0  0  0  0  0  0  0  0
   -4.0268    0.4241   -0.1199 C   0  0  0  0  0  0  0  0  0  0  0  0
   -5.3266   -0.2956    0.2468 C   0  0  0  0  0  0  0  0  0  0  0  0
   -6.5846    0.5102   -0.0897 C   0  0  0  0  0  0  0  0  0  0  0  0
   -7.8852   -0.2391    0.2084 C   0  0  0  0  0  0  0  0  0  0  0  0
   -9.1053    0.5810   -0.2132 C   0  0  0  0  0  0  0  0  0  0  0  0
  -10.3999   -0.1734    0.0447 C   0  0  0  0  0  0  0  0  0  0  0  0
    6.1132   -0.0357   -1.4272 H   0  0  0  0  0  0  0  0  0  0  0  0
    7.2869   -1.3716    1.0655 H   0  0  0  0  0  0  0  0  0  0  0  0
    7.5355   -1.8425   -0.6238 H   0  0  0  0  0  0  0  0  0  0  0  0
    5.7388    1.9439   -0.0472 H   0  0  0  0  0  0  0  0  0  0  0  0
    6.1154    1.0517    1.4380 H   0  0  0  0  0  0  0  0  0  0  0  0
    9.2694   -0.1661    0.6939 H   0  0  0  0  0  0  0  0  0  0  0  0
    8.9555    0.0086   -1.0352 H   0  0  0  0  0  0  0  0  0  0  0  0
    7.9981    2.0396   -0.6971 H   0  0  0  0  0  0  0  0  0  0  0  0
    8.2559    1.9188    1.0457 H   0  0  0  0  0  0  0  0  0  0  0  0
    4.8258   -1.0912    1.1505 H   0  0  0  0  0  0  0  0  0  0  0  0
    4.7484   -1.8540   -0.4343 H   0  0  0  0  0  0  0  0  0  0  0  0
    3.6222    0.2119   -1.3458 H   0  0  0  0  0  0  0  0  0  0  0  0
    3.6466    0.9206    0.2670 H   0  0  0  0  0  0  0  0  0  0  0  0
    2.2019   -1.6531   -0.4967 H   0  0  0  0  0  0  0  0  0  0  0  0
    2.2573   -0.9627    1.1226 H   0  0  0  0  0  0  0  0  0  0  0  0
    1.0425    0.3947   -1.3413 H   0  0  0  0  0  0  0  0  0  0  0  0
    1.1182    1.1083    0.2717 H   0  0  0  0  0  0  0  0  0  0  0  0
   -0.2274   -0.8025    1.1777 H   0  0  0  0  0  0  0  0  0  0  0  0
   -0.3119   -1.5080   -0.4337 H   0  0  0  0  0  0  0  0  0  0  0  0
   -1.4368    1.2270    0.3444 H   0  0  0  0  0  0  0  0  0  0  0  0
   -1.5361    0.5011   -1.2570 H   0  0  0  0  0  0  0  0  0  0  0  0
   -2.7882   -0.6502    1.2918 H   0  0  0  0  0  0  0  0  0  0  0  0
   -2.8739   -1.3965   -0.3057 H   0  0  0  0  0  0  0  0  0  0  0  0
   -4.0294    0.6578   -1.1914 H   0  0  0  0  0  0  0  0  0  0  0  0
   -3.9699    1.3770    0.4197 H   0  0  0  0  0  0  0  0  0  0  0  0
   -5.3254   -0.5260    1.3193 H   0  0  0  0  0  0  0  0  0  0  0  0
   -5.3664   -1.2556   -0.2829 H   0  0  0  0  0  0  0  0  0  0  0  0
   -6.5598    0.7767   -1.1539 H   0  0  0  0  0  0  0  0  0  0  0  0
   -6.5699    1.4521    0.4724 H   0  0  0  0  0  0  0  0  0  0  0  0
   -7.8851   -1.1969   -0.3258 H   0  0  0  0  0  0  0  0  0  0  0  0
   -7.9410   -0.4661    1.2797 H   0  0  0  0  0  0  0  0  0  0  0  0
   -9.0404    0.8252   -1.2800 H   0  0  0  0  0  0  0  0  0  0  0  0
   -9.1239    1.5293    0.3364 H   0  0  0  0  0  0  0  0  0  0  0  0
  -10.5118   -0.4077    1.1082 H   0  0  0  0  0  0  0  0  0  0  0  0
  -10.4264   -1.1115   -0.5188 H   0  0  0  0  0  0  0  0  0  0  0  0
  -11.2588    0.4317   -0.2621 H   0  0  0  0  0  0  0  0  0  0  0  0
  1  2  1  0  0  0  0
  1  3  1  0  0  0  0
  1  6  1  0  0  0  0
  1 19  1  0  0  0  0
  2  4  1  0  0  0  0
  2 20  1  0  0  0  0
  2 21  1  0  0  0  0
  3  5  1  0  0  0  0
  3 22  1  0  0  0  0
  3 23  1  0  0  0  0
  4  5  1  0  0  0  0
  4 24  1  0  0  0  0
  4 25  1  0  0  0  0
  5 26  1  0  0  0  0
  5 27  1  0  0  0  0
  6  7  1  0  0  0  0
  6 28  1  0  0  0  0
  6 29  1  0  0  0  0
  7  8  1  0  0  0  0
  7 30  1  0  0  0  0
  7 31  1  0  0  0  0
  8  9  1  0  0  0  0
  8 32  1  0  0  0  0
  8 33  1  0  0  0  0
  9 10  1  0  0  0  0
  9 34  1  0  0  0  0
  9 35  1  0  0  0  0
 10 11  1  0  0  0  0
 10 36  1  0  0  0  0
 10 37  1  0  0  0  0
 11 12  1  0  0  0  0
 11 38  1  0  0  0  0
 11 39  1  0  0  0  0
 12 13  1  0  0  0  0
 12 40  1  0  0  0  0
 12 41  1  0  0  0  0
 13 14  1  0  0  0  0
 13 42  1  0  0  0  0
 13 43  1  0  0  0  0
 14 15  1  0  0  0  0
 14 44  1  0  0  0  0
 14 45  1  0  0  0  0
 15 16  1  0  0  0  0
 15 46  1  0  0  0  0
 15 47  1  0  0  0  0
 16 17  1  0  0  0  0
 16 48  1  0  0  0  0
 16 49  1  0  0  0  0
 17 18  1  0  0  0  0
 17 50  1  0  0  0  0
 17 51  1  0  0  0  0
 18 52  1  0  0  0  0
 18 53  1  0  0  0  0
 18 54  1  0  0  0  0
M  END
> <PUBCHEM_COMPOUND_CID>
138642

> <PUBCHEM_CONFORMER_RMSD>
1.4

> <PUBCHEM_CONFORMER_DIVERSEORDER>
1
11
25
21
26
22
2
5
4
15
18
31
17
10
7
3
13
19
27
20
32
12
8
9
16
14
30
29
24
23
6
28
33

> <PUBCHEM_MMFF94_PARTIAL_CHARGES>
0

> <PUBCHEM_EFFECTIVE_ROTOR_COUNT>
13

> <PUBCHEM_PHARMACOPHORE_FEATURES>
2
1 18 hydrophobe
5 1 2 3 4 5 rings

> <PUBCHEM_HEAVY_ATOM_COUNT>
18

> <PUBCHEM_ATOM_DEF_STEREO_COUNT>
0

> <PUBCHEM_ATOM_UDEF_STEREO_COUNT>
0

> <PUBCHEM_BOND_DEF_STEREO_COUNT>
0

> <PUBCHEM_BOND_UDEF_STEREO_COUNT>
0

> <PUBCHEM_ISOTOPIC_ATOM_COUNT>
0

> <PUBCHEM_COMPONENT_COUNT>
1

> <PUBCHEM_CACTVS_TAUTO_COUNT>
1

> <PUBCHEM_CONFORMER_ID>
00021D9200000001

> <PUBCHEM_MMFF94_ENERGY>
4.4857

> <PUBCHEM_FEATURE_SELFOVERLAP>
10.148

> <PUBCHEM_SHAPE_FINGERPRINT>
11315181 36 18131073741085360251
11638347 137 16805599249222561194
14123256 10 18410856555355378273
14251764 18 17418379081945649729
14251764 46 18040716965893056891
14428016 248 17346605183852276513
15510794 2 18335144189468787763
155225 1 18271525386540811784
16120349 18 18411698820096873644
21095086 128 9295288335670756993
21150785 3 17131833166102660013
21362267 2 18200577190333752369
21362267 20 18410011070630212867
21362267 313 18189892016148436265
22224240 67 18113337513604828466
232437 2 18412545410223071359
23521765 1 18341895186467514439
23581129 1 18409449184756242799
246663 6 11384115250083843695
249057 3 15195560226015859529
33684 2 14057001620591486563
4325135 7 17489870435874418588
59682541 35 18186523220058610505
67123 10 18410856568234998919
8209 1 18410856559645070823

> <PUBCHEM_SHAPE_MULTIPOLES>
370.43
37.23
1.01
0.66
41.7
0.13
0
4.5
-0.7
-1.58
-0.05
-0.05
0.01
0.4

> <PUBCHEM_SHAPE_SELFOVERLAP>
688.589

> <PUBCHEM_SHAPE_VOLUME>
230.8

> <PUBCHEM_COORDINATE_TYPE>
2
5
10

$$$$
