101681592
  -OEChem-11012401283D

 44 45  0     0  0  0  0  0  0999 V2000
   -2.8121   -1.9190    0.0811 O   0  0  0  0  0  0  0  0  0  0  0  0
   -1.3142   -1.8651    2.0885 O   0  0  0  0  0  0  0  0  0  0  0  0
   -0.4178   -1.4233   -0.1538 C   0  0  0  0  0  0  0  0  0  0  0  0
    0.0699    0.0283   -0.6139 C   0  0  0  0  0  0  0  0  0  0  0  0
    0.4625   -2.5201   -0.8461 C   0  0  0  0  0  0  0  0  0  0  0  0
    1.5387    0.3638   -0.3441 C   0  0  0  0  0  0  0  0  0  0  0  0
   -0.8376    1.2291   -0.2991 C   0  0  0  0  0  0  0  0  0  0  0  0
   -1.8772   -1.6463   -0.6761 C   0  0  0  0  0  0  0  0  0  0  0  0
   -0.3269   -1.5904    1.4000 C   0  0  0  0  0  0  0  0  0  0  0  0
    0.0569   -3.9648   -0.5491 C   0  0  0  0  0  0  0  0  0  0  0  0
   -2.1448   -1.5827   -2.1666 C   0  0  0  0  0  0  0  0  0  0  0  0
    1.0045   -1.4437    2.1069 C   0  0  0  0  0  0  0  0  0  0  0  0
    1.9081    0.9607    0.8612 C   0  0  0  0  0  0  0  0  0  0  0  0
   -0.8400    2.3414   -1.1408 C   0  0  0  0  0  0  0  0  0  0  0  0
    2.5079    0.0726   -1.3039 C   0  0  0  0  0  0  0  0  0  0  0  0
   -1.6584    1.2060    0.8284 C   0  0  0  0  0  0  0  0  0  0  0  0
    3.2468    1.2665    1.1068 C   0  0  0  0  0  0  0  0  0  0  0  0
   -1.6632    3.4307   -0.8549 C   0  0  0  0  0  0  0  0  0  0  0  0
    3.8465    0.3783   -1.0585 C   0  0  0  0  0  0  0  0  0  0  0  0
   -2.4816    2.2951    1.1143 C   0  0  0  0  0  0  0  0  0  0  0  0
    4.2160    0.9753    0.1469 C   0  0  0  0  0  0  0  0  0  0  0  0
   -2.4840    3.4075    0.2727 C   0  0  0  0  0  0  0  0  0  0  0  0
    0.0137   -0.0180   -1.7129 H   0  0  0  0  0  0  0  0  0  0  0  0
    1.5059   -2.4246   -0.5288 H   0  0  0  0  0  0  0  0  0  0  0  0
    0.4705   -2.3790   -1.9331 H   0  0  0  0  0  0  0  0  0  0  0  0
    0.1009   -4.1791    0.5228 H   0  0  0  0  0  0  0  0  0  0  0  0
    0.7417   -4.6538   -1.0545 H   0  0  0  0  0  0  0  0  0  0  0  0
   -0.9540   -4.1834   -0.9044 H   0  0  0  0  0  0  0  0  0  0  0  0
   -1.8835   -0.6045   -2.5715 H   0  0  0  0  0  0  0  0  0  0  0  0
   -3.2155   -1.7327   -2.3402 H   0  0  0  0  0  0  0  0  0  0  0  0
   -1.6095   -2.3739   -2.6933 H   0  0  0  0  0  0  0  0  0  0  0  0
    1.0883   -2.2926    2.7974 H   0  0  0  0  0  0  0  0  0  0  0  0
    1.8616   -1.5416    1.4456 H   0  0  0  0  0  0  0  0  0  0  0  0
    1.0183   -0.5434    2.7194 H   0  0  0  0  0  0  0  0  0  0  0  0
    1.1729    1.2539    1.6039 H   0  0  0  0  0  0  0  0  0  0  0  0
   -0.2063    2.3735   -2.0231 H   0  0  0  0  0  0  0  0  0  0  0  0
    2.2377   -0.3896   -2.2494 H   0  0  0  0  0  0  0  0  0  0  0  0
   -1.6884    0.3914    1.5308 H   0  0  0  0  0  0  0  0  0  0  0  0
    3.5327    1.7433    2.0398 H   0  0  0  0  0  0  0  0  0  0  0  0
   -1.6650    4.2969   -1.5101 H   0  0  0  0  0  0  0  0  0  0  0  0
    4.6011    0.1527   -1.8063 H   0  0  0  0  0  0  0  0  0  0  0  0
   -3.1172    2.2802    1.9950 H   0  0  0  0  0  0  0  0  0  0  0  0
    5.2578    1.2163    0.3367 H   0  0  0  0  0  0  0  0  0  0  0  0
   -3.1241    4.2560    0.4960 H   0  0  0  0  0  0  0  0  0  0  0  0
  1  8  2  0  0  0  0
  2  9  2  0  0  0  0
  3  4  1  0  0  0  0
  3  5  1  0  0  0  0
  3  8  1  0  0  0  0
  3  9  1  0  0  0  0
  4  6  1  0  0  0  0
  4  7  1  0  0  0  0
  4 23  1  0  0  0  0
  5 10  1  0  0  0  0
  5 24  1  0  0  0  0
  5 25  1  0  0  0  0
  6 13  2  0  0  0  0
  6 15  1  0  0  0  0
  7 14  2  0  0  0  0
  7 16  1  0  0  0  0
  8 11  1  0  0  0  0
  9 12  1  0  0  0  0
 10 26  1  0  0  0  0
 10 27  1  0  0  0  0
 10 28  1  0  0  0  0
 11 29  1  0  0  0  0
 11 30  1  0  0  0  0
 11 31  1  0  0  0  0
 12 32  1  0  0  0  0
 12 33  1  0  0  0  0
 12 34  1  0  0  0  0
 13 17  1  0  0  0  0
 13 35  1  0  0  0  0
 14 18  1  0  0  0  0
 14 36  1  0  0  0  0
 15 19  2  0  0  0  0
 15 37  1  0  0  0  0
 16 20  2  0  0  0  0
 16 38  1  0  0  0  0
 17 21  2  0  0  0  0
 17 39  1  0  0  0  0
 18 22  2  0  0  0  0
 18 40  1  0  0  0  0
 19 21  1  0  0  0  0
 19 41  1  0  0  0  0
 20 22  1  0  0  0  0
 20 42  1  0  0  0  0
 21 43  1  0  0  0  0
 22 44  1  0  0  0  0
M  END
> <PUBCHEM_COMPOUND_CID>
101681592

> <PUBCHEM_CONFORMER_RMSD>
0.8

> <PUBCHEM_CONFORMER_DIVERSEORDER>
1
10
3
6
17
5
15
4
18
16
11
13
2
7
9
8
12
14

> <PUBCHEM_MMFF94_PARTIAL_CHARGES>
30
1 -0.57
11 0.06
12 0.06
13 -0.15
14 -0.15
15 -0.15
16 -0.15
17 -0.15
18 -0.15
19 -0.15
2 -0.57
20 -0.15
21 -0.15
22 -0.15
3 0.12
35 0.15
36 0.15
37 0.15
38 0.15
39 0.15
4 0.29
40 0.15
41 0.15
42 0.15
43 0.15
44 0.15
6 -0.14
7 -0.14
8 0.45
9 0.45

> <PUBCHEM_EFFECTIVE_ROTOR_COUNT>
6

> <PUBCHEM_PHARMACOPHORE_FEATURES>
5
1 1 acceptor
1 10 hydrophobe
1 2 acceptor
6 6 13 15 17 19 21 rings
6 7 14 16 18 20 22 rings

> <PUBCHEM_HEAVY_ATOM_COUNT>
22

> <PUBCHEM_ATOM_DEF_STEREO_COUNT>
0

> <PUBCHEM_ATOM_UDEF_STEREO_COUNT>
0

> <PUBCHEM_BOND_DEF_STEREO_COUNT>
0

> <PUBCHEM_BOND_UDEF_STEREO_COUNT>
0

> <PUBCHEM_ISOTOPIC_ATOM_COUNT>
0

> <PUBCHEM_COMPONENT_COUNT>
1

> <PUBCHEM_CACTVS_TAUTO_COUNT>
9

> <PUBCHEM_CONFORMER_ID>
060F89B800000001

> <PUBCHEM_MMFF94_ENERGY>
80.3884

> <PUBCHEM_FEATURE_SELFOVERLAP>
25.391

> <PUBCHEM_SHAPE_FINGERPRINT>
10165383 225 18053691108237753364
104564 63 18411130355557872845
107951 10 17606998047381957070
11578080 2 17060043900209886416
12788726 201 18269822267770120076
13140716 1 17836078249685906954
133893 2 17388518437895524946
13681431 1 17473262557634543460
14251751 93 18337108939326798984
14955137 171 16897115200842436624
15490181 7 18268148652005958836
16752209 62 18266433538557680446
16945 1 18126292075878274638
17357779 13 17985815150019238829
18981168 100 17845074195588152201
20510252 161 18271521008934908808
20600515 1 17910108345666032532
21524375 3 18265054617748339824
21731228 192 18262799545454483288
21756936 100 17387439950739435412
23402539 116 18127680741720899534
23419403 2 16760356449656576511
23558518 356 18261388910648378786
23559900 14 17103706340505738741
238 59 17688295799205012981
350125 39 18268151963436209014
394222 165 17389908272142736215
427121 178 18048623454807948105
495365 180 17543055793564914573
5265222 85 18193586435991196246
5845 1 17834675272532256340
7364860 26 17546729248769429548
81228 2 18335982085747741280

> <PUBCHEM_SHAPE_MULTIPOLES>
441.01
4.88
4.31
1.78
2.7
1.96
-0.38
-4.61
0.28
-2.01
0.53
-0.05
0.68
-0.17

> <PUBCHEM_SHAPE_SELFOVERLAP>
929.354

> <PUBCHEM_SHAPE_VOLUME>
246

> <PUBCHEM_COORDINATE_TYPE>
2
5
10

$$$$
