145124
  -OEChem-11012400383D

 26 27  0     0  0  0  0  0  0999 V2000
    3.8853    1.2251    0.0009 N   0  0  0  0  0  0  0  0  0  0  0  0
    3.4753   -0.9214   -0.0012 N   0  0  0  0  0  0  0  0  0  0  0  0
    1.1394   -0.7728    0.0001 N   0  0  0  0  0  0  0  0  0  0  0  0
    2.5449    1.1683    0.0012 N   0  0  0  0  0  0  0  0  0  0  0  0
   -0.0507   -0.1203   -0.0001 N   0  0  0  0  0  0  0  0  0  0  0  0
    4.4307   -0.0209   -0.0003 C   0  0  0  0  0  0  0  0  0  0  0  0
   -2.4576   -0.3761   -0.0002 C   0  0  0  0  0  0  0  0  0  0  0  0
    2.3526   -0.1491    0.0001 C   0  0  0  0  0  0  0  0  0  0  0  0
   -3.5404   -1.2555    0.0006 C   0  0  0  0  0  0  0  0  0  0  0  0
   -2.6777    1.0013   -0.0012 C   0  0  0  0  0  0  0  0  0  0  0  0
    5.8850   -0.2455   -0.0001 C   0  0  0  0  0  0  0  0  0  0  0  0
   -1.0993   -0.8952    0.0000 C   0  0  0  0  0  0  0  0  0  0  0  0
   -4.8433   -0.7573    0.0008 C   0  0  0  0  0  0  0  0  0  0  0  0
   -3.9807    1.4994   -0.0008 C   0  0  0  0  0  0  0  0  0  0  0  0
   -5.0634    0.6201    0.0002 C   0  0  0  0  0  0  0  0  0  0  0  0
    4.3431    2.1291    0.0018 H   0  0  0  0  0  0  0  0  0  0  0  0
   -3.3852   -2.3313    0.0013 H   0  0  0  0  0  0  0  0  0  0  0  0
   -1.8541    1.7101   -0.0019 H   0  0  0  0  0  0  0  0  0  0  0  0
    6.3465    0.1984   -0.8877 H   0  0  0  0  0  0  0  0  0  0  0  0
    6.3461    0.1965    0.8886 H   0  0  0  0  0  0  0  0  0  0  0  0
    6.1111   -1.3164   -0.0012 H   0  0  0  0  0  0  0  0  0  0  0  0
   -0.9887   -1.9957    0.0003 H   0  0  0  0  0  0  0  0  0  0  0  0
    1.1129   -1.7899   -0.0007 H   0  0  0  0  0  0  0  0  0  0  0  0
   -5.6865   -1.4418    0.0015 H   0  0  0  0  0  0  0  0  0  0  0  0
   -4.1525    2.5719   -0.0014 H   0  0  0  0  0  0  0  0  0  0  0  0
   -6.0779    1.0079    0.0005 H   0  0  0  0  0  0  0  0  0  0  0  0
  1  4  1  0  0  0  0
  1  6  1  0  0  0  0
  1 16  1  0  0  0  0
  2  6  2  0  0  0  0
  2  8  1  0  0  0  0
  3  5  1  0  0  0  0
  3  8  1  0  0  0  0
  3 23  1  0  0  0  0
  4  8  2  0  0  0  0
  5 12  2  3  0  0  0
  6 11  1  0  0  0  0
  7  9  2  0  0  0  0
  7 10  1  0  0  0  0
  7 12  1  0  0  0  0
  9 13  1  0  0  0  0
  9 17  1  0  0  0  0
 10 14  2  0  0  0  0
 10 18  1  0  0  0  0
 11 19  1  0  0  0  0
 11 20  1  0  0  0  0
 11 21  1  0  0  0  0
 12 22  1  0  0  0  0
 13 15  2  0  0  0  0
 13 24  1  0  0  0  0
 14 15  1  0  0  0  0
 14 25  1  0  0  0  0
 15 26  1  0  0  0  0
M  END
> <PUBCHEM_COMPOUND_CID>
145124

> <PUBCHEM_CONFORMER_RMSD>
0.6

> <PUBCHEM_CONFORMER_DIVERSEORDER>
1
11
7
5
12
10
6
4
14
13
15
3
8
9
2

> <PUBCHEM_MMFF94_PARTIAL_CHARGES>
23
1 0.3
10 -0.15
11 0.18
12 0.3
13 -0.15
14 -0.15
15 -0.15
16 0.27
17 0.15
18 0.15
2 -0.57
22 0.06
23 0.4
24 0.15
25 0.15
26 0.15
3 -0.44
4 -0.71
5 -0.49
6 0.01
7 0.09
8 0.6
9 -0.15

> <PUBCHEM_EFFECTIVE_ROTOR_COUNT>
3

> <PUBCHEM_PHARMACOPHORE_FEATURES>
6
1 1 donor
1 3 donor
1 5 acceptor
4 2 3 4 8 cation
5 1 2 4 6 8 rings
6 7 9 10 13 14 15 rings

> <PUBCHEM_HEAVY_ATOM_COUNT>
15

> <PUBCHEM_ATOM_DEF_STEREO_COUNT>
0

> <PUBCHEM_ATOM_UDEF_STEREO_COUNT>
0

> <PUBCHEM_BOND_DEF_STEREO_COUNT>
0

> <PUBCHEM_BOND_UDEF_STEREO_COUNT>
1

> <PUBCHEM_ISOTOPIC_ATOM_COUNT>
0

> <PUBCHEM_COMPONENT_COUNT>
1

> <PUBCHEM_CACTVS_TAUTO_COUNT>
5

> <PUBCHEM_CONFORMER_ID>
000236E400000001

> <PUBCHEM_MMFF94_ENERGY>
24.9403

> <PUBCHEM_FEATURE_SELFOVERLAP>
30.446

> <PUBCHEM_SHAPE_FINGERPRINT>
10014705 185 18260263028401381949
12091667 2 18413108372423065062
12107183 9 17615119992981988410
12815109 37 9583518715515835009
13081056 2 18412544331532106840
13167823 11 18408881836788524163
13897977 58 18409731759893499181
14123238 8 18409166614578780406
14251764 18 18186796990254401706
15196674 1 18410855490203982564
17802600 8 18411134744756376281
17834072 33 18410293644362598436
17834076 25 17240202135811092787
19433438 28 18408603690632552953
19489759 90 18333448746769764667
200 152 17846779598294533715
20300324 65 18343862234618904067
20645477 56 18410013209116119935
20645477 70 17703235005710265494
21267235 1 18410019848576604659
212847 35 18408042927223868364
23402539 116 18343858931298521359
23402655 69 18343302565598477886
23559900 14 18413102874827717354
351380 180 18410854369206488112
3545911 37 18411702071344424943
42 15 18260830397211363014
4214541 1 18410855460397200129
42788 4 18410856568414444422
5104073 3 18409729581717314080
542803 24 17603307054938716294
77779 3 18410856564050924839

> <PUBCHEM_SHAPE_MULTIPOLES>
283.79
13.47
1.32
0.59
7.79
0.22
0
0.94
0
-0.86
0
-0.07
0
0

> <PUBCHEM_SHAPE_SELFOVERLAP>
602.189

> <PUBCHEM_SHAPE_VOLUME>
157

> <PUBCHEM_COORDINATE_TYPE>
2
5
10

$$$$
