66105
  -OEChem-11012401003D

 46 51  0     0  0  0  0  0  0999 V2000
    0.7312    0.0000   -0.0001 C   0  0  0  0  0  0  0  0  0  0  0  0
   -0.7312    0.0000    0.0000 C   0  0  0  0  0  0  0  0  0  0  0  0
    1.4189    0.8636    0.8689 C   0  0  0  0  0  0  0  0  0  0  0  0
   -1.4189    0.8689   -0.8636 C   0  0  0  0  0  0  0  0  0  0  0  0
    1.4189   -0.8636   -0.8690 C   0  0  0  0  0  0  0  0  0  0  0  0
   -1.4189   -0.8690    0.8636 C   0  0  0  0  0  0  0  0  0  0  0  0
    2.8310    0.8635    0.8689 C   0  0  0  0  0  0  0  0  0  0  0  0
   -2.8310    0.8690   -0.8635 C   0  0  0  0  0  0  0  0  0  0  0  0
    2.8311   -0.8637   -0.8689 C   0  0  0  0  0  0  0  0  0  0  0  0
   -2.8310   -0.8691    0.8635 C   0  0  0  0  0  0  0  0  0  0  0  0
    3.5187   -0.0001    0.0001 C   0  0  0  0  0  0  0  0  0  0  0  0
   -3.5187   -0.0001   -0.0001 C   0  0  0  0  0  0  0  0  0  0  0  0
    0.7320    1.7274    1.7381 C   0  0  0  0  0  0  0  0  0  0  0  0
   -0.7321    1.7382   -1.7274 C   0  0  0  0  0  0  0  0  0  0  0  0
    0.7321   -1.7273   -1.7382 C   0  0  0  0  0  0  0  0  0  0  0  0
   -0.7320   -1.7381    1.7274 C   0  0  0  0  0  0  0  0  0  0  0  0
    3.5179    1.7275    1.7380 C   0  0  0  0  0  0  0  0  0  0  0  0
   -3.5179    1.7383   -1.7272 C   0  0  0  0  0  0  0  0  0  0  0  0
    3.5180   -1.7276   -1.7380 C   0  0  0  0  0  0  0  0  0  0  0  0
   -3.5179   -1.7384    1.7272 C   0  0  0  0  0  0  0  0  0  0  0  0
    1.4294    2.5791    2.5951 C   0  0  0  0  0  0  0  0  0  0  0  0
   -1.4294    2.5953   -2.5789 C   0  0  0  0  0  0  0  0  0  0  0  0
    1.4293   -2.5789   -2.5952 C   0  0  0  0  0  0  0  0  0  0  0  0
   -1.4294   -2.5951    2.5791 C   0  0  0  0  0  0  0  0  0  0  0  0
    2.8206    2.5792    2.5950 C   0  0  0  0  0  0  0  0  0  0  0  0
   -2.8206    2.5954   -2.5788 C   0  0  0  0  0  0  0  0  0  0  0  0
    2.8206   -2.5792   -2.5950 C   0  0  0  0  0  0  0  0  0  0  0  0
   -2.8206   -2.5952    2.5789 C   0  0  0  0  0  0  0  0  0  0  0  0
    4.6087   -0.0001    0.0001 H   0  0  0  0  0  0  0  0  0  0  0  0
   -4.6087   -0.0002   -0.0002 H   0  0  0  0  0  0  0  0  0  0  0  0
   -0.3527    1.7735    1.7845 H   0  0  0  0  0  0  0  0  0  0  0  0
    0.3526    1.7846   -1.7735 H   0  0  0  0  0  0  0  0  0  0  0  0
   -0.3526   -1.7734   -1.7848 H   0  0  0  0  0  0  0  0  0  0  0  0
    0.3527   -1.7845    1.7737 H   0  0  0  0  0  0  0  0  0  0  0  0
    4.6058    1.7443    1.7548 H   0  0  0  0  0  0  0  0  0  0  0  0
   -4.6058    1.7553   -1.7439 H   0  0  0  0  0  0  0  0  0  0  0  0
    4.6058   -1.7444   -1.7548 H   0  0  0  0  0  0  0  0  0  0  0  0
   -4.6057   -1.7554    1.7438 H   0  0  0  0  0  0  0  0  0  0  0  0
    0.8862    3.2421    3.2622 H   0  0  0  0  0  0  0  0  0  0  0  0
   -0.8863    3.2624   -3.2419 H   0  0  0  0  0  0  0  0  0  0  0  0
    0.8862   -3.2418   -3.2624 H   0  0  0  0  0  0  0  0  0  0  0  0
   -0.8862   -3.2622    3.2421 H   0  0  0  0  0  0  0  0  0  0  0  0
    3.3642    3.2421    3.2618 H   0  0  0  0  0  0  0  0  0  0  0  0
   -3.3642    3.2624   -3.2415 H   0  0  0  0  0  0  0  0  0  0  0  0
    3.3641   -3.2420   -3.2619 H   0  0  0  0  0  0  0  0  0  0  0  0
   -3.3642   -3.2622    3.2416 H   0  0  0  0  0  0  0  0  0  0  0  0
  1  2  1  0  0  0  0
  1  3  2  0  0  0  0
  1  5  1  0  0  0  0
  2  4  2  0  0  0  0
  2  6  1  0  0  0  0
  3  7  1  0  0  0  0
  3 13  1  0  0  0  0
  4  8  1  0  0  0  0
  4 14  1  0  0  0  0
  5  9  1  0  0  0  0
  5 15  2  0  0  0  0
  6 10  1  0  0  0  0
  6 16  2  0  0  0  0
  7 11  2  0  0  0  0
  7 17  1  0  0  0  0
  8 12  2  0  0  0  0
  8 18  1  0  0  0  0
  9 11  1  0  0  0  0
  9 19  2  0  0  0  0
 10 12  1  0  0  0  0
 10 20  2  0  0  0  0
 11 29  1  0  0  0  0
 12 30  1  0  0  0  0
 13 21  2  0  0  0  0
 13 31  1  0  0  0  0
 14 22  2  0  0  0  0
 14 32  1  0  0  0  0
 15 23  1  0  0  0  0
 15 33  1  0  0  0  0
 16 24  1  0  0  0  0
 16 34  1  0  0  0  0
 17 25  2  0  0  0  0
 17 35  1  0  0  0  0
 18 26  2  0  0  0  0
 18 36  1  0  0  0  0
 19 27  1  0  0  0  0
 19 37  1  0  0  0  0
 20 28  1  0  0  0  0
 20 38  1  0  0  0  0
 21 25  1  0  0  0  0
 21 39  1  0  0  0  0
 22 26  1  0  0  0  0
 22 40  1  0  0  0  0
 23 27  2  0  0  0  0
 23 41  1  0  0  0  0
 24 28  2  0  0  0  0
 24 42  1  0  0  0  0
 25 43  1  0  0  0  0
 26 44  1  0  0  0  0
 27 45  1  0  0  0  0
 28 46  1  0  0  0  0
M  END
> <PUBCHEM_COMPOUND_CID>
66105

> <PUBCHEM_CONFORMER_RMSD>
0.6

> <PUBCHEM_CONFORMER_DIVERSEORDER>
1

> <PUBCHEM_MMFF94_PARTIAL_CHARGES>
36
11 -0.15
12 -0.15
13 -0.15
14 -0.15
15 -0.15
16 -0.15
17 -0.15
18 -0.15
19 -0.15
20 -0.15
21 -0.15
22 -0.15
23 -0.15
24 -0.15
25 -0.15
26 -0.15
27 -0.15
28 -0.15
29 0.15
30 0.15
31 0.15
32 0.15
33 0.15
34 0.15
35 0.15
36 0.15
37 0.15
38 0.15
39 0.15
40 0.15
41 0.15
42 0.15
43 0.15
44 0.15
45 0.15
46 0.15

> <PUBCHEM_EFFECTIVE_ROTOR_COUNT>
1

> <PUBCHEM_PHARMACOPHORE_FEATURES>
6
6 1 3 5 7 9 11 rings
6 2 4 6 8 10 12 rings
6 3 7 13 17 21 25 rings
6 4 8 14 18 22 26 rings
6 5 9 15 19 23 27 rings
6 6 10 16 20 24 28 rings

> <PUBCHEM_HEAVY_ATOM_COUNT>
28

> <PUBCHEM_ATOM_DEF_STEREO_COUNT>
0

> <PUBCHEM_ATOM_UDEF_STEREO_COUNT>
0

> <PUBCHEM_BOND_DEF_STEREO_COUNT>
0

> <PUBCHEM_BOND_UDEF_STEREO_COUNT>
0

> <PUBCHEM_ISOTOPIC_ATOM_COUNT>
0

> <PUBCHEM_COMPONENT_COUNT>
1

> <PUBCHEM_CACTVS_TAUTO_COUNT>
1

> <PUBCHEM_CONFORMER_ID>
0001023900000001

> <PUBCHEM_MMFF94_ENERGY>
112.153

> <PUBCHEM_FEATURE_SELFOVERLAP>
30.554

> <PUBCHEM_SHAPE_FINGERPRINT>
10165383 225 17769112459562962592
11049842 53 17242448313687051058
11443803 9 17046195555490457833
11578080 2 18266767759843597956
11582403 64 17618164746816994389
11725454 13 18194651895983780550
12236239 1 15719110262149681824
12553582 1 17387148644244824539
12788726 201 16588605191725271275
13140716 1 17532377659395992721
133893 2 17417805137018368630
13583140 156 18119501436531398848
13911987 19 18059863835910064702
14022347 108 17387433422024895147
15219462 58 17103071144785658008
15324884 4 18338517542164758644
16752209 62 17385448717584658939
17974551 9 17827320403247373826
17980427 26 16529686593871920660
18219364 16 17915728972003716104
19930381 70 17845919823357273997
20600515 1 17823976951764738873
21304303 282 17185321937725830882
23419403 2 18342470234937594218
23557571 272 18260272953385013909
23559900 14 18041846099989778422
238 59 17844499215589837220
25222932 49 14868237074321356794
266924 78 17632292431909709916
3052486 1 17530683212839680013
376196 1 17764259043028259065
469060 322 17473516514913920830
48014 12 15106559440972694601
484985 159 17260793587787407678
497634 4 17114167214443894590
550186 7 18115852148849251736
57527293 21 18047189932226319722
57527295 17 17910667670725072391
57527585 103 17474707986245104046
77492 1 15769775757947043846

> <PUBCHEM_SHAPE_MULTIPOLES>
576.23
6.24
3.6
3.6
0
0
0
0
0
-0.28
0
0.28
0
6.34

> <PUBCHEM_SHAPE_SELFOVERLAP>
1347.166

> <PUBCHEM_SHAPE_VOLUME>
265.2

> <PUBCHEM_COORDINATE_TYPE>
2
5
10

$$$$
