139438
  -OEChem-11012401113D

 27 28  0     1  0  0  0  0  0999 V2000
   -3.1119    0.5317   -0.5602 O   0  0  0  0  0  0  0  0  0  0  0  0
    0.0745   -0.8743    0.1835 C   0  0  2  0  0  0  0  0  0  0  0  0
    0.0965    0.4779    0.9360 C   0  0  1  0  0  0  0  0  0  0  0  0
    0.8202   -0.7873   -1.1705 C   0  0  0  0  0  0  0  0  0  0  0  0
   -1.4303   -1.1231   -0.0489 C   0  0  0  0  0  0  0  0  0  0  0  0
    1.4700    1.1518    0.9696 C   0  0  0  0  0  0  0  0  0  0  0  0
   -0.9837    1.3253    0.2514 C   0  0  0  0  0  0  0  0  0  0  0  0
    2.2136   -0.1749   -1.0489 C   0  0  0  0  0  0  0  0  0  0  0  0
    2.1648    1.1975   -0.3881 C   0  0  0  0  0  0  0  0  0  0  0  0
    0.6667   -2.0011    1.0434 C   0  0  0  0  0  0  0  0  0  0  0  0
   -1.9804    0.2766   -0.1673 C   0  0  0  0  0  0  0  0  0  0  0  0
   -0.2244    0.3172    1.9759 H   0  0  0  0  0  0  0  0  0  0  0  0
    0.2433   -0.1842   -1.8838 H   0  0  0  0  0  0  0  0  0  0  0  0
    0.9013   -1.7852   -1.6197 H   0  0  0  0  0  0  0  0  0  0  0  0
   -1.9089   -1.6022    0.8114 H   0  0  0  0  0  0  0  0  0  0  0  0
   -1.6277   -1.6957   -0.9590 H   0  0  0  0  0  0  0  0  0  0  0  0
    2.1135    0.6043    1.6700 H   0  0  0  0  0  0  0  0  0  0  0  0
    1.3772    2.1696    1.3672 H   0  0  0  0  0  0  0  0  0  0  0  0
   -0.6253    1.8461   -0.6397 H   0  0  0  0  0  0  0  0  0  0  0  0
   -1.4373    2.0333    0.9495 H   0  0  0  0  0  0  0  0  0  0  0  0
    2.6584   -0.0825   -2.0465 H   0  0  0  0  0  0  0  0  0  0  0  0
    2.8701   -0.8391   -0.4754 H   0  0  0  0  0  0  0  0  0  0  0  0
    3.1846    1.5793   -0.2627 H   0  0  0  0  0  0  0  0  0  0  0  0
    1.6482    1.9035   -1.0486 H   0  0  0  0  0  0  0  0  0  0  0  0
    0.1324   -2.0959    1.9957 H   0  0  0  0  0  0  0  0  0  0  0  0
    0.5935   -2.9653    0.5281 H   0  0  0  0  0  0  0  0  0  0  0  0
    1.7206   -1.8260    1.2796 H   0  0  0  0  0  0  0  0  0  0  0  0
  1 11  2  0  0  0  0
  2  3  1  0  0  0  0
  2  4  1  0  0  0  0
  2  5  1  0  0  0  0
  2 10  1  0  0  0  0
  3  6  1  0  0  0  0
  3  7  1  0  0  0  0
  3 12  1  0  0  0  0
  4  8  1  0  0  0  0
  4 13  1  0  0  0  0
  4 14  1  0  0  0  0
  5 11  1  0  0  0  0
  5 15  1  0  0  0  0
  5 16  1  0  0  0  0
  6  9  1  0  0  0  0
  6 17  1  0  0  0  0
  6 18  1  0  0  0  0
  7 11  1  0  0  0  0
  7 19  1  0  0  0  0
  7 20  1  0  0  0  0
  8  9  1  0  0  0  0
  8 21  1  0  0  0  0
  8 22  1  0  0  0  0
  9 23  1  0  0  0  0
  9 24  1  0  0  0  0
 10 25  1  0  0  0  0
 10 26  1  0  0  0  0
 10 27  1  0  0  0  0
M  END
> <PUBCHEM_COMPOUND_CID>
139438

> <PUBCHEM_CONFORMER_RMSD>
0.4

> <PUBCHEM_CONFORMER_DIVERSEORDER>
3
5
4
6
1
2

> <PUBCHEM_MMFF94_PARTIAL_CHARGES>
4
1 -0.57
11 0.45
5 0.06
7 0.06

> <PUBCHEM_EFFECTIVE_ROTOR_COUNT>
1.2

> <PUBCHEM_PHARMACOPHORE_FEATURES>
3
1 1 acceptor
5 2 3 5 7 11 rings
6 2 3 4 6 8 9 rings

> <PUBCHEM_HEAVY_ATOM_COUNT>
11

> <PUBCHEM_ATOM_DEF_STEREO_COUNT>
0

> <PUBCHEM_ATOM_UDEF_STEREO_COUNT>
2

> <PUBCHEM_BOND_DEF_STEREO_COUNT>
0

> <PUBCHEM_BOND_UDEF_STEREO_COUNT>
0

> <PUBCHEM_ISOTOPIC_ATOM_COUNT>
0

> <PUBCHEM_COMPONENT_COUNT>
1

> <PUBCHEM_CACTVS_TAUTO_COUNT>
3

> <PUBCHEM_CONFORMER_ID>
000220AE00000003

> <PUBCHEM_MMFF94_ENERGY>
21.3735

> <PUBCHEM_FEATURE_SELFOVERLAP>
15.397

> <PUBCHEM_SHAPE_FINGERPRINT>
12138202 97 18266181819188256126
12423570 1 10672618904484987346
12716758 59 18262806305653547954
12897270 3 18060425728404881125
13024252 1 13121405379199243062
137420 1 12517571670594345682
14128692 85 17976818688145859626
14817 1 8246637066078744362
15775835 57 17313101998821855364
16945 1 18130518482368573084
18185500 45 17474116401322207187
20653085 51 17314534671273512436
21040471 1 18335695104422029563
23211744 25 18341062817099073809
23552423 10 18335979753653975891
241688 4 17985003500253496248
2748010 2 18056200408272016652
29004967 10 16988572320073326306
353137 74 18340774749495711561
5084963 1 18338244850559796044
528886 8 17417818352321528047

> <PUBCHEM_SHAPE_MULTIPOLES>
220.51
3.1
1.7
1.16
1.14
0.42
0.03
-0.95
-0.98
-0.24
0.43
-0.42
0.17
0.15

> <PUBCHEM_SHAPE_SELFOVERLAP>
456.202

> <PUBCHEM_SHAPE_VOLUME>
127.2

> <PUBCHEM_COORDINATE_TYPE>
2
5
10

$$$$
