14215991
  -OEChem-10312420522D

 98103  0     1  0  0  0  0  0999 V2000
    9.7942   -1.0000    0.0000 O   0  0  0  0  0  0  0  0  0  0  0  0
    8.0622   -2.0000    0.0000 O   0  0  0  0  0  0  0  0  0  0  0  0
    9.7942    1.0000    0.0000 O   0  0  0  0  0  0  0  0  0  0  0  0
    7.1962    0.5000    0.0000 O   0  0  0  0  0  0  0  0  0  0  0  0
    8.0622    2.0000    0.0000 O   0  0  0  0  0  0  0  0  0  0  0  0
    5.4641   -0.5000    0.0000 O   0  0  0  0  0  0  0  0  0  0  0  0
    8.9282   -2.5000    0.0000 O   0  0  0  0  0  0  0  0  0  0  0  0
    6.3301   -2.0000    0.0000 O   0  0  0  0  0  0  0  0  0  0  0  0
   10.6603   -0.5000    0.0000 O   0  0  0  0  0  0  0  0  0  0  0  0
    5.4641    0.5000    0.0000 O   0  0  0  0  0  0  0  0  0  0  0  0
    9.7942    2.0000    0.0000 O   0  0  0  0  0  0  0  0  0  0  0  0
    4.5981   -2.0000    0.0000 O   0  0  0  0  0  0  0  0  0  0  0  0
    8.9282   -0.5000    0.0000 C   0  0  1  0  0  0  0  0  0  0  0  0
    8.0622   -1.0000    0.0000 C   0  0  1  0  0  0  0  0  0  0  0  0
    8.9282    0.5000    0.0000 C   0  0  1  0  0  0  0  0  0  0  0  0
    7.1962   -0.5000    0.0000 C   0  0  1  0  0  0  0  0  0  0  0  0
    8.0622    1.0000    0.0000 C   0  0  0  0  0  0  0  0  0  0  0  0
    6.3301   -1.0000    0.0000 C   0  0  0  0  0  0  0  0  0  0  0  0
    9.7942   -2.0000    0.0000 C   0  0  0  0  0  0  0  0  0  0  0  0
    7.1962   -2.5000    0.0000 C   0  0  0  0  0  0  0  0  0  0  0  0
   10.6603    0.5000    0.0000 C   0  0  0  0  0  0  0  0  0  0  0  0
    6.3301    1.0000    0.0000 C   0  0  0  0  0  0  0  0  0  0  0  0
   10.6603   -2.5000    0.0000 C   0  0  0  0  0  0  0  0  0  0  0  0
    7.1962   -3.5000    0.0000 C   0  0  0  0  0  0  0  0  0  0  0  0
    8.9282    2.5000    0.0000 C   0  0  0  0  0  0  0  0  0  0  0  0
    4.5981   -1.0000    0.0000 C   0  0  0  0  0  0  0  0  0  0  0  0
   11.5263    1.0000    0.0000 C   0  0  0  0  0  0  0  0  0  0  0  0
    6.3301    2.0000    0.0000 C   0  0  0  0  0  0  0  0  0  0  0  0
   11.5263   -2.0000    0.0000 C   0  0  0  0  0  0  0  0  0  0  0  0
   10.6603   -3.5000    0.0000 C   0  0  0  0  0  0  0  0  0  0  0  0
    6.3301   -4.0000    0.0000 C   0  0  0  0  0  0  0  0  0  0  0  0
    8.0622   -4.0000    0.0000 C   0  0  0  0  0  0  0  0  0  0  0  0
    8.9282    3.5000    0.0000 C   0  0  0  0  0  0  0  0  0  0  0  0
    3.7320   -0.5000    0.0000 C   0  0  0  0  0  0  0  0  0  0  0  0
   11.5263    2.0000    0.0000 C   0  0  0  0  0  0  0  0  0  0  0  0
   12.3923    0.5000    0.0000 C   0  0  0  0  0  0  0  0  0  0  0  0
    7.1962    2.5000    0.0000 C   0  0  0  0  0  0  0  0  0  0  0  0
    5.4641    2.5000    0.0000 C   0  0  0  0  0  0  0  0  0  0  0  0
   12.3923   -2.5000    0.0000 C   0  0  0  0  0  0  0  0  0  0  0  0
   11.5263   -4.0000    0.0000 C   0  0  0  0  0  0  0  0  0  0  0  0
    6.3301   -5.0000    0.0000 C   0  0  0  0  0  0  0  0  0  0  0  0
    8.0622   -5.0000    0.0000 C   0  0  0  0  0  0  0  0  0  0  0  0
   12.3923   -3.5000    0.0000 C   0  0  0  0  0  0  0  0  0  0  0  0
    7.1962   -5.5000    0.0000 C   0  0  0  0  0  0  0  0  0  0  0  0
   12.3923    2.5000    0.0000 C   0  0  0  0  0  0  0  0  0  0  0  0
   13.2583    1.0000    0.0000 C   0  0  0  0  0  0  0  0  0  0  0  0
    7.1962    3.5000    0.0000 C   0  0  0  0  0  0  0  0  0  0  0  0
    5.4641    3.5000    0.0000 C   0  0  0  0  0  0  0  0  0  0  0  0
    9.7942    4.0000    0.0000 C   0  0  0  0  0  0  0  0  0  0  0  0
    8.0622    4.0000    0.0000 C   0  0  0  0  0  0  0  0  0  0  0  0
    3.7320    0.5000    0.0000 C   0  0  0  0  0  0  0  0  0  0  0  0
    2.8660   -1.0000    0.0000 C   0  0  0  0  0  0  0  0  0  0  0  0
   13.2583    2.0000    0.0000 C   0  0  0  0  0  0  0  0  0  0  0  0
    6.3301    4.0000    0.0000 C   0  0  0  0  0  0  0  0  0  0  0  0
    9.7942    5.0000    0.0000 C   0  0  0  0  0  0  0  0  0  0  0  0
    8.0622    5.0000    0.0000 C   0  0  0  0  0  0  0  0  0  0  0  0
    2.8660    1.0000    0.0000 C   0  0  0  0  0  0  0  0  0  0  0  0
    2.0000   -0.5000    0.0000 C   0  0  0  0  0  0  0  0  0  0  0  0
    8.9282    5.5000    0.0000 C   0  0  0  0  0  0  0  0  0  0  0  0
    2.0000    0.5000    0.0000 C   0  0  0  0  0  0  0  0  0  0  0  0
    9.4651   -0.1900    0.0000 H   0  0  0  0  0  0  0  0  0  0  0  0
    7.5252   -1.3100    0.0000 H   0  0  0  0  0  0  0  0  0  0  0  0
    8.9282    1.1200    0.0000 H   0  0  0  0  0  0  0  0  0  0  0  0
    6.6592   -0.1900    0.0000 H   0  0  0  0  0  0  0  0  0  0  0  0
    7.4516    1.1077    0.0000 H   0  0  0  0  0  0  0  0  0  0  0  0
    7.8501    0.4174    0.0000 H   0  0  0  0  0  0  0  0  0  0  0  0
    5.9316   -1.4750    0.0000 H   0  0  0  0  0  0  0  0  0  0  0  0
    6.7287   -1.4750    0.0000 H   0  0  0  0  0  0  0  0  0  0  0  0
   11.5263   -1.3800    0.0000 H   0  0  0  0  0  0  0  0  0  0  0  0
   10.1233   -3.8100    0.0000 H   0  0  0  0  0  0  0  0  0  0  0  0
    5.7932   -3.6900    0.0000 H   0  0  0  0  0  0  0  0  0  0  0  0
    8.5991   -3.6900    0.0000 H   0  0  0  0  0  0  0  0  0  0  0  0
   10.9893    2.3100    0.0000 H   0  0  0  0  0  0  0  0  0  0  0  0
   12.3923   -0.1200    0.0000 H   0  0  0  0  0  0  0  0  0  0  0  0
    7.7331    2.1900    0.0000 H   0  0  0  0  0  0  0  0  0  0  0  0
    4.9272    2.1900    0.0000 H   0  0  0  0  0  0  0  0  0  0  0  0
   12.9292   -2.1900    0.0000 H   0  0  0  0  0  0  0  0  0  0  0  0
   11.5263   -4.6200    0.0000 H   0  0  0  0  0  0  0  0  0  0  0  0
    5.7932   -5.3100    0.0000 H   0  0  0  0  0  0  0  0  0  0  0  0
    8.5991   -5.3100    0.0000 H   0  0  0  0  0  0  0  0  0  0  0  0
   12.9292   -3.8100    0.0000 H   0  0  0  0  0  0  0  0  0  0  0  0
    7.1962   -6.1200    0.0000 H   0  0  0  0  0  0  0  0  0  0  0  0
   12.3923    3.1200    0.0000 H   0  0  0  0  0  0  0  0  0  0  0  0
   13.7953    0.6900    0.0000 H   0  0  0  0  0  0  0  0  0  0  0  0
    7.7331    3.8100    0.0000 H   0  0  0  0  0  0  0  0  0  0  0  0
    4.9272    3.8100    0.0000 H   0  0  0  0  0  0  0  0  0  0  0  0
   10.3312    3.6900    0.0000 H   0  0  0  0  0  0  0  0  0  0  0  0
    7.5252    3.6900    0.0000 H   0  0  0  0  0  0  0  0  0  0  0  0
    4.2690    0.8100    0.0000 H   0  0  0  0  0  0  0  0  0  0  0  0
    2.8660   -1.6200    0.0000 H   0  0  0  0  0  0  0  0  0  0  0  0
   13.7953    2.3100    0.0000 H   0  0  0  0  0  0  0  0  0  0  0  0
    6.3301    4.6200    0.0000 H   0  0  0  0  0  0  0  0  0  0  0  0
   10.3312    5.3100    0.0000 H   0  0  0  0  0  0  0  0  0  0  0  0
    7.5252    5.3100    0.0000 H   0  0  0  0  0  0  0  0  0  0  0  0
    2.8660    1.6200    0.0000 H   0  0  0  0  0  0  0  0  0  0  0  0
    1.4631   -0.8100    0.0000 H   0  0  0  0  0  0  0  0  0  0  0  0
    8.9282    6.1200    0.0000 H   0  0  0  0  0  0  0  0  0  0  0  0
    1.4631    0.8100    0.0000 H   0  0  0  0  0  0  0  0  0  0  0  0
 13  1  1  1  0  0  0
  1 19  1  0  0  0  0
 14  2  1  6  0  0  0
  2 20  1  0  0  0  0
 15  3  1  1  0  0  0
  3 21  1  0  0  0  0
 16  4  1  1  0  0  0
  4 22  1  0  0  0  0
  5 17  1  0  0  0  0
  5 25  1  0  0  0  0
  6 18  1  0  0  0  0
  6 26  1  0  0  0  0
  7 19  2  0  0  0  0
  8 20  2  0  0  0  0
  9 21  2  0  0  0  0
 10 22  2  0  0  0  0
 11 25  2  0  0  0  0
 12 26  2  0  0  0  0
 13 14  1  0  0  0  0
 13 15  1  0  0  0  0
 13 61  1  0  0  0  0
 14 16  1  0  0  0  0
 14 62  1  0  0  0  0
 15 17  1  0  0  0  0
 15 63  1  0  0  0  0
 16 18  1  0  0  0  0
 16 64  1  0  0  0  0
 17 65  1  0  0  0  0
 17 66  1  0  0  0  0
 18 67  1  0  0  0  0
 18 68  1  0  0  0  0
 19 23  1  0  0  0  0
 20 24  1  0  0  0  0
 21 27  1  0  0  0  0
 22 28  1  0  0  0  0
 23 29  2  0  0  0  0
 23 30  1  0  0  0  0
 24 31  2  0  0  0  0
 24 32  1  0  0  0  0
 25 33  1  0  0  0  0
 26 34  1  0  0  0  0
 27 35  2  0  0  0  0
 27 36  1  0  0  0  0
 28 37  2  0  0  0  0
 28 38  1  0  0  0  0
 29 39  1  0  0  0  0
 29 69  1  0  0  0  0
 30 40  2  0  0  0  0
 30 70  1  0  0  0  0
 31 41  1  0  0  0  0
 31 71  1  0  0  0  0
 32 42  2  0  0  0  0
 32 72  1  0  0  0  0
 33 49  2  0  0  0  0
 33 50  1  0  0  0  0
 34 51  2  0  0  0  0
 34 52  1  0  0  0  0
 35 45  1  0  0  0  0
 35 73  1  0  0  0  0
 36 46  2  0  0  0  0
 36 74  1  0  0  0  0
 37 47  1  0  0  0  0
 37 75  1  0  0  0  0
 38 48  2  0  0  0  0
 38 76  1  0  0  0  0
 39 43  2  0  0  0  0
 39 77  1  0  0  0  0
 40 43  1  0  0  0  0
 40 78  1  0  0  0  0
 41 44  2  0  0  0  0
 41 79  1  0  0  0  0
 42 44  1  0  0  0  0
 42 80  1  0  0  0  0
 43 81  1  0  0  0  0
 44 82  1  0  0  0  0
 45 53  2  0  0  0  0
 45 83  1  0  0  0  0
 46 53  1  0  0  0  0
 46 84  1  0  0  0  0
 47 54  2  0  0  0  0
 47 85  1  0  0  0  0
 48 54  1  0  0  0  0
 48 86  1  0  0  0  0
 49 55  1  0  0  0  0
 49 87  1  0  0  0  0
 50 56  2  0  0  0  0
 50 88  1  0  0  0  0
 51 57  1  0  0  0  0
 51 89  1  0  0  0  0
 52 58  2  0  0  0  0
 52 90  1  0  0  0  0
 53 91  1  0  0  0  0
 54 92  1  0  0  0  0
 55 59  2  0  0  0  0
 55 93  1  0  0  0  0
 56 59  1  0  0  0  0
 56 94  1  0  0  0  0
 57 60  2  0  0  0  0
 57 95  1  0  0  0  0
 58 60  1  0  0  0  0
 58 96  1  0  0  0  0
 59 97  1  0  0  0  0
 60 98  1  0  0  0  0
M  END
> <PUBCHEM_COMPOUND_CID>
14215991

> <PUBCHEM_COMPOUND_CANONICALIZED>
1

> <PUBCHEM_CACTVS_COMPLEXITY>
1270

> <PUBCHEM_CACTVS_HBOND_ACCEPTOR>
12

> <PUBCHEM_CACTVS_HBOND_DONOR>
0

> <PUBCHEM_CACTVS_ROTATABLE_BOND>
23

> <PUBCHEM_CACTVS_SUBSKEYS>
AAADcfB8PAAAAAAAAAAAAAAAAAAAAAAAAAAwYMGDAAAAAAABVAAAGgAAAAAADBSgmAIwCIAABACIAiDSCAACAAAkAAAIiAEACMgJJjKANRiCMQAlwAEKqYfI6CyOAAAAAAAAAAAAAAAAAAAAAAAAAAAAAA==

> <PUBCHEM_IUPAC_OPENEYE_NAME>
[(2R,3R,4R,5R)-2,3,4,5,6-pentabenzoyloxyhexyl] benzoate

> <PUBCHEM_IUPAC_CAS_NAME>
benzoic acid [(2R,3R,4R,5R)-2,3,4,5,6-pentabenzoyloxyhexyl] ester

> <PUBCHEM_IUPAC_NAME_MARKUP>
[(2<I>R</I>,3<I>R</I>,4<I>R</I>,5<I>R</I>)-2,3,4,5,6-pentabenzoyloxyhexyl] benzoate

> <PUBCHEM_IUPAC_NAME>
[(2R,3R,4R,5R)-2,3,4,5,6-pentabenzoyloxyhexyl] benzoate

> <PUBCHEM_IUPAC_SYSTEMATIC_NAME>
[(2R,3R,4R,5R)-2,3,4,5,6-pentakis(phenylcarbonyloxy)hexyl] benzoate

> <PUBCHEM_IUPAC_TRADITIONAL_NAME>
benzoic acid [(2R,3R,4R,5R)-2,3,4,5,6-pentabenzoyloxyhexyl] ester

> <PUBCHEM_IUPAC_INCHI>
InChI=1S/C48H38O12/c49-43(33-19-7-1-8-20-33)55-31-39(57-45(51)35-23-11-3-12-24-35)41(59-47(53)37-27-15-5-16-28-37)42(60-48(54)38-29-17-6-18-30-38)40(58-46(52)36-25-13-4-14-26-36)32-56-44(50)34-21-9-2-10-22-34/h1-30,39-42H,31-32H2/t39-,40-,41-,42-/m1/s1

> <PUBCHEM_IUPAC_INCHIKEY>
LDCRTWOPHMRXIF-BMGLKWEPSA-N

> <PUBCHEM_XLOGP3_AA>
9.8

> <PUBCHEM_EXACT_MASS>
806.23632664

> <PUBCHEM_MOLECULAR_FORMULA>
C48H38O12

> <PUBCHEM_MOLECULAR_WEIGHT>
806.8

> <PUBCHEM_OPENEYE_CAN_SMILES>
C1=CC=C(C=C1)C(=O)OCC(C(C(C(COC(=O)C2=CC=CC=C2)OC(=O)C3=CC=CC=C3)OC(=O)C4=CC=CC=C4)OC(=O)C5=CC=CC=C5)OC(=O)C6=CC=CC=C6

> <PUBCHEM_OPENEYE_ISO_SMILES>
C1=CC=C(C=C1)C(=O)OC[C@H]([C@H]([C@@H]([C@@H](COC(=O)C2=CC=CC=C2)OC(=O)C3=CC=CC=C3)OC(=O)C4=CC=CC=C4)OC(=O)C5=CC=CC=C5)OC(=O)C6=CC=CC=C6

> <PUBCHEM_CACTVS_TPSA>
158

> <PUBCHEM_MONOISOTOPIC_WEIGHT>
806.23632664

> <PUBCHEM_TOTAL_CHARGE>
0

> <PUBCHEM_HEAVY_ATOM_COUNT>
60

> <PUBCHEM_ATOM_DEF_STEREO_COUNT>
4

> <PUBCHEM_ATOM_UDEF_STEREO_COUNT>
0

> <PUBCHEM_BOND_DEF_STEREO_COUNT>
0

> <PUBCHEM_BOND_UDEF_STEREO_COUNT>
0

> <PUBCHEM_ISOTOPIC_ATOM_COUNT>
0

> <PUBCHEM_COMPONENT_COUNT>
1

> <PUBCHEM_CACTVS_TAUTO_COUNT>
-1

> <PUBCHEM_COORDINATE_TYPE>
1
5
255

> <PUBCHEM_BONDANNOTATIONS>
13  1  5
14  2  6
23  29  8
23  30  8
24  31  8
24  32  8
27  35  8
27  36  8
28  37  8
28  38  8
29  39  8
15  3  5
30  40  8
31  41  8
32  42  8
33  49  8
33  50  8
34  51  8
34  52  8
35  45  8
36  46  8
37  47  8
38  48  8
39  43  8
16  4  5
40  43  8
41  44  8
42  44  8
45  53  8
46  53  8
47  54  8
48  54  8
49  55  8
50  56  8
51  57  8
52  58  8
55  59  8
56  59  8
57  60  8
58  60  8

$$$$
