70941
  -OEChem-11012401093D

 16 16  0     0  0  0  0  0  0999 V2000
   -1.2029    0.1588    0.0000 S   0  0  0  0  0  0  0  0  0  0  0  0
   -1.8780    0.3582   -1.2667 O   0  0  0  0  0  0  0  0  0  0  0  0
   -1.8784    0.3581    1.2665 O   0  0  0  0  0  0  0  0  0  0  0  0
    0.2923    1.1312    0.0003 C   0  0  0  0  0  0  0  0  0  0  0  0
   -0.4778   -1.4686    0.0001 C   0  0  0  0  0  0  0  0  0  0  0  0
    1.3702    0.0978    0.0000 C   0  0  0  0  0  0  0  0  0  0  0  0
    0.9824   -1.1850    0.0000 C   0  0  0  0  0  0  0  0  0  0  0  0
    2.7922    0.5495    0.0000 C   0  0  0  0  0  0  0  0  0  0  0  0
    0.3159    1.7478    0.9015 H   0  0  0  0  0  0  0  0  0  0  0  0
    0.3160    1.7483   -0.9007 H   0  0  0  0  0  0  0  0  0  0  0  0
   -0.7868   -2.0031   -0.9002 H   0  0  0  0  0  0  0  0  0  0  0  0
   -0.7868   -2.0029    0.9005 H   0  0  0  0  0  0  0  0  0  0  0  0
    1.6932   -2.0031   -0.0001 H   0  0  0  0  0  0  0  0  0  0  0  0
    3.4885   -0.2955    0.0000 H   0  0  0  0  0  0  0  0  0  0  0  0
    2.9989    1.1545    0.8886 H   0  0  0  0  0  0  0  0  0  0  0  0
    2.9989    1.1547   -0.8884 H   0  0  0  0  0  0  0  0  0  0  0  0
  1  2  2  0  0  0  0
  1  3  2  0  0  0  0
  1  4  1  0  0  0  0
  1  5  1  0  0  0  0
  4  6  1  0  0  0  0
  4  9  1  0  0  0  0
  4 10  1  0  0  0  0
  5  7  1  0  0  0  0
  5 11  1  0  0  0  0
  5 12  1  0  0  0  0
  6  7  2  0  0  0  0
  6  8  1  0  0  0  0
  7 13  1  0  0  0  0
  8 14  1  0  0  0  0
  8 15  1  0  0  0  0
  8 16  1  0  0  0  0
M  END
> <PUBCHEM_COMPOUND_CID>
70941

> <PUBCHEM_CONFORMER_RMSD>
0.4

> <PUBCHEM_CONFORMER_DIVERSEORDER>
1

> <PUBCHEM_MMFF94_PARTIAL_CHARGES>
9
1 1.09
13 0.15
2 -0.65
3 -0.65
4 0.24
5 0.24
6 -0.28
7 -0.29
8 0.14

> <PUBCHEM_EFFECTIVE_ROTOR_COUNT>
0.4

> <PUBCHEM_PHARMACOPHORE_FEATURES>
3
1 2 acceptor
1 3 acceptor
5 1 4 5 6 7 rings

> <PUBCHEM_HEAVY_ATOM_COUNT>
8

> <PUBCHEM_ATOM_DEF_STEREO_COUNT>
0

> <PUBCHEM_ATOM_UDEF_STEREO_COUNT>
0

> <PUBCHEM_BOND_DEF_STEREO_COUNT>
0

> <PUBCHEM_BOND_UDEF_STEREO_COUNT>
0

> <PUBCHEM_ISOTOPIC_ATOM_COUNT>
0

> <PUBCHEM_COMPONENT_COUNT>
1

> <PUBCHEM_CACTVS_TAUTO_COUNT>
1

> <PUBCHEM_CONFORMER_ID>
0001151D00000001

> <PUBCHEM_MMFF94_ENERGY>
2.5633

> <PUBCHEM_FEATURE_SELFOVERLAP>
15.239

> <PUBCHEM_SHAPE_FINGERPRINT>
15310529 11 16877947169774477548
16714656 1 18336551598558461796
18185500 45 18058437729903927895
21040471 1 18410855464686918658
23235685 24 18413393145892279304
24536 1 18131070484476737122
29004967 10 18114192903612503040
369184 2 16081361981839991128
5084963 1 18263078992968850402

> <PUBCHEM_SHAPE_MULTIPOLES>
156.75
2.92
1.31
0.91
1.18
0.39
0
-0.68
0
0.06
0
-0.56
-0.12
0

> <PUBCHEM_SHAPE_SELFOVERLAP>
300.609

> <PUBCHEM_SHAPE_VOLUME>
97.7

> <PUBCHEM_COORDINATE_TYPE>
2
5
10

$$$$
