8917
  -OEChem-11012401143D

 33 32  0     0  0  0  0  0  0999 V2000
    6.5471   -0.5108   -0.0242 S   0  0  0  0  0  0  0  0  0  0  0  0
   -0.0303    0.5152    0.0519 C   0  0  0  0  0  0  0  0  0  0  0  0
   -1.2864   -0.3592    0.0682 C   0  0  0  0  0  0  0  0  0  0  0  0
    1.2391   -0.3395    0.0580 C   0  0  0  0  0  0  0  0  0  0  0  0
   -2.5577    0.4919    0.0241 C   0  0  0  0  0  0  0  0  0  0  0  0
    2.5281    0.4829   -0.0303 C   0  0  0  0  0  0  0  0  0  0  0  0
   -3.8112   -0.3859    0.0075 C   0  0  0  0  0  0  0  0  0  0  0  0
    3.7994   -0.3710    0.0006 C   0  0  0  0  0  0  0  0  0  0  0  0
   -5.1136    0.4171   -0.0058 C   0  0  0  0  0  0  0  0  0  0  0  0
    5.0456    0.5090   -0.0563 C   0  0  0  0  0  0  0  0  0  0  0  0
   -6.3602   -0.4496   -0.0936 C   0  0  0  0  0  0  0  0  0  0  0  0
   -0.0293    1.1813    0.9229 H   0  0  0  0  0  0  0  0  0  0  0  0
   -0.0370    1.1506   -0.8420 H   0  0  0  0  0  0  0  0  0  0  0  0
   -1.2899   -0.9815    0.9713 H   0  0  0  0  0  0  0  0  0  0  0  0
   -1.2714   -1.0384   -0.7929 H   0  0  0  0  0  0  0  0  0  0  0  0
    1.2606   -0.9456    0.9722 H   0  0  0  0  0  0  0  0  0  0  0  0
    1.2089   -1.0406   -0.7854 H   0  0  0  0  0  0  0  0  0  0  0  0
   -2.5465    1.1288   -0.8686 H   0  0  0  0  0  0  0  0  0  0  0  0
   -2.5862    1.1564    0.8960 H   0  0  0  0  0  0  0  0  0  0  0  0
    2.5125    1.0758   -0.9533 H   0  0  0  0  0  0  0  0  0  0  0  0
    2.5520    1.1957    0.8035 H   0  0  0  0  0  0  0  0  0  0  0  0
   -3.8071   -1.0439    0.8854 H   0  0  0  0  0  0  0  0  0  0  0  0
   -3.7822   -1.0366   -0.8754 H   0  0  0  0  0  0  0  0  0  0  0  0
    3.7841   -1.0654   -0.8488 H   0  0  0  0  0  0  0  0  0  0  0  0
    3.8044   -0.9739    0.9174 H   0  0  0  0  0  0  0  0  0  0  0  0
   -5.1702    1.0320    0.9003 H   0  0  0  0  0  0  0  0  0  0  0  0
   -5.1056    1.1073   -0.8579 H   0  0  0  0  0  0  0  0  0  0  0  0
    5.0741    1.1922    0.7984 H   0  0  0  0  0  0  0  0  0  0  0  0
    5.0536    1.1093   -0.9716 H   0  0  0  0  0  0  0  0  0  0  0  0
   -6.4222   -1.1309    0.7609 H   0  0  0  0  0  0  0  0  0  0  0  0
   -7.2587    0.1752   -0.0980 H   0  0  0  0  0  0  0  0  0  0  0  0
   -6.3559   -1.0478   -1.0102 H   0  0  0  0  0  0  0  0  0  0  0  0
    6.3136   -1.1676   -1.1700 H   0  0  0  0  0  0  0  0  0  0  0  0
  1 10  1  0  0  0  0
  1 33  1  0  0  0  0
  2  3  1  0  0  0  0
  2  4  1  0  0  0  0
  2 12  1  0  0  0  0
  2 13  1  0  0  0  0
  3  5  1  0  0  0  0
  3 14  1  0  0  0  0
  3 15  1  0  0  0  0
  4  6  1  0  0  0  0
  4 16  1  0  0  0  0
  4 17  1  0  0  0  0
  5  7  1  0  0  0  0
  5 18  1  0  0  0  0
  5 19  1  0  0  0  0
  6  8  1  0  0  0  0
  6 20  1  0  0  0  0
  6 21  1  0  0  0  0
  7  9  1  0  0  0  0
  7 22  1  0  0  0  0
  7 23  1  0  0  0  0
  8 10  1  0  0  0  0
  8 24  1  0  0  0  0
  8 25  1  0  0  0  0
  9 11  1  0  0  0  0
  9 26  1  0  0  0  0
  9 27  1  0  0  0  0
 10 28  1  0  0  0  0
 10 29  1  0  0  0  0
 11 30  1  0  0  0  0
 11 31  1  0  0  0  0
 11 32  1  0  0  0  0
M  END
> <PUBCHEM_COMPOUND_CID>
8917

> <PUBCHEM_CONFORMER_RMSD>
0.8

> <PUBCHEM_CONFORMER_DIVERSEORDER>
1
154
56
71
23
130
208
104
17
209
44
126
64
103
172
47
72
51
69
5
42
158
171
12
83
10
114
76
198
92
96
121
195
168
7
202
207
8
135
148
45
33
14
26
3
32
60
29
15
187
129
141
161
28
119
167
196
6
124
55
169
199
184
37
49
31
79
109
38
34
24
41
147
128
97
123
65
88
84
102
66
143
43
95
16
133
39
2
145
78
189
181
46
205
82
194
139
68
174
91
149
94
100
116
13
108
75
179
19
165
57
150
40
132
122
153
90
20
27
197
70
125
48
144
4
201
106
101
111
192
105
98
89
11
73
159
138
170
200
163
58
127
53
22
113
151
93
30
140
134
206
166
157
63
142
86
183
54
190
173
80
36
85
182
191
67
115
99
107
62
193
160
21
25
61
9
180
186
50
162
136
112
178
155
77
59
110
164
185
120
176
137
131
204
81
175
117
156
188
52
18
74
87
177
152
35
146
118
203

> <PUBCHEM_MMFF94_PARTIAL_CHARGES>
3
1 -0.41
10 0.23
33 0.18

> <PUBCHEM_EFFECTIVE_ROTOR_COUNT>
8

> <PUBCHEM_PHARMACOPHORE_FEATURES>
1
1 11 hydrophobe

> <PUBCHEM_HEAVY_ATOM_COUNT>
11

> <PUBCHEM_ATOM_DEF_STEREO_COUNT>
0

> <PUBCHEM_ATOM_UDEF_STEREO_COUNT>
0

> <PUBCHEM_BOND_DEF_STEREO_COUNT>
0

> <PUBCHEM_BOND_UDEF_STEREO_COUNT>
0

> <PUBCHEM_ISOTOPIC_ATOM_COUNT>
0

> <PUBCHEM_COMPONENT_COUNT>
1

> <PUBCHEM_CACTVS_TAUTO_COUNT>
1

> <PUBCHEM_CONFORMER_ID>
000022D500000001

> <PUBCHEM_MMFF94_ENERGY>
-2.0177

> <PUBCHEM_FEATURE_SELFOVERLAP>
5.074

> <PUBCHEM_SHAPE_FINGERPRINT>
12091667 2 18186239524779025353
13533116 47 16226034566925117216
14123238 8 18410575084668373157
1420 363 18413393137297108770
14251718 22 18410855464438966353
14251764 46 18410854360621854246
17834072 33 18272087235763598325
17834076 25 18410293613986616806
187816 3 16370445553018427392
20621476 38 18270401586593473534
20621476 8 18336267834337938573
20645477 70 18341051796920478294
20719005 15 18411138034616591184
20767249 13 18411138038916761768
20767249 213 8070025566772201118
23402539 116 18201433688289079349
23521765 1 18341895190345678854
366044 4 18333450950014543931
42788 4 18410575088958169633
8209 1 18410573985151451156

> <PUBCHEM_SHAPE_MULTIPOLES>
230.22
17.42
0.82
0.63
0.85
0.01
0
-2.18
-0.56
0.11
0
0.05
0
-0.03

> <PUBCHEM_SHAPE_SELFOVERLAP>
394.74

> <PUBCHEM_SHAPE_VOLUME>
153.7

> <PUBCHEM_COORDINATE_TYPE>
2
5
10

$$$$
