10295
  -OEChem-11012400363D

 23 25  0     0  0  0  0  0  0999 V2000
    0.0001    2.0043   -0.2118 S   0  0  0  0  0  0  0  0  0  0  0  0
    0.0000   -2.4136   -0.2232 O   0  0  0  0  0  0  0  0  0  0  0  0
   -1.2964   -0.4770   -0.0297 C   0  0  0  0  0  0  0  0  0  0  0  0
    1.2964   -0.4770   -0.0297 C   0  0  0  0  0  0  0  0  0  0  0  0
   -1.3906    0.9166   -0.0601 C   0  0  0  0  0  0  0  0  0  0  0  0
    1.3907    0.9166   -0.0602 C   0  0  0  0  0  0  0  0  0  0  0  0
    0.0000   -1.1912   -0.1045 C   0  0  0  0  0  0  0  0  0  0  0  0
   -2.4654   -1.2516    0.0746 C   0  0  0  0  0  0  0  0  0  0  0  0
    2.4654   -1.2517    0.0747 C   0  0  0  0  0  0  0  0  0  0  0  0
   -2.6601    1.5151    0.0149 C   0  0  0  0  0  0  0  0  0  0  0  0
    2.6602    1.5151    0.0147 C   0  0  0  0  0  0  0  0  0  0  0  0
   -3.7178   -0.6438    0.1498 C   0  0  0  0  0  0  0  0  0  0  0  0
    3.7177   -0.6438    0.1500 C   0  0  0  0  0  0  0  0  0  0  0  0
   -3.8156    0.7410    0.1203 C   0  0  0  0  0  0  0  0  0  0  0  0
    3.8155    0.7410    0.1203 C   0  0  0  0  0  0  0  0  0  0  0  0
   -2.4226   -2.3377    0.1030 H   0  0  0  0  0  0  0  0  0  0  0  0
    2.4225   -2.3378    0.1033 H   0  0  0  0  0  0  0  0  0  0  0  0
   -2.7673    2.5982   -0.0094 H   0  0  0  0  0  0  0  0  0  0  0  0
    2.7675    2.5981   -0.0098 H   0  0  0  0  0  0  0  0  0  0  0  0
   -4.6137   -1.2522    0.2315 H   0  0  0  0  0  0  0  0  0  0  0  0
    4.6136   -1.2521    0.2319 H   0  0  0  0  0  0  0  0  0  0  0  0
   -4.7881    1.2207    0.1775 H   0  0  0  0  0  0  0  0  0  0  0  0
    4.7881    1.2206    0.1775 H   0  0  0  0  0  0  0  0  0  0  0  0
  1  5  1  0  0  0  0
  1  6  1  0  0  0  0
  2  7  2  0  0  0  0
  3  5  1  0  0  0  0
  3  7  1  0  0  0  0
  3  8  2  0  0  0  0
  4  6  1  0  0  0  0
  4  7  1  0  0  0  0
  4  9  2  0  0  0  0
  5 10  2  0  0  0  0
  6 11  2  0  0  0  0
  8 12  1  0  0  0  0
  8 16  1  0  0  0  0
  9 13  1  0  0  0  0
  9 17  1  0  0  0  0
 10 14  1  0  0  0  0
 10 18  1  0  0  0  0
 11 15  1  0  0  0  0
 11 19  1  0  0  0  0
 12 14  2  0  0  0  0
 12 20  1  0  0  0  0
 13 15  2  0  0  0  0
 13 21  1  0  0  0  0
 14 22  1  0  0  0  0
 15 23  1  0  0  0  0
M  END
> <PUBCHEM_COMPOUND_CID>
10295

> <PUBCHEM_CONFORMER_RMSD>
0.4

> <PUBCHEM_CONFORMER_DIVERSEORDER>
1

> <PUBCHEM_MMFF94_PARTIAL_CHARGES>
23
1 -0.2
10 -0.15
11 -0.15
12 -0.15
13 -0.15
14 -0.15
15 -0.15
16 0.15
17 0.15
18 0.15
19 0.15
2 -0.57
20 0.15
21 0.15
22 0.15
23 0.15
3 0.09
4 0.09
5 0.1
6 0.1
7 0.4
8 -0.15
9 -0.15

> <PUBCHEM_EFFECTIVE_ROTOR_COUNT>
0

> <PUBCHEM_PHARMACOPHORE_FEATURES>
4
1 2 acceptor
6 1 3 4 5 6 7 rings
6 3 5 8 10 12 14 rings
6 4 6 9 11 13 15 rings

> <PUBCHEM_HEAVY_ATOM_COUNT>
15

> <PUBCHEM_ATOM_DEF_STEREO_COUNT>
0

> <PUBCHEM_ATOM_UDEF_STEREO_COUNT>
0

> <PUBCHEM_BOND_DEF_STEREO_COUNT>
0

> <PUBCHEM_BOND_UDEF_STEREO_COUNT>
0

> <PUBCHEM_ISOTOPIC_ATOM_COUNT>
0

> <PUBCHEM_COMPONENT_COUNT>
1

> <PUBCHEM_CACTVS_TAUTO_COUNT>
1

> <PUBCHEM_CONFORMER_ID>
0000283700000001

> <PUBCHEM_MMFF94_ENERGY>
44.6863

> <PUBCHEM_FEATURE_SELFOVERLAP>
20.325

> <PUBCHEM_SHAPE_FINGERPRINT>
10062212 137 18411691080681564971
10411042 1 15744442624593254533
10608611 8 18410290289761421277
10967382 1 18410856542470482910
10980938 120 18409449189378355210
11132069 177 18410569578541535225
11471102 20 18410569569956797492
12032990 46 18410017627993986670
12251169 10 18408603656024803545
12382932 28 18340489963204457449
13140716 1 18410573942201843561
13221675 6 18409729564532117226
13380535 76 18410293592812759499
13897977 150 18410853231198618149
14144814 61 18410292518806918704
14325111 11 18410855464439135240
15196674 1 18410293609686465721
15219456 202 18411702054143411367
15309172 13 18412552015381502427
15442244 35 18194401096017075394
15536298 74 18342739615671521172
15775835 57 18412548720951584720
16945 1 18410575080368124695
17802600 8 18410849966907383137
17804303 29 18411704266172998516
18186145 218 18272658917533179844
18522853 276 18412543219082790833
193761 8 17690280413133845484
200 152 18130496501411748189
20510252 161 18272653436996986369
20645476 183 17824281490341204942
21249577 43 18410292501642997117
21267235 1 18410020935113783202
21501502 16 18410574002336608077
2334 1 18410575114727986477
23402539 116 18271515468326610630
23463225 33 18407760326427526004
23559900 14 18271525317488447310
2748010 2 18410575080368183300
335352 9 18050285868938296029
43471831 8 18334854970228108074
474 4 17024600121187970620
5104073 3 18410573985151478121
528886 8 18411412903933529304
537710 114 18410299133046388245
53812653 166 18342736342690365400
54173680 148 18120938574984742963
69090 78 18343015618612093911
7364860 26 18198062469421474086
84936 31 16342581613520348974
8809292 202 18260554424066822171
9709674 26 18411705399907636878

> <PUBCHEM_SHAPE_MULTIPOLES>
306.67
6.68
2.1
0.63
0
0.07
0
-0.39
0.56
0
-0.11
0
-0.02
0

> <PUBCHEM_SHAPE_SELFOVERLAP>
672.629

> <PUBCHEM_SHAPE_VOLUME>
165.2

> <PUBCHEM_COORDINATE_TYPE>
2
5
10

$$$$
