4185842
  -OEChem-11012400513D

 31 32  0     0  0  0  0  0  0999 V2000
    0.0350    1.2277   -0.7005 Si  0  0  0  0  0  0  0  0  0  0  0  0
    0.1546    2.8386    0.2131 C   0  0  0  0  0  0  0  0  0  0  0  0
   -1.5202    0.2778   -0.3105 C   0  0  0  0  0  0  0  0  0  0  0  0
    1.4033    0.0328   -0.2376 C   0  0  0  0  0  0  0  0  0  0  0  0
    1.4307    3.6360   -0.0230 C   0  0  0  0  0  0  0  0  0  0  0  0
   -2.0687   -0.5827   -1.2617 C   0  0  0  0  0  0  0  0  0  0  0  0
    2.2673   -0.4351   -1.2201 C   0  0  0  0  0  0  0  0  0  0  0  0
   -2.1362    0.4275    0.9321 C   0  0  0  0  0  0  0  0  0  0  0  0
    1.5413   -0.3747    1.0836 C   0  0  0  0  0  0  0  0  0  0  0  0
   -3.2331   -1.2933   -0.9703 C   0  0  0  0  0  0  0  0  0  0  0  0
    3.2851   -1.3246   -0.8760 C   0  0  0  0  0  0  0  0  0  0  0  0
   -3.3005   -0.2832    1.2234 C   0  0  0  0  0  0  0  0  0  0  0  0
    2.5592   -1.2641    1.4276 C   0  0  0  0  0  0  0  0  0  0  0  0
   -3.8489   -1.1436    0.2722 C   0  0  0  0  0  0  0  0  0  0  0  0
    3.4311   -1.7391    0.4476 C   0  0  0  0  0  0  0  0  0  0  0  0
    0.0864    1.4989   -2.1612 H   0  0  0  0  0  0  0  0  0  0  0  0
   -0.7004    3.4660   -0.0645 H   0  0  0  0  0  0  0  0  0  0  0  0
    0.0663    2.6564    1.2901 H   0  0  0  0  0  0  0  0  0  0  0  0
    1.4004    4.5716    0.5454 H   0  0  0  0  0  0  0  0  0  0  0  0
    2.3182    3.0792    0.2972 H   0  0  0  0  0  0  0  0  0  0  0  0
    1.5544    3.8903   -1.0815 H   0  0  0  0  0  0  0  0  0  0  0  0
   -1.6081   -0.7181   -2.2377 H   0  0  0  0  0  0  0  0  0  0  0  0
    2.1742   -0.1271   -2.2586 H   0  0  0  0  0  0  0  0  0  0  0  0
   -1.7332    1.0866    1.6967 H   0  0  0  0  0  0  0  0  0  0  0  0
    0.8796   -0.0169    1.8684 H   0  0  0  0  0  0  0  0  0  0  0  0
   -3.6603   -1.9635   -1.7105 H   0  0  0  0  0  0  0  0  0  0  0  0
    3.9641   -1.6946   -1.6387 H   0  0  0  0  0  0  0  0  0  0  0  0
   -3.7799   -0.1677    2.1911 H   0  0  0  0  0  0  0  0  0  0  0  0
    2.6741   -1.5862    2.4585 H   0  0  0  0  0  0  0  0  0  0  0  0
   -4.7553   -1.6971    0.4992 H   0  0  0  0  0  0  0  0  0  0  0  0
    4.2238   -2.4314    0.7156 H   0  0  0  0  0  0  0  0  0  0  0  0
  1  2  1  0  0  0  0
  1  3  1  0  0  0  0
  1  4  1  0  0  0  0
  1 16  1  0  0  0  0
  2  5  1  0  0  0  0
  2 17  1  0  0  0  0
  2 18  1  0  0  0  0
  3  6  2  0  0  0  0
  3  8  1  0  0  0  0
  4  7  2  0  0  0  0
  4  9  1  0  0  0  0
  5 19  1  0  0  0  0
  5 20  1  0  0  0  0
  5 21  1  0  0  0  0
  6 10  1  0  0  0  0
  6 22  1  0  0  0  0
  7 11  1  0  0  0  0
  7 23  1  0  0  0  0
  8 12  2  0  0  0  0
  8 24  1  0  0  0  0
  9 13  2  0  0  0  0
  9 25  1  0  0  0  0
 10 14  2  0  0  0  0
 10 26  1  0  0  0  0
 11 15  2  0  0  0  0
 11 27  1  0  0  0  0
 12 14  1  0  0  0  0
 12 28  1  0  0  0  0
 13 15  1  0  0  0  0
 13 29  1  0  0  0  0
 14 30  1  0  0  0  0
 15 31  1  0  0  0  0
M  END
> <PUBCHEM_COMPOUND_CID>
4185842

> <PUBCHEM_CONFORMER_RMSD>
0.6

> <PUBCHEM_CONFORMER_DIVERSEORDER>
2
7
8
1
5
6
9
3
4
10

> <PUBCHEM_MMFF94_PARTIAL_CHARGES>
25
1 0.72
10 -0.15
11 -0.15
12 -0.15
13 -0.15
14 -0.15
15 -0.15
16 -0.2
2 -0.08
22 0.15
23 0.15
24 0.15
25 0.15
26 0.15
27 0.15
28 0.15
29 0.15
3 -0.22
30 0.15
31 0.15
4 -0.22
6 -0.15
7 -0.15
8 -0.15
9 -0.15

> <PUBCHEM_EFFECTIVE_ROTOR_COUNT>
3

> <PUBCHEM_PHARMACOPHORE_FEATURES>
2
6 3 6 8 10 12 14 rings
6 4 7 9 11 13 15 rings

> <PUBCHEM_HEAVY_ATOM_COUNT>
15

> <PUBCHEM_ATOM_DEF_STEREO_COUNT>
0

> <PUBCHEM_ATOM_UDEF_STEREO_COUNT>
0

> <PUBCHEM_BOND_DEF_STEREO_COUNT>
0

> <PUBCHEM_BOND_UDEF_STEREO_COUNT>
0

> <PUBCHEM_ISOTOPIC_ATOM_COUNT>
0

> <PUBCHEM_COMPONENT_COUNT>
1

> <PUBCHEM_CACTVS_TAUTO_COUNT>
1

> <PUBCHEM_CONFORMER_ID>
003FDEF200000002

> <PUBCHEM_MMFF94_ENERGY>
30.2325

> <PUBCHEM_FEATURE_SELFOVERLAP>
10.149

> <PUBCHEM_SHAPE_FINGERPRINT>
10618630 7 18335702680913521430
10989021 7 18413388765252653029
11578080 2 17967801739416104132
121448 382 11098439064786335837
12251169 10 16128649756305007767
12363563 72 18336536140623309094
12553582 1 18410578357428561343
12707595 3 18334010601200778239
13296908 3 18336256877570235973
13533116 47 18191597552474135891
13538477 17 17827645751272833844
14787075 74 18187651357801877628
15375462 189 18334869319681662548
15906896 17 17758113696462290501
16945 1 18265049322064213404
1813 80 18343030964588128630
18186145 218 8286199500074461330
200 152 17676491601330121178
20291156 8 18336270058803969638
20361792 2 18410569578662763679
20645477 70 18265886050982540103
20671657 53 18335976528159806377
21296965 67 18410009910017052493
21524375 3 17620469550954331724
21713013 43 16515695441716468547
21731228 192 11383821680131107116
21731516 1 18408041788424220327
22112679 90 18196113086982132712
2255824 54 18267591384346861708
23402539 116 18261396581829267038
23419403 2 14862775409428870448
23557571 272 18196922285101874592
23598288 3 18046920276941773388
23598291 2 18272102629438180929
23598294 1 18194692457950530972
31174 14 18262801899138415061
4175511 71 18341623598189293973
7364860 26 18197220453951956532
74978 22 18338517542692454735
7615 1 17774442814840917045
81228 2 18053091822681490952
81539 233 17974562808113490252
90316 7 18196939876633947209

> <PUBCHEM_SHAPE_MULTIPOLES>
326.91
6.19
2.82
1.39
2.26
3.51
-0.03
-4.88
-0.43
-1.87
-0.2
0.02
-0.38
-0.38

> <PUBCHEM_SHAPE_SELFOVERLAP>
672.301

> <PUBCHEM_SHAPE_VOLUME>
188.6

> <PUBCHEM_COORDINATE_TYPE>
2
5
10

$$$$
