87598
  -OEChem-11012400393D

 26 25  0     0  0  0  0  0  0999 V2000
    1.4446    0.5895    0.3803 O   0  0  0  0  0  0  0  0  0  0  0  0
    0.3048   -1.3806    0.7580 O   0  0  0  0  0  0  0  0  0  0  0  0
   -2.1612   -0.1976    0.0671 C   0  0  0  0  0  0  0  0  0  0  0  0
   -0.8738    0.6247    0.0474 C   0  0  0  0  0  0  0  0  0  0  0  0
   -3.3740    0.6594   -0.2929 C   0  0  0  0  0  0  0  0  0  0  0  0
    2.6642   -0.0879    0.0608 C   0  0  0  0  0  0  0  0  0  0  0  0
    0.3311   -0.1998    0.4394 C   0  0  0  0  0  0  0  0  0  0  0  0
   -4.6618   -0.1466   -0.2370 C   0  0  0  0  0  0  0  0  0  0  0  0
    2.5169   -0.7744   -1.2885 C   0  0  0  0  0  0  0  0  0  0  0  0
    3.8093    0.9133    0.0652 C   0  0  0  0  0  0  0  0  0  0  0  0
   -2.0761   -1.0354   -0.6362 H   0  0  0  0  0  0  0  0  0  0  0  0
   -2.3029   -0.6360    1.0630 H   0  0  0  0  0  0  0  0  0  0  0  0
   -0.9569    1.4603    0.7514 H   0  0  0  0  0  0  0  0  0  0  0  0
   -0.7051    1.0211   -0.9601 H   0  0  0  0  0  0  0  0  0  0  0  0
   -3.2508    1.0741   -1.3001 H   0  0  0  0  0  0  0  0  0  0  0  0
   -3.4514    1.5058    0.3995 H   0  0  0  0  0  0  0  0  0  0  0  0
    2.8662   -0.8356    0.8379 H   0  0  0  0  0  0  0  0  0  0  0  0
   -4.6305   -0.9850   -0.9401 H   0  0  0  0  0  0  0  0  0  0  0  0
   -4.8313   -0.5466    0.7678 H   0  0  0  0  0  0  0  0  0  0  0  0
   -5.5161    0.4852   -0.4995 H   0  0  0  0  0  0  0  0  0  0  0  0
    3.4700   -1.2053   -1.6127 H   0  0  0  0  0  0  0  0  0  0  0  0
    1.7854   -1.5875   -1.2671 H   0  0  0  0  0  0  0  0  0  0  0  0
    2.1807   -0.0650   -2.0531 H   0  0  0  0  0  0  0  0  0  0  0  0
    4.7652    0.4284   -0.1542 H   0  0  0  0  0  0  0  0  0  0  0  0
    3.8819    1.4045    1.0415 H   0  0  0  0  0  0  0  0  0  0  0  0
    3.6386    1.7049   -0.6726 H   0  0  0  0  0  0  0  0  0  0  0  0
  1  6  1  0  0  0  0
  1  7  1  0  0  0  0
  2  7  2  0  0  0  0
  3  4  1  0  0  0  0
  3  5  1  0  0  0  0
  3 11  1  0  0  0  0
  3 12  1  0  0  0  0
  4  7  1  0  0  0  0
  4 13  1  0  0  0  0
  4 14  1  0  0  0  0
  5  8  1  0  0  0  0
  5 15  1  0  0  0  0
  5 16  1  0  0  0  0
  6  9  1  0  0  0  0
  6 10  1  0  0  0  0
  6 17  1  0  0  0  0
  8 18  1  0  0  0  0
  8 19  1  0  0  0  0
  8 20  1  0  0  0  0
  9 21  1  0  0  0  0
  9 22  1  0  0  0  0
  9 23  1  0  0  0  0
 10 24  1  0  0  0  0
 10 25  1  0  0  0  0
 10 26  1  0  0  0  0
M  END
> <PUBCHEM_COMPOUND_CID>
87598

> <PUBCHEM_CONFORMER_RMSD>
0.6

> <PUBCHEM_CONFORMER_DIVERSEORDER>
1
121
68
120
83
107
119
55
122
5
54
91
4
105
58
62
99
103
56
117
19
110
67
118
16
94
9
115
49
50
109
101
41
95
104
2
102
116
111
8
112
38
17
23
98
42
89
61
40
44
108
43
114
34
10
11
65
32
72
88
106
66
51
100
79
33
57
45
97
52
71
6
64
13
92
3
73
75
35
60
70
63
113
78
30
39
85
80
59
74
26
96
28
84
14
22
24
93
69
48
47
36
15
21
27
53
25
29
31
77
20
37
87
12
46
86
82
18
90
7
81
76

> <PUBCHEM_MMFF94_PARTIAL_CHARGES>
5
1 -0.43
2 -0.57
4 0.06
6 0.28
7 0.66

> <PUBCHEM_EFFECTIVE_ROTOR_COUNT>
5

> <PUBCHEM_PHARMACOPHORE_FEATURES>
3
1 2 acceptor
1 8 hydrophobe
3 6 9 10 hydrophobe

> <PUBCHEM_HEAVY_ATOM_COUNT>
10

> <PUBCHEM_ATOM_DEF_STEREO_COUNT>
0

> <PUBCHEM_ATOM_UDEF_STEREO_COUNT>
0

> <PUBCHEM_BOND_DEF_STEREO_COUNT>
0

> <PUBCHEM_BOND_UDEF_STEREO_COUNT>
0

> <PUBCHEM_ISOTOPIC_ATOM_COUNT>
0

> <PUBCHEM_COMPONENT_COUNT>
1

> <PUBCHEM_CACTVS_TAUTO_COUNT>
1

> <PUBCHEM_CONFORMER_ID>
0001562E00000001

> <PUBCHEM_MMFF94_ENERGY>
7.6265

> <PUBCHEM_FEATURE_SELFOVERLAP>
15.223

> <PUBCHEM_SHAPE_FINGERPRINT>
10130415 120 12751234813799864435
10219947 1 15719393914796182783
11062470 55 17703790331600454256
12932764 1 18058991931504858849
14325111 11 18333730212718703849
18186145 218 18338243677928255108
190213 19 18131068225661620981
20279233 1 18410862070156917330
20281407 28 14908178642612444071
20645477 70 17846222107281826694
20724930 37 15647049365387437232
21293036 1 18411418418903697753
22485316 2 16415755323771964733
23402539 116 18337380621793938188
23402655 69 18201997703573939325
366044 4 18259702319940854322

> <PUBCHEM_SHAPE_MULTIPOLES>
194.06
7.82
1.02
0.86
5.06
0.1
-0.09
-0.91
-1.46
-0.49
-0.01
-0.3
0.21
0.33

> <PUBCHEM_SHAPE_SELFOVERLAP>
353.824

> <PUBCHEM_SHAPE_VOLUME>
124.9

> <PUBCHEM_COORDINATE_TYPE>
2
5
10

$$$$
