121670
  -OEChem-11012401033D

 27 26  0     0  0  0  0  0  0999 V2000
    0.8464    2.0659   -0.5260 F   0  0  0  0  0  0  0  0  0  0  0  0
   -0.9276   -1.7888    1.5493 F   0  0  0  0  0  0  0  0  0  0  0  0
    1.1983   -1.5895    1.3982 F   0  0  0  0  0  0  0  0  0  0  0  0
    1.4736    0.2550   -2.3497 F   0  0  0  0  0  0  0  0  0  0  0  0
    2.5756   -0.9508   -0.8953 F   0  0  0  0  0  0  0  0  0  0  0  0
    3.1719    1.0970   -1.2872 F   0  0  0  0  0  0  0  0  0  0  0  0
    2.3011   -0.0923    1.8537 F   0  0  0  0  0  0  0  0  0  0  0  0
    3.0515    1.7649    1.0159 F   0  0  0  0  0  0  0  0  0  0  0  0
    1.1821    1.7554    2.1278 F   0  0  0  0  0  0  0  0  0  0  0  0
    1.1354   -2.2844   -1.2608 F   0  0  0  0  0  0  0  0  0  0  0  0
   -1.0167   -2.5539   -1.1616 F   0  0  0  0  0  0  0  0  0  0  0  0
    0.2818   -3.7687    0.0837 F   0  0  0  0  0  0  0  0  0  0  0  0
   -3.7863    0.4851   -0.0140 F   0  0  0  0  0  0  0  0  0  0  0  0
   -2.8119   -0.7158    1.4933 F   0  0  0  0  0  0  0  0  0  0  0  0
   -2.7334   -1.3512   -0.5813 F   0  0  0  0  0  0  0  0  0  0  0  0
   -3.0251    2.2564   -0.5248 F   0  0  0  0  0  0  0  0  0  0  0  0
   -1.1740    2.2260   -1.6333 F   0  0  0  0  0  0  0  0  0  0  0  0
   -1.1835    2.8420    0.4582 F   0  0  0  0  0  0  0  0  0  0  0  0
    1.1661    0.8094   -0.0618 C   0  0  0  0  0  0  0  0  0  0  0  0
   -0.1375   -0.0181    0.1633 C   0  0  0  0  0  0  0  0  0  0  0  0
    0.0569   -1.4567    0.6620 C   0  0  0  0  0  0  0  0  0  0  0  0
   -1.3861    0.5230    0.0073 C   0  0  0  0  0  0  0  0  0  0  0  0
    2.0975    0.2817   -1.1509 C   0  0  0  0  0  0  0  0  0  0  0  0
    1.9243    1.0503    1.2459 C   0  0  0  0  0  0  0  0  0  0  0  0
    0.1060   -2.5297   -0.4157 C   0  0  0  0  0  0  0  0  0  0  0  0
   -2.6725   -0.2555    0.2189 C   0  0  0  0  0  0  0  0  0  0  0  0
   -1.7137    1.9434   -0.4149 C   0  0  0  0  0  0  0  0  0  0  0  0
  1 19  1  0  0  0  0
  2 21  1  0  0  0  0
  3 21  1  0  0  0  0
  4 23  1  0  0  0  0
  5 23  1  0  0  0  0
  6 23  1  0  0  0  0
  7 24  1  0  0  0  0
  8 24  1  0  0  0  0
  9 24  1  0  0  0  0
 10 25  1  0  0  0  0
 11 25  1  0  0  0  0
 12 25  1  0  0  0  0
 13 26  1  0  0  0  0
 14 26  1  0  0  0  0
 15 26  1  0  0  0  0
 16 27  1  0  0  0  0
 17 27  1  0  0  0  0
 18 27  1  0  0  0  0
 19 20  1  0  0  0  0
 19 23  1  0  0  0  0
 19 24  1  0  0  0  0
 20 21  1  0  0  0  0
 20 22  2  0  0  0  0
 21 25  1  0  0  0  0
 22 26  1  0  0  0  0
 22 27  1  0  0  0  0
M  END
> <PUBCHEM_COMPOUND_CID>
121670

> <PUBCHEM_CONFORMER_RMSD>
0.8

> <PUBCHEM_CONFORMER_DIVERSEORDER>
1
3
2

> <PUBCHEM_MMFF94_PARTIAL_CHARGES>
27
1 -0.34
10 -0.34
11 -0.34
12 -0.34
13 -0.34
14 -0.34
15 -0.34
16 -0.34
17 -0.34
18 -0.34
19 0.48
2 -0.34
20 -0.28
21 0.82
22 -0.28
23 1.02
24 1.02
25 1.02
26 1.16
27 1.16
3 -0.34
4 -0.34
5 -0.34
6 -0.34
7 -0.34
8 -0.34
9 -0.34

> <PUBCHEM_EFFECTIVE_ROTOR_COUNT>
7

> <PUBCHEM_PHARMACOPHORE_FEATURES>
0

> <PUBCHEM_HEAVY_ATOM_COUNT>
27

> <PUBCHEM_ATOM_DEF_STEREO_COUNT>
0

> <PUBCHEM_ATOM_UDEF_STEREO_COUNT>
0

> <PUBCHEM_BOND_DEF_STEREO_COUNT>
0

> <PUBCHEM_BOND_UDEF_STEREO_COUNT>
0

> <PUBCHEM_ISOTOPIC_ATOM_COUNT>
0

> <PUBCHEM_COMPONENT_COUNT>
1

> <PUBCHEM_CACTVS_TAUTO_COUNT>
1

> <PUBCHEM_CONFORMER_ID>
0001DB4600000001

> <PUBCHEM_MMFF94_ENERGY>
44.4991

> <PUBCHEM_FEATURE_SELFOVERLAP>
0

> <PUBCHEM_SHAPE_FINGERPRINT>
10863032 1 18042422243649852446
10948715 1 17844521317512368392
11578080 2 13756658877939602986
12423570 1 16970585645630552696
12654903 92 17834984209271388239
13132413 78 17392188525930609026
13140716 1 18264203617191616537
13172582 1 18192149515146417521
13538477 17 17460312380885943242
14251745 187 18263657181387058406
144361 1 18189914018785884187
14817 1 13172513823574371196
15375462 175 18335718155590914125
15852999 172 17682923688491740349
16945 1 18266466596926186900
17492 54 17608679410712837053
18981168 100 17987799584092741217
20511035 2 18044919204280764019
20691752 17 18340204219146572111
20905425 154 18049724022918226079
22344851 341 17901965048923321274
2334 1 18407760326390752109
23419403 2 17773870892679643734
23493267 7 17749405787745040179
23526113 38 17987539051455414124
238 59 18128238005353879541
2748010 2 18409165480865838757
3797600 57 16952555716482405267
495365 180 18056173810125621581
5845 1 14965549282285603024
7364860 26 18053934057367608409
81228 2 17693094475822690627

> <PUBCHEM_SHAPE_MULTIPOLES>
424.72
4.14
3.27
1.66
1.34
1.44
0.1
-1.59
-0.05
0.48
-0.29
-0.93
-0.16
0.56

> <PUBCHEM_SHAPE_SELFOVERLAP>
927.667

> <PUBCHEM_SHAPE_VOLUME>
227.1

> <PUBCHEM_COORDINATE_TYPE>
2
5
10

$$$$
