141803
  -OEChem-11012401263D

 51 52  0     0  0  0  0  0  0999 V2000
   -1.4459    0.0572    2.2857 O   0  0  0  0  0  0  0  0  0  0  0  0
    0.6841    1.3231    0.2953 C   0  0  0  0  0  0  0  0  0  0  0  0
    0.8343   -1.0865    0.3895 C   0  0  0  0  0  0  0  0  0  0  0  0
    0.1350    0.0881    0.5621 C   0  0  0  0  0  0  0  0  0  0  0  0
    2.7306    0.2141   -0.3520 C   0  0  0  0  0  0  0  0  0  0  0  0
   -0.0749    2.5965    0.4829 C   0  0  0  0  0  0  0  0  0  0  0  0
    0.2380   -2.4256    0.6791 C   0  0  0  0  0  0  0  0  0  0  0  0
    4.1358    0.2823   -0.8468 C   0  0  0  0  0  0  0  0  0  0  0  0
    1.9985    1.3868   -0.1676 C   0  0  0  0  0  0  0  0  0  0  0  0
    2.1485   -1.0225   -0.0736 C   0  0  0  0  0  0  0  0  0  0  0  0
   -0.2608    3.3676   -0.8363 C   0  0  0  0  0  0  0  0  0  0  0  0
    0.5686    3.5120    1.5399 C   0  0  0  0  0  0  0  0  0  0  0  0
    0.9853   -3.1697    1.8006 C   0  0  0  0  0  0  0  0  0  0  0  0
    0.1550   -3.3140   -0.5753 C   0  0  0  0  0  0  0  0  0  0  0  0
   -1.2729    0.0197    1.0583 C   0  0  0  0  0  0  0  0  0  0  0  0
    5.1468   -0.2779    0.1717 C   0  0  0  0  0  0  0  0  0  0  0  0
    4.3171   -0.4227   -2.2044 C   0  0  0  0  0  0  0  0  0  0  0  0
   -2.4116   -0.0862    0.1601 C   0  0  0  0  0  0  0  0  0  0  0  0
   -2.2102   -0.1283   -1.2196 C   0  0  0  0  0  0  0  0  0  0  0  0
   -3.7054   -0.1460    0.6781 C   0  0  0  0  0  0  0  0  0  0  0  0
   -3.3024   -0.2301   -2.0811 C   0  0  0  0  0  0  0  0  0  0  0  0
   -4.7975   -0.2480   -0.1836 C   0  0  0  0  0  0  0  0  0  0  0  0
   -4.5959   -0.2899   -1.5631 C   0  0  0  0  0  0  0  0  0  0  0  0
   -1.0868    2.4009    0.8511 H   0  0  0  0  0  0  0  0  0  0  0  0
   -0.7920   -2.3289    1.0364 H   0  0  0  0  0  0  0  0  0  0  0  0
    4.4062    1.3353   -1.0054 H   0  0  0  0  0  0  0  0  0  0  0  0
    2.4594    2.3465   -0.3870 H   0  0  0  0  0  0  0  0  0  0  0  0
    2.7216   -1.9343   -0.2185 H   0  0  0  0  0  0  0  0  0  0  0  0
   -0.7368    2.7365   -1.5946 H   0  0  0  0  0  0  0  0  0  0  0  0
   -0.8995    4.2441   -0.6812 H   0  0  0  0  0  0  0  0  0  0  0  0
    0.6920    3.7212   -1.2444 H   0  0  0  0  0  0  0  0  0  0  0  0
    1.5567    3.8685    1.2301 H   0  0  0  0  0  0  0  0  0  0  0  0
   -0.0593    4.3917    1.7191 H   0  0  0  0  0  0  0  0  0  0  0  0
    0.6854    2.9835    2.4927 H   0  0  0  0  0  0  0  0  0  0  0  0
    2.0113   -3.4239    1.5142 H   0  0  0  0  0  0  0  0  0  0  0  0
    0.4704   -4.1038    2.0507 H   0  0  0  0  0  0  0  0  0  0  0  0
    1.0314   -2.5584    2.7089 H   0  0  0  0  0  0  0  0  0  0  0  0
   -0.3923   -2.8076   -1.3778 H   0  0  0  0  0  0  0  0  0  0  0  0
   -0.3707   -4.2482   -0.3493 H   0  0  0  0  0  0  0  0  0  0  0  0
    1.1462   -3.5773   -0.9598 H   0  0  0  0  0  0  0  0  0  0  0  0
    5.0083   -1.3514    0.3388 H   0  0  0  0  0  0  0  0  0  0  0  0
    6.1723   -0.1253   -0.1820 H   0  0  0  0  0  0  0  0  0  0  0  0
    5.0457    0.2279    1.1384 H   0  0  0  0  0  0  0  0  0  0  0  0
    3.6188   -0.0212   -2.9472 H   0  0  0  0  0  0  0  0  0  0  0  0
    5.3339   -0.2714   -2.5825 H   0  0  0  0  0  0  0  0  0  0  0  0
    4.1457   -1.5021   -2.1320 H   0  0  0  0  0  0  0  0  0  0  0  0
   -1.2211   -0.0845   -1.6653 H   0  0  0  0  0  0  0  0  0  0  0  0
   -3.8895   -0.1152    1.7488 H   0  0  0  0  0  0  0  0  0  0  0  0
   -3.1458   -0.2629   -3.1554 H   0  0  0  0  0  0  0  0  0  0  0  0
   -5.8050   -0.2946    0.2194 H   0  0  0  0  0  0  0  0  0  0  0  0
   -5.4464   -0.3693   -2.2340 H   0  0  0  0  0  0  0  0  0  0  0  0
  1 15  2  0  0  0  0
  2  4  2  0  0  0  0
  2  6  1  0  0  0  0
  2  9  1  0  0  0  0
  3  4  1  0  0  0  0
  3  7  1  0  0  0  0
  3 10  2  0  0  0  0
  4 15  1  0  0  0  0
  5  8  1  0  0  0  0
  5  9  2  0  0  0  0
  5 10  1  0  0  0  0
  6 11  1  0  0  0  0
  6 12  1  0  0  0  0
  6 24  1  0  0  0  0
  7 13  1  0  0  0  0
  7 14  1  0  0  0  0
  7 25  1  0  0  0  0
  8 16  1  0  0  0  0
  8 17  1  0  0  0  0
  8 26  1  0  0  0  0
  9 27  1  0  0  0  0
 10 28  1  0  0  0  0
 11 29  1  0  0  0  0
 11 30  1  0  0  0  0
 11 31  1  0  0  0  0
 12 32  1  0  0  0  0
 12 33  1  0  0  0  0
 12 34  1  0  0  0  0
 13 35  1  0  0  0  0
 13 36  1  0  0  0  0
 13 37  1  0  0  0  0
 14 38  1  0  0  0  0
 14 39  1  0  0  0  0
 14 40  1  0  0  0  0
 15 18  1  0  0  0  0
 16 41  1  0  0  0  0
 16 42  1  0  0  0  0
 16 43  1  0  0  0  0
 17 44  1  0  0  0  0
 17 45  1  0  0  0  0
 17 46  1  0  0  0  0
 18 19  2  0  0  0  0
 18 20  1  0  0  0  0
 19 21  1  0  0  0  0
 19 47  1  0  0  0  0
 20 22  2  0  0  0  0
 20 48  1  0  0  0  0
 21 23  2  0  0  0  0
 21 49  1  0  0  0  0
 22 23  1  0  0  0  0
 22 50  1  0  0  0  0
 23 51  1  0  0  0  0
M  END
> <PUBCHEM_COMPOUND_CID>
141803

> <PUBCHEM_CONFORMER_RMSD>
0.8

> <PUBCHEM_CONFORMER_DIVERSEORDER>
1

> <PUBCHEM_MMFF94_PARTIAL_CHARGES>
24
1 -0.57
10 -0.15
15 0.4
18 0.09
19 -0.15
2 -0.14
20 -0.15
21 -0.15
22 -0.15
23 -0.15
27 0.15
28 0.15
3 -0.14
4 0.09
47 0.15
48 0.15
49 0.15
5 -0.14
50 0.15
51 0.15
6 0.14
7 0.14
8 0.14
9 -0.15

> <PUBCHEM_EFFECTIVE_ROTOR_COUNT>
5

> <PUBCHEM_PHARMACOPHORE_FEATURES>
6
1 1 acceptor
3 6 11 12 hydrophobe
3 7 13 14 hydrophobe
3 8 16 17 hydrophobe
6 18 19 20 21 22 23 rings
6 2 3 4 5 9 10 rings

> <PUBCHEM_HEAVY_ATOM_COUNT>
23

> <PUBCHEM_ATOM_DEF_STEREO_COUNT>
0

> <PUBCHEM_ATOM_UDEF_STEREO_COUNT>
0

> <PUBCHEM_BOND_DEF_STEREO_COUNT>
0

> <PUBCHEM_BOND_UDEF_STEREO_COUNT>
0

> <PUBCHEM_ISOTOPIC_ATOM_COUNT>
0

> <PUBCHEM_COMPONENT_COUNT>
1

> <PUBCHEM_CACTVS_TAUTO_COUNT>
1

> <PUBCHEM_CONFORMER_ID>
000229EB00000001

> <PUBCHEM_MMFF94_ENERGY>
73.5704

> <PUBCHEM_FEATURE_SELFOVERLAP>
30.446

> <PUBCHEM_SHAPE_FINGERPRINT>
10165383 225 17967537878532127711
10366900 7 18114172060885230471
104564 63 18339080363401601573
10693767 8 18201431450527528143
10863032 1 15864062157141656424
11578080 2 17753621440202388316
11796584 16 15339127814061240991
12035758 1 18263920119433028864
12236239 1 17775571944346660979
12553582 1 18343011169405692375
12730499 353 18187358862065705435
12969540 114 18187926230928337022
13149001 5 18194973065254001766
133893 2 17171257109500897026
13583140 156 16950859123276290848
13911987 19 18188226376164982238
14943834 7 17761211016585765970
14955137 171 17916329228222093827
15163728 17 16444210624385052502
15210252 30 17676762093996952813
16752209 62 18262242123492905584
16945 1 18113331985928748713
17349148 13 18042122068791658362
17357779 13 18411139134323904676
17492 54 18410006658653080207
1813 80 17917439730186390444
18186145 218 18339917229447216127
20600515 1 18410298055590047144
21421861 104 17901673669931238251
22182313 1 17975693106298342003
22393880 68 18340188787603085623
22907989 373 17897475872350214268
23114952 82 17460303370218993423
2334 1 17834977621603744600
23402539 116 18272373057679592764
23558518 356 17754462252906274776
23559900 14 16987990730352276424
238 59 18191279746031256871
25 1 18260545623916170323
25147074 1 17974577896944933130
266924 87 18190178984346263052
2748010 2 18048602817363002872
283562 15 18338803304078396352
3027735 51 18266183829243467348
3060560 45 18337655521128213447
3250762 1 17690002657772789194
34934 24 18198913500412045881
350125 39 17688036726603046833
484985 159 15115961958149527270
70251023 43 18051982415607476427
7226269 152 18335976550177935928
81228 2 18269576991358282224

> <PUBCHEM_SHAPE_MULTIPOLES>
467.46
7.81
3.42
1.81
0.27
0.84
0.21
-1.2
4.32
-1.09
-1.32
0.32
-0.2
-0.16

> <PUBCHEM_SHAPE_SELFOVERLAP>
985.566

> <PUBCHEM_SHAPE_VOLUME>
266

> <PUBCHEM_COORDINATE_TYPE>
2
5
10

$$$$
